MODEL 1
REMARK VINA RESULT:     -13.0      0.000      0.000
REMARK  Name = 
REMARK  6 active torsions:
REMARK  status: ('A' for Active; 'I' for Inactive)
REMARK    1  A    between atoms: C_2  and  C_3
REMARK    2  A    between atoms: C_2  and  C_25
REMARK    3  A    between atoms: C_10  and  N_11
REMARK    4  A    between atoms: C_12  and  C_14
REMARK    5  A    between atoms: N_27  and  C_28
REMARK    6  A    between atoms: C_28  and  C_29
REMARK                            x       y       z     vdW  Elec       q    Type
REMARK                         _______ _______ _______ _____ _____    ______ ____
ROOT
ATOM      3  C   UNL     1      -3.983   3.157  24.591  0.00  0.00    +0.039 C 
ATOM      4  C   UNL     1      -4.609   3.277  25.116  0.00  0.00    +0.003 C 
ATOM      5  C   UNL     1      -5.061   2.637  25.372  0.00  0.00    +0.000 C 
ATOM      6  C   UNL     1      -4.888   1.877  25.105  0.00  0.00    +0.002 C 
ATOM      7  C   UNL     1      -5.512   1.997  25.628  0.00  0.00    +0.000 C 
ATOM      8  C   UNL     1      -5.340   1.235  25.361  0.00  0.00    +0.002 C 
ATOM      9  C   UNL     1      -5.166   0.475  25.093  0.00  0.00    +0.022 C 
ATOM     10  C   UNL     1      -4.540   0.355  24.569  0.00  0.00    +0.096 C 
ATOM     20  C   UNL     1      -4.088   0.995  24.312  0.00  0.00    +0.022 C 
ATOM     21  C   UNL     1      -3.463   0.875  23.788  0.00  0.00    +0.002 C 
ATOM     22  C   UNL     1      -4.261   1.756  24.580  0.00  0.00    +0.032 C 
ATOM     23  C   UNL     1      -3.810   2.397  24.324  0.00  0.00    +0.152 C 
ATOM     24  O   UNL     1      -3.184   2.276  23.799  0.00  0.00    -0.223 OA
ENDROOT
BRANCH  10  11
ATOM     11  N   UNL     1      -4.367  -0.406  24.301  0.00  0.00    -0.202 NA
ATOM     12  C   UNL     1      -4.146  -0.992  24.837  0.00  0.00    +0.282 C 
ATOM     13  O   UNL     1      -4.098  -0.817  25.643  0.00  0.00    -0.267 OA
BRANCH  12  14
ATOM     14  C   UNL     1      -3.973  -1.754  24.570  0.00  0.00    +0.136 A 
ATOM     15  N   UNL     1      -4.350  -2.051  23.900  0.00  0.00    -0.239 NA
ATOM     16  C   UNL     1      -4.177  -2.813  23.633  0.00  0.00    +0.099 A 
ATOM     17  C   UNL     1      -3.627  -3.276  24.036  0.00  0.00    +0.021 A 
ATOM     18  C   UNL     1      -3.249  -2.978  24.707  0.00  0.00    +0.003 A 
ATOM     19  C   UNL     1      -3.423  -2.217  24.974  0.00  0.00    +0.024 A 
ENDBRANCH  12  14
ENDBRANCH  10  11
BRANCH   3   2
ATOM      1  C   UNL     1      -3.698   4.159  23.612  0.00  0.00    +0.010 C 
ATOM      2  C   UNL     1      -3.531   3.798  24.335  0.00  0.00    +0.081 C 
BRANCH   2  25
ATOM     25  C   UNL     1      -2.911   4.078  24.802  0.00  0.00    +0.241 C 
ATOM     26  O   UNL     1      -3.022   4.743  25.280  0.00  0.00    -0.273 OA
ATOM     27  N   UNL     1      -2.180   3.694  24.793  0.00  0.00    -0.199 NA
BRANCH  27  28
ATOM     28  C   UNL     1      -1.562   3.974  25.260  0.00  0.00    +0.160 C 
BRANCH  28  29
ATOM     29  C   UNL     1      -0.928   3.480  25.446  0.00  0.00    +0.081 A 
ATOM     30  N   UNL     1      -0.350   3.319  24.880  0.00  0.00    -0.246 NA
ATOM     31  C   UNL     1       0.283   2.824  25.067  0.00  0.00    +0.099 A 
ATOM     32  C   UNL     1       0.338   2.490  25.820  0.00  0.00    +0.021 A 
ATOM     33  C   UNL     1      -0.241   2.652  26.385  0.00  0.00    +0.003 A 
ATOM     34  C   UNL     1      -0.874   3.147  26.198  0.00  0.00    +0.017 A 
ENDBRANCH  28  29
ENDBRANCH  27  28
ENDBRANCH   2  25
ENDBRANCH   3   2
TORSDOF 6
ENDMDL
MODEL 2
REMARK VINA RESULT:     -11.9      3.014      4.935
REMARK  Name = 
REMARK  6 active torsions:
REMARK  status: ('A' for Active; 'I' for Inactive)
REMARK    1  A    between atoms: C_2  and  C_3
REMARK    2  A    between atoms: C_2  and  C_25
REMARK    3  A    between atoms: C_10  and  N_11
REMARK    4  A    between atoms: C_12  and  C_14
REMARK    5  A    between atoms: N_27  and  C_28
REMARK    6  A    between atoms: C_28  and  C_29
REMARK                            x       y       z     vdW  Elec       q    Type
REMARK                         _______ _______ _______ _____ _____    ______ ____
ROOT
ATOM      3  C   UNL     1      -0.018   0.644  23.965  0.00  0.00    +0.039 C 
ATOM      4  C   UNL     1       0.387   1.360  24.035  0.00  0.00    +0.003 C 
ATOM      5  C   UNL     1      -0.010   2.035  24.292  0.00  0.00    +0.000 C 
ATOM      6  C   UNL     1      -0.812   1.995  24.480  0.00  0.00    +0.002 C 
ATOM      7  C   UNL     1      -0.408   2.709  24.550  0.00  0.00    +0.000 C 
ATOM      8  C   UNL     1      -1.210   2.670  24.738  0.00  0.00    +0.002 C 
ATOM      9  C   UNL     1      -2.012   2.630  24.926  0.00  0.00    +0.022 C 
ATOM     10  C   UNL     1      -2.417   1.913  24.857  0.00  0.00    +0.096 C 
ATOM     20  C   UNL     1      -2.019   1.239  24.599  0.00  0.00    +0.022 C 
ATOM     21  C   UNL     1      -2.424   0.523  24.530  0.00  0.00    +0.002 C 
ATOM     22  C   UNL     1      -1.217   1.278  24.411  0.00  0.00    +0.032 C 
ATOM     23  C   UNL     1      -0.819   0.604  24.153  0.00  0.00    +0.152 C 
ATOM     24  O   UNL     1      -1.224  -0.112  24.084  0.00  0.00    -0.223 OA
ENDROOT
BRANCH  10  11
ATOM     11  N   UNL     1      -3.219   1.874  25.045  0.00  0.00    -0.202 NA
ATOM     12  C   UNL     1      -3.720   2.499  24.851  0.00  0.00    +0.282 C 
ATOM     13  O   UNL     1      -3.419   3.166  24.468  0.00  0.00    -0.267 OA
BRANCH  12  14
ATOM     14  C   UNL     1      -4.523   2.459  25.040  0.00  0.00    +0.136 A 
ATOM     15  N   UNL     1      -5.019   1.945  24.628  0.00  0.00    -0.239 NA
ATOM     16  C   UNL     1      -5.821   1.905  24.817  0.00  0.00    +0.099 A 
ATOM     17  C   UNL     1      -6.127   2.381  25.417  0.00  0.00    +0.021 A 
ATOM     18  C   UNL     1      -5.631   2.896  25.830  0.00  0.00    +0.003 A 
ATOM     19  C   UNL     1      -4.829   2.935  25.640  0.00  0.00    +0.024 A 
ENDBRANCH  12  14
ENDBRANCH  10  11
BRANCH   3   2
ATOM      1  C   UNL     1       0.244  -0.758  24.074  0.00  0.00    +0.010 C 
ATOM      2  C   UNL     1       0.381  -0.031  23.707  0.00  0.00    +0.081 C 
BRANCH   2  25
ATOM     25  C   UNL     1       0.916   0.020  23.082  0.00  0.00    +0.241 C 
ATOM     26  O   UNL     1       0.641   0.059  22.304  0.00  0.00    -0.273 OA
ATOM     27  N   UNL     1       1.728   0.032  23.233  0.00  0.00    -0.199 NA
BRANCH  27  28
ATOM     28  C   UNL     1       2.263   0.084  22.608  0.00  0.00    +0.160 C 
BRANCH  28  29
ATOM     29  C   UNL     1       3.068   0.177  22.761  0.00  0.00    +0.081 A 
ATOM     30  N   UNL     1       3.503  -0.446  23.082  0.00  0.00    -0.246 NA
ATOM     31  C   UNL     1       4.308  -0.352  23.234  0.00  0.00    +0.099 A 
ATOM     32  C   UNL     1       4.679   0.366  23.065  0.00  0.00    +0.021 A 
ATOM     33  C   UNL     1       4.244   0.989  22.744  0.00  0.00    +0.003 A 
ATOM     34  C   UNL     1       3.438   0.895  22.592  0.00  0.00    +0.017 A 
ENDBRANCH  28  29
ENDBRANCH  27  28
ENDBRANCH   2  25
ENDBRANCH   3   2
TORSDOF 6
ENDMDL
MODEL 3
REMARK VINA RESULT:     -11.7      1.455      4.985
REMARK  Name = 
REMARK  6 active torsions:
REMARK  status: ('A' for Active; 'I' for Inactive)
REMARK    1  A    between atoms: C_2  and  C_3
REMARK    2  A    between atoms: C_2  and  C_25
REMARK    3  A    between atoms: C_10  and  N_11
REMARK    4  A    between atoms: C_12  and  C_14
REMARK    5  A    between atoms: N_27  and  C_28
REMARK    6  A    between atoms: C_28  and  C_29
REMARK                            x       y       z     vdW  Elec       q    Type
REMARK                         _______ _______ _______ _____ _____    ______ ____
ROOT
ATOM      3  C   UNL     1      -4.308   0.275  24.543  0.00  0.00    +0.039 C 
ATOM      4  C   UNL     1      -4.992   0.457  24.969  0.00  0.00    +0.003 C 
ATOM      5  C   UNL     1      -5.112   1.225  25.245  0.00  0.00    +0.000 C 
ATOM      6  C   UNL     1      -4.551   1.810  25.096  0.00  0.00    +0.002 C 
ATOM      7  C   UNL     1      -5.233   1.992  25.521  0.00  0.00    +0.000 C 
ATOM      8  C   UNL     1      -4.671   2.578  25.373  0.00  0.00    +0.002 C 
ATOM      9  C   UNL     1      -4.110   3.163  25.224  0.00  0.00    +0.022 C 
ATOM     10  C   UNL     1      -3.426   2.981  24.798  0.00  0.00    +0.096 C 
ATOM     20  C   UNL     1      -3.306   2.213  24.522  0.00  0.00    +0.022 C 
ATOM     21  C   UNL     1      -2.623   2.031  24.096  0.00  0.00    +0.002 C 
ATOM     22  C   UNL     1      -3.867   1.627  24.670  0.00  0.00    +0.032 C 
ATOM     23  C   UNL     1      -3.747   0.860  24.394  0.00  0.00    +0.152 C 
ATOM     24  O   UNL     1      -3.064   0.678  23.969  0.00  0.00    -0.223 OA
ENDROOT
BRANCH  10  11
ATOM     11  N   UNL     1      -2.865   3.567  24.649  0.00  0.00    -0.202 NA
ATOM     12  C   UNL     1      -2.475   3.934  25.276  0.00  0.00    +0.282 C 
ATOM     13  O   UNL     1      -2.647   3.715  26.054  0.00  0.00    -0.267 OA
BRANCH  12  14
ATOM     14  C   UNL     1      -1.914   4.520  25.127  0.00  0.00    +0.136 A 
ATOM     15  N   UNL     1      -1.124   4.315  25.011  0.00  0.00    -0.239 NA
ATOM     16  C   UNL     1      -0.562   4.901  24.862  0.00  0.00    +0.099 A 
ATOM     17  C   UNL     1      -0.792   5.692  24.830  0.00  0.00    +0.021 A 
ATOM     18  C   UNL     1      -1.583   5.898  24.947  0.00  0.00    +0.003 A 
ATOM     19  C   UNL     1      -2.143   5.311  25.095  0.00  0.00    +0.024 A 
ENDBRANCH  12  14
ENDBRANCH  10  11
BRANCH   3   2
ATOM      1  C   UNL     1      -4.433  -0.703  23.507  0.00  0.00    +0.010 C 
ATOM      2  C   UNL     1      -4.187  -0.493  24.266  0.00  0.00    +0.081 C 
BRANCH   2  25
ATOM     25  C   UNL     1      -3.821  -1.052  24.750  0.00  0.00    +0.241 C 
ATOM     26  O   UNL     1      -4.231  -1.377  25.390  0.00  0.00    -0.273 OA
ATOM     27  N   UNL     1      -3.045  -1.288  24.595  0.00  0.00    -0.199 NA
BRANCH  27  28
ATOM     28  C   UNL     1      -2.680  -1.846  25.079  0.00  0.00    +0.160 C 
BRANCH  28  29
ATOM     29  C   UNL     1      -1.858  -1.920  25.076  0.00  0.00    +0.081 A 
ATOM     30  N   UNL     1      -1.398  -1.422  25.546  0.00  0.00    -0.246 NA
ATOM     31  C   UNL     1      -0.577  -1.496  25.543  0.00  0.00    +0.099 A 
ATOM     32  C   UNL     1      -0.215  -2.068  25.071  0.00  0.00    +0.021 A 
ATOM     33  C   UNL     1      -0.676  -2.566  24.601  0.00  0.00    +0.003 A 
ATOM     34  C   UNL     1      -1.498  -2.492  24.604  0.00  0.00    +0.017 A 
ENDBRANCH  28  29
ENDBRANCH  27  28
ENDBRANCH   2  25
ENDBRANCH   3   2
TORSDOF 6
ENDMDL
MODEL 4
REMARK VINA RESULT:     -11.2      1.861      3.532
REMARK  Name = 
REMARK  6 active torsions:
REMARK  status: ('A' for Active; 'I' for Inactive)
REMARK    1  A    between atoms: C_2  and  C_3
REMARK    2  A    between atoms: C_2  and  C_25
REMARK    3  A    between atoms: C_10  and  N_11
REMARK    4  A    between atoms: C_12  and  C_14
REMARK    5  A    between atoms: N_27  and  C_28
REMARK    6  A    between atoms: C_28  and  C_29
REMARK                            x       y       z     vdW  Elec       q    Type
REMARK                         _______ _______ _______ _____ _____    ______ ____
ROOT
ATOM      3  C   UNL     1      -0.209   2.079  25.286  0.00  0.00    +0.039 C 
ATOM      4  C   UNL     1       0.296   2.092  24.632  0.00  0.00    +0.003 C 
ATOM      5  C   UNL     1       0.326   1.445  24.122  0.00  0.00    +0.000 C 
ATOM      6  C   UNL     1      -0.148   0.785  24.264  0.00  0.00    +0.002 C 
ATOM      7  C   UNL     1       0.356   0.798  23.612  0.00  0.00    +0.000 C 
ATOM      8  C   UNL     1      -0.118   0.138  23.754  0.00  0.00    +0.002 C 
ATOM      9  C   UNL     1      -0.591  -0.522  23.896  0.00  0.00    +0.022 C 
ATOM     10  C   UNL     1      -1.096  -0.535  24.550  0.00  0.00    +0.096 C 
ATOM     20  C   UNL     1      -1.126   0.112  25.060  0.00  0.00    +0.022 C 
ATOM     21  C   UNL     1      -1.631   0.099  25.713  0.00  0.00    +0.002 C 
ATOM     22  C   UNL     1      -0.652   0.773  24.918  0.00  0.00    +0.032 C 
ATOM     23  C   UNL     1      -0.683   1.419  25.428  0.00  0.00    +0.152 C 
ATOM     24  O   UNL     1      -1.187   1.407  26.081  0.00  0.00    -0.223 OA
ENDROOT
BRANCH  10  11
ATOM     11  N   UNL     1      -1.570  -1.195  24.691  0.00  0.00    -0.202 NA
ATOM     12  C   UNL     1      -2.197  -1.370  24.185  0.00  0.00    +0.282 C 
ATOM     13  O   UNL     1      -2.351  -0.884  23.536  0.00  0.00    -0.267 OA
BRANCH  12  14
ATOM     14  C   UNL     1      -2.671  -2.031  24.327  0.00  0.00    +0.136 A 
ATOM     15  N   UNL     1      -2.327  -2.743  24.561  0.00  0.00    -0.239 NA
ATOM     16  C   UNL     1      -2.801  -3.403  24.703  0.00  0.00    +0.099 A 
ATOM     17  C   UNL     1      -3.619  -3.351  24.610  0.00  0.00    +0.021 A 
ATOM     18  C   UNL     1      -3.964  -2.638  24.376  0.00  0.00    +0.003 A 
ATOM     19  C   UNL     1      -3.489  -1.979  24.234  0.00  0.00    +0.024 A 
ENDBRANCH  12  14
ENDBRANCH  10  11
BRANCH   3   2
ATOM      1  C   UNL     1       0.163   2.705  26.517  0.00  0.00    +0.010 C 
ATOM      2  C   UNL     1      -0.239   2.727  25.796  0.00  0.00    +0.081 C 
BRANCH   2  25
ATOM     25  C   UNL     1      -0.671   3.397  25.586  0.00  0.00    +0.241 C 
ATOM     26  O   UNL     1      -0.291   4.040  25.232  0.00  0.00    -0.273 OA
ATOM     27  N   UNL     1      -1.484   3.426  25.729  0.00  0.00    -0.199 NA
BRANCH  27  28
ATOM     28  C   UNL     1      -1.916   4.096  25.519  0.00  0.00    +0.160 C 
BRANCH  28  29
ATOM     29  C   UNL     1      -2.735   4.049  25.435  0.00  0.00    +0.081 A 
ATOM     30  N   UNL     1      -3.069   3.970  24.684  0.00  0.00    -0.246 NA
ATOM     31  C   UNL     1      -3.887   3.923  24.600  0.00  0.00    +0.099 A 
ATOM     32  C   UNL     1      -4.374   3.956  25.266  0.00  0.00    +0.021 A 
ATOM     33  C   UNL     1      -4.040   4.036  26.017  0.00  0.00    +0.003 A 
ATOM     34  C   UNL     1      -3.220   4.082  26.101  0.00  0.00    +0.017 A 
ENDBRANCH  28  29
ENDBRANCH  27  28
ENDBRANCH   2  25
ENDBRANCH   3   2
TORSDOF 6
ENDMDL
MODEL 5
REMARK VINA RESULT:     -10.9      2.119      6.162
REMARK  Name = 
REMARK  6 active torsions:
REMARK  status: ('A' for Active; 'I' for Inactive)
REMARK    1  A    between atoms: C_2  and  C_3
REMARK    2  A    between atoms: C_2  and  C_25
REMARK    3  A    between atoms: C_10  and  N_11
REMARK    4  A    between atoms: C_12  and  C_14
REMARK    5  A    between atoms: N_27  and  C_28
REMARK    6  A    between atoms: C_28  and  C_29
REMARK                            x       y       z     vdW  Elec       q    Type
REMARK                         _______ _______ _______ _____ _____    ______ ____
ROOT
ATOM      3  C   UNL     1      -0.503  -0.951  24.878  0.00  0.00    +0.039 C 
ATOM      4  C   UNL     1      -0.087  -1.027  24.169  0.00  0.00    +0.003 C 
ATOM      5  C   UNL     1       0.137  -0.355  23.748  0.00  0.00    +0.000 C 
ATOM      6  C   UNL     1      -0.054   0.394  24.035  0.00  0.00    +0.002 C 
ATOM      7  C   UNL     1       0.361   0.317  23.327  0.00  0.00    +0.000 C 
ATOM      8  C   UNL     1       0.170   1.067  23.614  0.00  0.00    +0.002 C 
ATOM      9  C   UNL     1      -0.021   1.816  23.901  0.00  0.00    +0.022 C 
ATOM     10  C   UNL     1      -0.437   1.893  24.610  0.00  0.00    +0.096 C 
ATOM     20  C   UNL     1      -0.661   1.220  25.031  0.00  0.00    +0.022 C 
ATOM     21  C   UNL     1      -1.077   1.297  25.740  0.00  0.00    +0.002 C 
ATOM     22  C   UNL     1      -0.470   0.470  24.744  0.00  0.00    +0.032 C 
ATOM     23  C   UNL     1      -0.694  -0.202  25.165  0.00  0.00    +0.152 C 
ATOM     24  O   UNL     1      -1.110  -0.126  25.874  0.00  0.00    -0.223 OA
ENDROOT
BRANCH  10  11
ATOM     11  N   UNL     1      -0.628   2.643  24.897  0.00  0.00    -0.202 NA
ATOM     12  C   UNL     1      -1.047   3.171  24.423  0.00  0.00    +0.282 C 
ATOM     13  O   UNL     1      -1.276   2.951  23.661  0.00  0.00    -0.267 OA
BRANCH  12  14
ATOM     14  C   UNL     1      -1.238   3.921  24.710  0.00  0.00    +0.136 A 
ATOM     15  N   UNL     1      -1.971   4.054  25.062  0.00  0.00    -0.239 NA
ATOM     16  C   UNL     1      -2.162   4.804  25.349  0.00  0.00    +0.099 A 
ATOM     17  C   UNL     1      -1.619   5.421  25.283  0.00  0.00    +0.021 A 
ATOM     18  C   UNL     1      -0.884   5.288  24.931  0.00  0.00    +0.003 A 
ATOM     19  C   UNL     1      -0.694   4.538  24.645  0.00  0.00    +0.024 A 
ENDBRANCH  12  14
ENDBRANCH  10  11
BRANCH   3   2
ATOM      1  C   UNL     1      -0.403  -1.774  26.043  0.00  0.00    +0.010 C 
ATOM      2  C   UNL     1      -0.727  -1.624  25.299  0.00  0.00    +0.081 C 
BRANCH   2  25
ATOM     25  C   UNL     1      -1.276  -2.149  24.976  0.00  0.00    +0.241 C 
ATOM     26  O   UNL     1      -1.019  -2.852  24.627  0.00  0.00    -0.273 OA
ATOM     27  N   UNL     1      -2.082  -1.971  25.000  0.00  0.00    -0.199 NA
BRANCH  27  28
ATOM     28  C   UNL     1      -2.629  -2.495  24.677  0.00  0.00    +0.160 C 
BRANCH  28  29
ATOM     29  C   UNL     1      -3.354  -2.215  24.398  0.00  0.00    +0.081 A 
ATOM     30  N   UNL     1      -3.661  -1.506  24.686  0.00  0.00    -0.246 NA
ATOM     31  C   UNL     1      -4.385  -1.227  24.407  0.00  0.00    +0.099 A 
ATOM     32  C   UNL     1      -4.802  -1.657  23.840  0.00  0.00    +0.021 A 
ATOM     33  C   UNL     1      -4.495  -2.367  23.552  0.00  0.00    +0.003 A 
ATOM     34  C   UNL     1      -3.770  -2.646  23.831  0.00  0.00    +0.017 A 
ENDBRANCH  28  29
ENDBRANCH  27  28
ENDBRANCH   2  25
ENDBRANCH   3   2
TORSDOF 6
ENDMDL
MODEL 6
REMARK VINA RESULT:     -10.9      2.458      4.629
REMARK  Name = 
REMARK  6 active torsions:
REMARK  status: ('A' for Active; 'I' for Inactive)
REMARK    1  A    between atoms: C_2  and  C_3
REMARK    2  A    between atoms: C_2  and  C_25
REMARK    3  A    between atoms: C_10  and  N_11
REMARK    4  A    between atoms: C_12  and  C_14
REMARK    5  A    between atoms: N_27  and  C_28
REMARK    6  A    between atoms: C_28  and  C_29
REMARK                            x       y       z     vdW  Elec       q    Type
REMARK                         _______ _______ _______ _____ _____    ______ ____
ROOT
ATOM      3  C   UNL     1      -1.721  -1.138  24.685  0.00  0.00    +0.039 C 
ATOM      4  C   UNL     1      -2.233  -1.730  24.420  0.00  0.00    +0.003 C 
ATOM      5  C   UNL     1      -3.046  -1.592  24.399  0.00  0.00    +0.000 C 
ATOM      6  C   UNL     1      -3.347  -0.865  24.643  0.00  0.00    +0.002 C 
ATOM      7  C   UNL     1      -3.858  -1.455  24.379  0.00  0.00    +0.000 C 
ATOM      8  C   UNL     1      -4.161  -0.727  24.622  0.00  0.00    +0.002 C 
ATOM      9  C   UNL     1      -4.462   0.001  24.866  0.00  0.00    +0.022 C 
ATOM     10  C   UNL     1      -3.950   0.592  25.131  0.00  0.00    +0.096 C 
ATOM     20  C   UNL     1      -3.138   0.455  25.152  0.00  0.00    +0.022 C 
ATOM     21  C   UNL     1      -2.626   1.046  25.416  0.00  0.00    +0.002 C 
ATOM     22  C   UNL     1      -2.835  -0.273  24.908  0.00  0.00    +0.032 C 
ATOM     23  C   UNL     1      -2.023  -0.411  24.928  0.00  0.00    +0.152 C 
ATOM     24  O   UNL     1      -1.511   0.180  25.193  0.00  0.00    -0.223 OA
ENDROOT
BRANCH  10  11
ATOM     11  N   UNL     1      -4.253   1.320  25.375  0.00  0.00    -0.202 NA
ATOM     12  C   UNL     1      -4.745   1.752  24.874  0.00  0.00    +0.282 C 
ATOM     13  O   UNL     1      -4.935   1.455  24.127  0.00  0.00    -0.267 OA
BRANCH  12  14
ATOM     14  C   UNL     1      -5.047   2.480  25.118  0.00  0.00    +0.136 A 
ATOM     15  N   UNL     1      -4.632   3.174  24.959  0.00  0.00    -0.239 NA
ATOM     16  C   UNL     1      -4.934   3.902  25.202  0.00  0.00    +0.099 A 
ATOM     17  C   UNL     1      -5.653   3.935  25.606  0.00  0.00    +0.021 A 
ATOM     18  C   UNL     1      -6.069   3.240  25.765  0.00  0.00    +0.003 A 
ATOM     19  C   UNL     1      -5.766   2.513  25.521  0.00  0.00    +0.024 A 
ENDBRANCH  12  14
ENDBRANCH  10  11
BRANCH   3   2
ATOM      1  C   UNL     1      -0.534  -1.442  25.422  0.00  0.00    +0.010 C 
ATOM      2  C   UNL     1      -0.908  -1.276  24.705  0.00  0.00    +0.081 C 
BRANCH   2  25
ATOM     25  C   UNL     1      -0.468  -1.249  24.008  0.00  0.00    +0.241 C 
ATOM     26  O   UNL     1      -0.588  -1.817  23.421  0.00  0.00    -0.273 OA
ATOM     27  N   UNL     1       0.093  -0.653  23.897  0.00  0.00    -0.199 NA
BRANCH  27  28
ATOM     28  C   UNL     1       0.533  -0.626  23.200  0.00  0.00    +0.160 C 
BRANCH  28  29
ATOM     29  C   UNL     1       1.167  -0.103  23.133  0.00  0.00    +0.081 A 
ATOM     30  N   UNL     1       1.117   0.652  23.461  0.00  0.00    -0.246 NA
ATOM     31  C   UNL     1       1.751   1.174  23.393  0.00  0.00    +0.099 A 
ATOM     32  C   UNL     1       2.437   0.942  22.997  0.00  0.00    +0.021 A 
ATOM     33  C   UNL     1       2.487   0.187  22.668  0.00  0.00    +0.003 A 
ATOM     34  C   UNL     1       1.852  -0.336  22.736  0.00  0.00    +0.017 A 
ENDBRANCH  28  29
ENDBRANCH  27  28
ENDBRANCH   2  25
ENDBRANCH   3   2
TORSDOF 6
ENDMDL
MODEL 7
REMARK VINA RESULT:     -10.7      2.752      5.162
REMARK  Name = 
REMARK  6 active torsions:
REMARK  status: ('A' for Active; 'I' for Inactive)
REMARK    1  A    between atoms: C_2  and  C_3
REMARK    2  A    between atoms: C_2  and  C_25
REMARK    3  A    between atoms: C_10  and  N_11
REMARK    4  A    between atoms: C_12  and  C_14
REMARK    5  A    between atoms: N_27  and  C_28
REMARK    6  A    between atoms: C_28  and  C_29
REMARK                            x       y       z     vdW  Elec       q    Type
REMARK                         _______ _______ _______ _____ _____    ______ ____
ROOT
ATOM      3  C   UNL     1      -1.782   2.241  25.045  0.00  0.00    +0.039 C 
ATOM      4  C   UNL     1      -2.131   1.503  25.171  0.00  0.00    +0.003 C 
ATOM      5  C   UNL     1      -1.729   0.815  24.958  0.00  0.00    +0.000 C 
ATOM      6  C   UNL     1      -0.978   0.864  24.620  0.00  0.00    +0.002 C 
ATOM      7  C   UNL     1      -1.326   0.128  24.745  0.00  0.00    +0.000 C 
ATOM      8  C   UNL     1      -0.575   0.177  24.407  0.00  0.00    +0.002 C 
ATOM      9  C   UNL     1       0.175   0.226  24.069  0.00  0.00    +0.022 C 
ATOM     10  C   UNL     1       0.524   0.964  23.944  0.00  0.00    +0.096 C 
ATOM     20  C   UNL     1       0.122   1.651  24.157  0.00  0.00    +0.022 C 
ATOM     21  C   UNL     1       0.470   2.389  24.032  0.00  0.00    +0.002 C 
ATOM     22  C   UNL     1      -0.629   1.603  24.495  0.00  0.00    +0.032 C 
ATOM     23  C   UNL     1      -1.032   2.290  24.708  0.00  0.00    +0.152 C 
ATOM     24  O   UNL     1      -0.683   3.027  24.583  0.00  0.00    -0.223 OA
ENDROOT
BRANCH  10  11
ATOM     11  N   UNL     1       1.275   1.013  23.606  0.00  0.00    -0.202 NA
ATOM     12  C   UNL     1       1.579   0.375  23.180  0.00  0.00    +0.282 C 
ATOM     13  O   UNL     1       1.131  -0.313  23.092  0.00  0.00    -0.267 OA
BRANCH  12  14
ATOM     14  C   UNL     1       2.330   0.424  22.842  0.00  0.00    +0.136 A 
ATOM     15  N   UNL     1       2.941   0.802  23.246  0.00  0.00    -0.239 NA
ATOM     16  C   UNL     1       3.692   0.851  22.908  0.00  0.00    +0.099 A 
ATOM     17  C   UNL     1       3.832   0.521  22.165  0.00  0.00    +0.021 A 
ATOM     18  C   UNL     1       3.220   0.142  21.760  0.00  0.00    +0.003 A 
ATOM     19  C   UNL     1       2.470   0.094  22.099  0.00  0.00    +0.024 A 
ENDBRANCH  12  14
ENDBRANCH  10  11
BRANCH   3   2
ATOM      1  C   UNL     1      -1.873   3.430  25.835  0.00  0.00    +0.010 C 
ATOM      2  C   UNL     1      -2.185   2.928  25.259  0.00  0.00    +0.081 C 
BRANCH   2  25
ATOM     25  C   UNL     1      -2.902   3.115  24.895  0.00  0.00    +0.241 C 
ATOM     26  O   UNL     1      -2.908   3.539  24.186  0.00  0.00    -0.273 OA
ATOM     27  N   UNL     1      -3.614   2.879  25.240  0.00  0.00    -0.199 NA
BRANCH  27  28
ATOM     28  C   UNL     1      -4.330   3.065  24.877  0.00  0.00    +0.160 C 
BRANCH  28  29
ATOM     29  C   UNL     1      -5.030   2.720  25.143  0.00  0.00    +0.081 A 
ATOM     30  N   UNL     1      -5.370   2.970  25.852  0.00  0.00    -0.246 NA
ATOM     31  C   UNL     1      -6.070   2.624  26.118  0.00  0.00    +0.099 A 
ATOM     32  C   UNL     1      -6.431   2.029  25.675  0.00  0.00    +0.021 A 
ATOM     33  C   UNL     1      -6.091   1.779  24.966  0.00  0.00    +0.003 A 
ATOM     34  C   UNL     1      -5.390   2.125  24.700  0.00  0.00    +0.017 A 
ENDBRANCH  28  29
ENDBRANCH  27  28
ENDBRANCH   2  25
ENDBRANCH   3   2
TORSDOF 6
ENDMDL
MODEL 8
REMARK VINA RESULT:     -10.6      1.913      5.195
REMARK  Name = 
REMARK  6 active torsions:
REMARK  status: ('A' for Active; 'I' for Inactive)
REMARK    1  A    between atoms: C_2  and  C_3
REMARK    2  A    between atoms: C_2  and  C_25
REMARK    3  A    between atoms: C_10  and  N_11
REMARK    4  A    between atoms: C_12  and  C_14
REMARK    5  A    between atoms: N_27  and  C_28
REMARK    6  A    between atoms: C_28  and  C_29
REMARK                            x       y       z     vdW  Elec       q    Type
REMARK                         _______ _______ _______ _____ _____    ______ ____
ROOT
ATOM      3  C   UNL     1      -0.603   0.872  24.432  0.00  0.00    +0.039 C 
ATOM      4  C   UNL     1      -0.060   1.223  24.947  0.00  0.00    +0.003 C 
ATOM      5  C   UNL     1      -0.270   1.899  25.369  0.00  0.00    +0.000 C 
ATOM      6  C   UNL     1      -1.021   2.226  25.278  0.00  0.00    +0.002 C 
ATOM      7  C   UNL     1      -0.480   2.575  25.791  0.00  0.00    +0.000 C 
ATOM      8  C   UNL     1      -1.232   2.903  25.700  0.00  0.00    +0.002 C 
ATOM      9  C   UNL     1      -1.984   3.229  25.608  0.00  0.00    +0.022 C 
ATOM     10  C   UNL     1      -2.526   2.879  25.094  0.00  0.00    +0.096 C 
ATOM     20  C   UNL     1      -2.316   2.203  24.672  0.00  0.00    +0.022 C 
ATOM     21  C   UNL     1      -2.858   1.852  24.157  0.00  0.00    +0.002 C 
ATOM     22  C   UNL     1      -1.564   1.875  24.763  0.00  0.00    +0.032 C 
ATOM     23  C   UNL     1      -1.354   1.199  24.341  0.00  0.00    +0.152 C 
ATOM     24  O   UNL     1      -1.896   0.849  23.827  0.00  0.00    -0.223 OA
ENDROOT
BRANCH  10  11
ATOM     11  N   UNL     1      -3.278   3.206  25.002  0.00  0.00    -0.202 NA
ATOM     12  C   UNL     1      -3.744   3.363  25.665  0.00  0.00    +0.282 C 
ATOM     13  O   UNL     1      -3.457   3.192  26.420  0.00  0.00    -0.267 OA
BRANCH  12  14
ATOM     14  C   UNL     1      -4.496   3.690  25.573  0.00  0.00    +0.136 A 
ATOM     15  N   UNL     1      -4.578   4.476  25.340  0.00  0.00    -0.239 NA
ATOM     16  C   UNL     1      -5.330   4.804  25.249  0.00  0.00    +0.099 A 
ATOM     17  C   UNL     1      -6.000   4.343  25.391  0.00  0.00    +0.021 A 
ATOM     18  C   UNL     1      -5.917   3.555  25.625  0.00  0.00    +0.003 A 
ATOM     19  C   UNL     1      -5.165   3.229  25.715  0.00  0.00    +0.024 A 
ENDBRANCH  12  14
ENDBRANCH  10  11
BRANCH   3   2
ATOM      1  C   UNL     1      -0.116   0.260  23.235  0.00  0.00    +0.010 C 
ATOM      2  C   UNL     1      -0.392   0.195  24.010  0.00  0.00    +0.081 C 
BRANCH   2  25
ATOM     25  C   UNL     1      -0.458  -0.547  24.363  0.00  0.00    +0.241 C 
ATOM     26  O   UNL     1       0.190  -0.878  24.753  0.00  0.00    -0.273 OA
ATOM     27  N   UNL     1      -1.172  -0.960  24.326  0.00  0.00    -0.199 NA
BRANCH  27  28
ATOM     28  C   UNL     1      -1.238  -1.702  24.679  0.00  0.00    +0.160 C 
BRANCH  28  29
ATOM     29  C   UNL     1      -1.971  -2.078  24.716  0.00  0.00    +0.081 A 
ATOM     30  N   UNL     1      -2.187  -2.621  24.133  0.00  0.00    -0.246 NA
ATOM     31  C   UNL     1      -2.920  -2.996  24.171  0.00  0.00    +0.099 A 
ATOM     32  C   UNL     1      -3.438  -2.830  24.792  0.00  0.00    +0.021 A 
ATOM     33  C   UNL     1      -3.222  -2.287  25.375  0.00  0.00    +0.003 A 
ATOM     34  C   UNL     1      -2.488  -1.911  25.337  0.00  0.00    +0.017 A 
ENDBRANCH  28  29
ENDBRANCH  27  28
ENDBRANCH   2  25
ENDBRANCH   3   2
TORSDOF 6
ENDMDL
MODEL 9
REMARK VINA RESULT:     -10.6      2.582      4.799
REMARK  Name = 
REMARK  6 active torsions:
REMARK  status: ('A' for Active; 'I' for Inactive)
REMARK    1  A    between atoms: C_2  and  C_3
REMARK    2  A    between atoms: C_2  and  C_25
REMARK    3  A    between atoms: C_10  and  N_11
REMARK    4  A    between atoms: C_12  and  C_14
REMARK    5  A    between atoms: N_27  and  C_28
REMARK    6  A    between atoms: C_28  and  C_29
REMARK                            x       y       z     vdW  Elec       q    Type
REMARK                         _______ _______ _______ _____ _____    ______ ____
ROOT
ATOM      3  C   UNL     1      -3.276  -0.150  24.719  0.00  0.00    +0.039 C 
ATOM      4  C   UNL     1      -3.160  -0.691  25.333  0.00  0.00    +0.003 C 
ATOM      5  C   UNL     1      -2.398  -0.939  25.524  0.00  0.00    +0.000 C 
ATOM      6  C   UNL     1      -1.751  -0.648  25.104  0.00  0.00    +0.002 C 
ATOM      7  C   UNL     1      -1.636  -1.188  25.716  0.00  0.00    +0.000 C 
ATOM      8  C   UNL     1      -0.988  -0.897  25.295  0.00  0.00    +0.002 C 
ATOM      9  C   UNL     1      -0.342  -0.605  24.875  0.00  0.00    +0.022 C 
ATOM     10  C   UNL     1      -0.457  -0.064  24.262  0.00  0.00    +0.096 C 
ATOM     20  C   UNL     1      -1.220   0.184  24.070  0.00  0.00    +0.022 C 
ATOM     21  C   UNL     1      -1.335   0.724  23.458  0.00  0.00    +0.002 C 
ATOM     22  C   UNL     1      -1.867  -0.107  24.491  0.00  0.00    +0.032 C 
ATOM     23  C   UNL     1      -2.630   0.141  24.299  0.00  0.00    +0.152 C 
ATOM     24  O   UNL     1      -2.745   0.682  23.687  0.00  0.00    -0.223 OA
ENDROOT
BRANCH  10  11
ATOM     11  N   UNL     1       0.190   0.227  23.842  0.00  0.00    -0.202 NA
ATOM     12  C   UNL     1       0.787  -0.286  23.596  0.00  0.00    +0.282 C 
ATOM     13  O   UNL     1       0.737  -1.091  23.770  0.00  0.00    -0.267 OA
BRANCH  12  14
ATOM     14  C   UNL     1       1.435   0.006  23.175  0.00  0.00    +0.136 A 
ATOM     15  N   UNL     1       1.862   0.647  23.468  0.00  0.00    -0.239 NA
ATOM     16  C   UNL     1       2.510   0.938  23.047  0.00  0.00    +0.099 A 
ATOM     17  C   UNL     1       2.730   0.587  22.334  0.00  0.00    +0.021 A 
ATOM     18  C   UNL     1       2.302  -0.055  22.041  0.00  0.00    +0.003 A 
ATOM     19  C   UNL     1       1.655  -0.346  22.462  0.00  0.00    +0.024 A 
ENDBRANCH  12  14
ENDBRANCH  10  11
BRANCH   3   2
ATOM      1  C   UNL     1      -4.362  -0.085  23.790  0.00  0.00    +0.010 C 
ATOM      2  C   UNL     1      -4.040   0.099  24.528  0.00  0.00    +0.081 C 
BRANCH   2  25
ATOM     25  C   UNL     1      -4.481   0.531  25.074  0.00  0.00    +0.241 C 
ATOM     26  O   UNL     1      -4.849   0.145  25.705  0.00  0.00    -0.273 OA
ATOM     27  N   UNL     1      -4.556   1.349  24.991  0.00  0.00    -0.199 NA
BRANCH  27  28
ATOM     28  C   UNL     1      -4.997   1.780  25.537  0.00  0.00    +0.160 C 
BRANCH  28  29
ATOM     29  C   UNL     1      -4.975   2.605  25.527  0.00  0.00    +0.081 A 
ATOM     30  N   UNL     1      -4.254   2.999  25.599  0.00  0.00    -0.246 NA
ATOM     31  C   UNL     1      -4.233   3.823  25.588  0.00  0.00    +0.099 A 
ATOM     32  C   UNL     1      -4.932   4.254  25.506  0.00  0.00    +0.021 A 
ATOM     33  C   UNL     1      -5.653   3.859  25.434  0.00  0.00    +0.003 A 
ATOM     34  C   UNL     1      -5.674   3.034  25.445  0.00  0.00    +0.017 A 
ENDBRANCH  28  29
ENDBRANCH  27  28
ENDBRANCH   2  25
ENDBRANCH   3   2
TORSDOF 6
ENDMDL
MODEL 10
REMARK VINA RESULT:     -10.6      1.492      3.067
REMARK  Name = 
REMARK  6 active torsions:
REMARK  status: ('A' for Active; 'I' for Inactive)
REMARK    1  A    between atoms: C_2  and  C_3
REMARK    2  A    between atoms: C_2  and  C_25
REMARK    3  A    between atoms: C_10  and  N_11
REMARK    4  A    between atoms: C_12  and  C_14
REMARK    5  A    between atoms: N_27  and  C_28
REMARK    6  A    between atoms: C_28  and  C_29
REMARK                            x       y       z     vdW  Elec       q    Type
REMARK                         _______ _______ _______ _____ _____    ______ ____
ROOT
ATOM      3  C   UNL     1      -0.884   2.490  24.893  0.00  0.00    +0.039 C 
ATOM      4  C   UNL     1      -0.453   2.347  25.583  0.00  0.00    +0.003 C 
ATOM      5  C   UNL     1      -0.450   1.595  25.919  0.00  0.00    +0.000 C 
ATOM      6  C   UNL     1      -0.878   0.984  25.567  0.00  0.00    +0.002 C 
ATOM      7  C   UNL     1      -0.447   0.842  26.255  0.00  0.00    +0.000 C 
ATOM      8  C   UNL     1      -0.876   0.231  25.903  0.00  0.00    +0.002 C 
ATOM      9  C   UNL     1      -1.304  -0.380  25.552  0.00  0.00    +0.022 C 
ATOM     10  C   UNL     1      -1.736  -0.237  24.862  0.00  0.00    +0.096 C 
ATOM     20  C   UNL     1      -1.738   0.516  24.526  0.00  0.00    +0.022 C 
ATOM     21  C   UNL     1      -2.170   0.658  23.838  0.00  0.00    +0.002 C 
ATOM     22  C   UNL     1      -1.310   1.127  24.878  0.00  0.00    +0.032 C 
ATOM     23  C   UNL     1      -1.313   1.880  24.542  0.00  0.00    +0.152 C 
ATOM     24  O   UNL     1      -1.744   2.022  23.853  0.00  0.00    -0.223 OA
ENDROOT
BRANCH  10  11
ATOM     11  N   UNL     1      -2.164  -0.848  24.511  0.00  0.00    -0.202 NA
ATOM     12  C   UNL     1      -2.728  -1.262  24.947  0.00  0.00    +0.282 C 
ATOM     13  O   UNL     1      -2.865  -1.064  25.737  0.00  0.00    -0.267 OA
BRANCH  12  14
ATOM     14  C   UNL     1      -3.157  -1.873  24.596  0.00  0.00    +0.136 A 
ATOM     15  N   UNL     1      -2.861  -2.642  24.603  0.00  0.00    -0.239 NA
ATOM     16  C   UNL     1      -3.289  -3.254  24.252  0.00  0.00    +0.099 A 
ATOM     17  C   UNL     1      -4.015  -3.094  23.892  0.00  0.00    +0.021 A 
ATOM     18  C   UNL     1      -4.311  -2.324  23.884  0.00  0.00    +0.003 A 
ATOM     19  C   UNL     1      -3.882  -1.714  24.236  0.00  0.00    +0.024 A 
ENDBRANCH  12  14
ENDBRANCH  10  11
BRANCH   3   2
ATOM      1  C   UNL     1      -0.392   3.414  23.919  0.00  0.00    +0.010 C 
ATOM      2  C   UNL     1      -0.887   3.244  24.557  0.00  0.00    +0.081 C 
BRANCH   2  25
ATOM     25  C   UNL     1      -1.384   3.828  24.860  0.00  0.00    +0.241 C 
ATOM     26  O   UNL     1      -1.063   4.512  25.192  0.00  0.00    -0.273 OA
ATOM     27  N   UNL     1      -2.204   3.729  24.831  0.00  0.00    -0.199 NA
BRANCH  27  28
ATOM     28  C   UNL     1      -2.701   4.312  25.133  0.00  0.00    +0.160 C 
BRANCH  28  29
ATOM     29  C   UNL     1      -3.498   4.148  25.267  0.00  0.00    +0.081 A 
ATOM     30  N   UNL     1      -4.030   4.146  24.637  0.00  0.00    -0.246 NA
ATOM     31  C   UNL     1      -4.827   3.981  24.771  0.00  0.00    +0.099 A 
ATOM     32  C   UNL     1      -5.092   3.818  25.535  0.00  0.00    +0.021 A 
ATOM     33  C   UNL     1      -4.559   3.820  26.165  0.00  0.00    +0.003 A 
ATOM     34  C   UNL     1      -3.762   3.985  26.031  0.00  0.00    +0.017 A 
ENDBRANCH  28  29
ENDBRANCH  27  28
ENDBRANCH   2  25
ENDBRANCH   3   2
TORSDOF 6
ENDMDL
