MODEL 1
REMARK VINA RESULT:     -10.7      0.000      0.000
REMARK  Name = 
REMARK  9 active torsions:
REMARK  status: ('A' for Active; 'I' for Inactive)
REMARK    1  A    between atoms: O_2  and  C_3
REMARK    2  A    between atoms: C_4  and  C_5
REMARK    3  A    between atoms: C_5  and  N_6
REMARK    4  A    between atoms: N_6  and  C_7
REMARK    5  A    between atoms: C_7  and  C_8
REMARK    6  A    between atoms: C_12  and  C_13
REMARK    7  A    between atoms: C_13  and  C_14
REMARK    8  A    between atoms: C_17  and  C_19
REMARK    9  A    between atoms: C_26  and  C_27
REMARK                            x       y       z     vdW  Elec       q    Type
REMARK                         _______ _______ _______ _____ _____    ______ ____
ROOT
ATOM      8  C   UNL     1      -4.197   1.052  24.332  0.00  0.00    +0.039 C 
ATOM      9  C   UNL     1      -4.784   1.236  24.881  0.00  0.00    -0.033 C 
ATOM     10  C   UNL     1      -4.856   2.009  25.163  0.00  0.00    -0.048 C 
ATOM     11  C   UNL     1      -5.444   2.194  25.713  0.00  0.00    +0.026 C 
ATOM     12  C   UNL     1      -4.342   2.595  24.896  0.00  0.00    +0.027 C 
ATOM     25  C   UNL     1      -3.755   2.410  24.347  0.00  0.00    +0.005 C 
ATOM     26  C   UNL     1      -3.682   1.639  24.064  0.00  0.00    +0.006 C 
ENDROOT
BRANCH  26  27
ATOM     27  C   UNL     1      -3.095   1.454  23.516  0.00  0.00    +0.000 C 
ATOM     28  C   UNL     1      -2.360   1.182  23.774  0.00  0.00    +0.000 C 
ATOM     29  C   UNL     1      -3.242   1.542  22.709  0.00  0.00    +0.000 C 
ENDBRANCH  26  27
BRANCH   8   7
ATOM      7  C   UNL     1      -4.124   0.280  24.049  0.00  0.00    +0.093 C 
BRANCH   7   6
ATOM      6  N   UNL     1      -4.200  -0.357  24.566  0.00  0.00    -0.213 NA
BRANCH   6   5
ATOM      5  C   UNL     1      -4.306  -1.120  24.268  0.00  0.00    +0.118 C 
BRANCH   5   4
ATOM      3  C   UNL     1      -3.922  -2.496  24.254  0.00  0.00    +0.136 A 
ATOM      4  C   UNL     1      -3.927  -1.760  24.626  0.00  0.00    +0.029 A 
ATOM     30  C   UNL     1      -3.554  -1.662  25.355  0.00  0.00    +0.000 A 
ATOM     31  C   UNL     1      -3.176  -2.301  25.713  0.00  0.00    -0.000 A 
ATOM     32  C   UNL     1      -3.170  -3.039  25.342  0.00  0.00    +0.003 A 
ATOM     33  C   UNL     1      -3.543  -3.135  24.612  0.00  0.00    +0.037 A 
BRANCH   3   2
ATOM      1  C   UNL     1      -4.307  -3.334  23.163  0.00  0.00    +0.252 C 
ATOM      2  O   UNL     1      -4.295  -2.593  23.525  0.00  0.00    -0.472 OA
ENDBRANCH   3   2
ENDBRANCH   5   4
ENDBRANCH   6   5
ENDBRANCH   7   6
ENDBRANCH   8   7
BRANCH  12  13
ATOM     13  C   UNL     1      -4.414   3.366  25.178  0.00  0.00    +0.091 C 
BRANCH  13  14
ATOM     14  C   UNL     1      -3.748   3.770  25.453  0.00  0.00    +0.227 A 
ATOM     15  N   UNL     1      -3.596   3.979  26.235  0.00  0.00    -0.111 NA
ATOM     16  N   UNL     1      -2.871   4.373  26.258  0.00  0.00    -0.107 NA
ATOM     17  C   UNL     1      -2.575   4.407  25.489  0.00  0.00    +0.251 A 
ATOM     18  O   UNL     1      -3.117   4.034  24.991  0.00  0.00    -0.419 OA
BRANCH  17  19
ATOM     19  C   UNL     1      -1.862   4.753  25.259  0.00  0.00    +0.074 A 
ATOM     20  C   UNL     1      -1.825   5.565  25.120  0.00  0.00    +0.104 A 
ATOM     21  N   UNL     1      -1.111   5.911  24.890  0.00  0.00    -0.242 NA
ATOM     22  C   UNL     1      -0.437   5.444  24.798  0.00  0.00    +0.099 A 
ATOM     23  C   UNL     1      -0.476   4.632  24.937  0.00  0.00    +0.021 A 
ATOM     24  C   UNL     1      -1.189   4.286  25.167  0.00  0.00    +0.008 A 
ENDBRANCH  17  19
ENDBRANCH  13  14
ENDBRANCH  12  13
TORSDOF 9
ENDMDL
MODEL 2
REMARK VINA RESULT:     -10.0      3.601      5.414
REMARK  Name = 
REMARK  9 active torsions:
REMARK  status: ('A' for Active; 'I' for Inactive)
REMARK    1  A    between atoms: O_2  and  C_3
REMARK    2  A    between atoms: C_4  and  C_5
REMARK    3  A    between atoms: C_5  and  N_6
REMARK    4  A    between atoms: N_6  and  C_7
REMARK    5  A    between atoms: C_7  and  C_8
REMARK    6  A    between atoms: C_12  and  C_13
REMARK    7  A    between atoms: C_13  and  C_14
REMARK    8  A    between atoms: C_17  and  C_19
REMARK    9  A    between atoms: C_26  and  C_27
REMARK                            x       y       z     vdW  Elec       q    Type
REMARK                         _______ _______ _______ _____ _____    ______ ____
ROOT
ATOM      8  C   UNL     1      -1.555   1.277  24.692  0.00  0.00    +0.039 C 
ATOM      9  C   UNL     1      -1.812   0.511  24.525  0.00  0.00    -0.033 C 
ATOM     10  C   UNL     1      -1.266  -0.068  24.307  0.00  0.00    -0.048 C 
ATOM     11  C   UNL     1      -1.523  -0.835  24.141  0.00  0.00    +0.026 C 
ATOM     12  C   UNL     1      -0.464   0.118  24.256  0.00  0.00    +0.027 C 
ATOM     25  C   UNL     1      -0.208   0.884  24.422  0.00  0.00    +0.005 C 
ATOM     26  C   UNL     1      -0.752   1.464  24.640  0.00  0.00    +0.006 C 
ENDROOT
BRANCH  26  27
ATOM     27  C   UNL     1      -0.496   2.229  24.806  0.00  0.00    +0.000 C 
ATOM     28  C   UNL     1      -0.502   2.805  24.214  0.00  0.00    +0.000 C 
ATOM     29  C   UNL     1      -0.233   2.421  25.564  0.00  0.00    +0.000 C 
ENDBRANCH  26  27
BRANCH   8   7
ATOM      7  C   UNL     1      -2.100   1.857  24.910  0.00  0.00    +0.093 C 
BRANCH   7   6
ATOM      6  N   UNL     1      -2.907   1.698  24.874  0.00  0.00    -0.213 NA
BRANCH   6   5
ATOM      5  C   UNL     1      -3.453   2.301  25.017  0.00  0.00    +0.118 C 
BRANCH   5   4
ATOM      3  C   UNL     1      -4.802   2.724  25.224  0.00  0.00    +0.136 A 
ATOM      4  C   UNL     1      -4.260   2.131  25.039  0.00  0.00    +0.029 A 
ATOM     30  C   UNL     1      -4.524   1.366  24.877  0.00  0.00    +0.000 A 
ATOM     31  C   UNL     1      -5.331   1.195  24.899  0.00  0.00    -0.000 A 
ATOM     32  C   UNL     1      -5.874   1.789  25.084  0.00  0.00    +0.003 A 
ATOM     33  C   UNL     1      -5.609   2.553  25.246  0.00  0.00    +0.037 A 
BRANCH   3   2
ATOM      1  C   UNL     1      -5.079   4.080  25.579  0.00  0.00    +0.252 C 
ATOM      2  O   UNL     1      -4.538   3.489  25.387  0.00  0.00    -0.472 OA
ENDBRANCH   3   2
ENDBRANCH   5   4
ENDBRANCH   6   5
ENDBRANCH   7   6
ENDBRANCH   8   7
BRANCH  12  13
ATOM     13  C   UNL     1       0.081  -0.461  24.038  0.00  0.00    +0.091 C 
BRANCH  13  14
ATOM     14  C   UNL     1       0.677  -0.283  23.495  0.00  0.00    +0.227 A 
ATOM     15  N   UNL     1       0.591  -0.241  22.677  0.00  0.00    -0.111 NA
ATOM     16  N   UNL     1       1.325  -0.048  22.352  0.00  0.00    -0.107 NA
ATOM     17  C   UNL     1       1.864   0.030  22.971  0.00  0.00    +0.251 A 
ATOM     18  O   UNL     1       1.464  -0.115  23.678  0.00  0.00    -0.419 OA
BRANCH  17  19
ATOM     19  C   UNL     1       2.664   0.220  22.896  0.00  0.00    +0.074 A 
ATOM     20  C   UNL     1       3.233  -0.377  22.920  0.00  0.00    +0.104 A 
ATOM     21  N   UNL     1       4.033  -0.187  22.845  0.00  0.00    -0.242 NA
ATOM     22  C   UNL     1       4.262   0.600  22.746  0.00  0.00    +0.099 A 
ATOM     23  C   UNL     1       3.693   1.195  22.723  0.00  0.00    +0.021 A 
ATOM     24  C   UNL     1       2.893   1.006  22.798  0.00  0.00    +0.008 A 
ENDBRANCH  17  19
ENDBRANCH  13  14
ENDBRANCH  12  13
TORSDOF 9
ENDMDL
MODEL 3
REMARK VINA RESULT:      -9.8      2.108      6.391
REMARK  Name = 
REMARK  9 active torsions:
REMARK  status: ('A' for Active; 'I' for Inactive)
REMARK    1  A    between atoms: O_2  and  C_3
REMARK    2  A    between atoms: C_4  and  C_5
REMARK    3  A    between atoms: C_5  and  N_6
REMARK    4  A    between atoms: N_6  and  C_7
REMARK    5  A    between atoms: C_7  and  C_8
REMARK    6  A    between atoms: C_12  and  C_13
REMARK    7  A    between atoms: C_13  and  C_14
REMARK    8  A    between atoms: C_17  and  C_19
REMARK    9  A    between atoms: C_26  and  C_27
REMARK                            x       y       z     vdW  Elec       q    Type
REMARK                         _______ _______ _______ _____ _____    ______ ____
ROOT
ATOM      8  C   UNL     1      -0.562   1.061  25.083  0.00  0.00    +0.039 C 
ATOM      9  C   UNL     1      -0.817   0.768  25.811  0.00  0.00    -0.033 C 
ATOM     10  C   UNL     1      -0.886  -0.046  25.926  0.00  0.00    -0.048 C 
ATOM     11  C   UNL     1      -1.142  -0.340  26.654  0.00  0.00    +0.026 C 
ATOM     12  C   UNL     1      -0.700  -0.567  25.314  0.00  0.00    +0.027 C 
ATOM     25  C   UNL     1      -0.444  -0.273  24.586  0.00  0.00    +0.005 C 
ATOM     26  C   UNL     1      -0.375   0.540  24.470  0.00  0.00    +0.006 C 
ENDROOT
BRANCH  26  27
ATOM     27  C   UNL     1      -0.120   0.833  23.744  0.00  0.00    +0.000 C 
ATOM     28  C   UNL     1      -0.671   1.032  23.162  0.00  0.00    +0.000 C 
ATOM     29  C   UNL     1       0.686   0.929  23.597  0.00  0.00    +0.000 C 
ENDBRANCH  26  27
BRANCH   8   7
ATOM      7  C   UNL     1      -0.492   1.875  24.967  0.00  0.00    +0.093 C 
BRANCH   7   6
ATOM      6  N   UNL     1      -0.970   2.395  25.392  0.00  0.00    -0.213 NA
BRANCH   6   5
ATOM      5  C   UNL     1      -0.836   3.208  25.350  0.00  0.00    +0.118 C 
BRANCH   5   4
ATOM      3  C   UNL     1      -1.390   4.520  25.239  0.00  0.00    +0.136 A 
ATOM      4  C   UNL     1      -1.455   3.736  25.487  0.00  0.00    +0.029 A 
ATOM     30  C   UNL     1      -2.137   3.480  25.873  0.00  0.00    +0.000 A 
ATOM     31  C   UNL     1      -2.756   4.008  26.010  0.00  0.00    -0.000 A 
ATOM     32  C   UNL     1      -2.692   4.793  25.761  0.00  0.00    +0.003 A 
ATOM     33  C   UNL     1      -2.009   5.048  25.376  0.00  0.00    +0.037 A 
BRANCH   3   2
ATOM      1  C   UNL     1      -0.651   5.555  24.587  0.00  0.00    +0.252 C 
ATOM      2  O   UNL     1      -0.707   4.776  24.853  0.00  0.00    -0.472 OA
ENDBRANCH   3   2
ENDBRANCH   5   4
ENDBRANCH   6   5
ENDBRANCH   7   6
ENDBRANCH   8   7
BRANCH  12  13
ATOM     13  C   UNL     1      -0.769  -1.380  25.429  0.00  0.00    +0.091 C 
BRANCH  13  14
ATOM     14  C   UNL     1      -1.309  -1.816  24.981  0.00  0.00    +0.227 A 
ATOM     15  N   UNL     1      -1.133  -2.476  24.520  0.00  0.00    -0.111 NA
ATOM     16  N   UNL     1      -1.834  -2.736  24.170  0.00  0.00    -0.107 NA
ATOM     17  C   UNL     1      -2.442  -2.235  24.416  0.00  0.00    +0.251 A 
ATOM     18  O   UNL     1      -2.117  -1.666  24.918  0.00  0.00    -0.419 OA
BRANCH  17  19
ATOM     19  C   UNL     1      -3.237  -2.294  24.198  0.00  0.00    +0.074 A 
ATOM     20  C   UNL     1      -3.597  -3.034  24.150  0.00  0.00    +0.104 A 
ATOM     21  N   UNL     1      -4.391  -3.092  23.932  0.00  0.00    -0.242 NA
ATOM     22  C   UNL     1      -4.823  -2.410  23.763  0.00  0.00    +0.099 A 
ATOM     23  C   UNL     1      -4.462  -1.670  23.810  0.00  0.00    +0.021 A 
ATOM     24  C   UNL     1      -3.668  -1.612  24.028  0.00  0.00    +0.008 A 
ENDBRANCH  17  19
ENDBRANCH  13  14
ENDBRANCH  12  13
TORSDOF 9
ENDMDL
MODEL 4
REMARK VINA RESULT:      -9.7      1.341      2.175
REMARK  Name = 
REMARK  9 active torsions:
REMARK  status: ('A' for Active; 'I' for Inactive)
REMARK    1  A    between atoms: O_2  and  C_3
REMARK    2  A    between atoms: C_4  and  C_5
REMARK    3  A    between atoms: C_5  and  N_6
REMARK    4  A    between atoms: N_6  and  C_7
REMARK    5  A    between atoms: C_7  and  C_8
REMARK    6  A    between atoms: C_12  and  C_13
REMARK    7  A    between atoms: C_13  and  C_14
REMARK    8  A    between atoms: C_17  and  C_19
REMARK    9  A    between atoms: C_26  and  C_27
REMARK                            x       y       z     vdW  Elec       q    Type
REMARK                         _______ _______ _______ _____ _____    ______ ____
ROOT
ATOM      8  C   UNL     1      -4.423   1.270  24.219  0.00  0.00    +0.039 C 
ATOM      9  C   UNL     1      -3.820   1.289  23.657  0.00  0.00    -0.033 C 
ATOM     10  C   UNL     1      -3.385   1.981  23.543  0.00  0.00    -0.048 C 
ATOM     11  C   UNL     1      -2.781   2.000  22.980  0.00  0.00    +0.026 C 
ATOM     12  C   UNL     1      -3.553   2.653  23.990  0.00  0.00    +0.027 C 
ATOM     25  C   UNL     1      -4.156   2.633  24.552  0.00  0.00    +0.005 C 
ATOM     26  C   UNL     1      -4.592   1.942  24.667  0.00  0.00    +0.006 C 
ENDROOT
BRANCH  26  27
ATOM     27  C   UNL     1      -5.194   1.923  25.229  0.00  0.00    +0.000 C 
ATOM     28  C   UNL     1      -5.011   1.830  26.028  0.00  0.00    +0.000 C 
ATOM     29  C   UNL     1      -5.981   1.997  24.993  0.00  0.00    +0.000 C 
ENDBRANCH  26  27
BRANCH   8   7
ATOM      7  C   UNL     1      -4.859   0.579  24.334  0.00  0.00    +0.093 C 
BRANCH   7   6
ATOM      6  N   UNL     1      -4.524  -0.154  24.161  0.00  0.00    -0.213 NA
BRANCH   6   5
ATOM      5  C   UNL     1      -4.550  -0.762  24.718  0.00  0.00    +0.118 C 
BRANCH   5   4
ATOM      3  C   UNL     1      -3.693  -1.834  25.113  0.00  0.00    +0.136 A 
ATOM      4  C   UNL     1      -4.191  -1.487  24.555  0.00  0.00    +0.029 A 
ATOM     30  C   UNL     1      -4.332  -1.864  23.835  0.00  0.00    +0.000 A 
ATOM     31  C   UNL     1      -3.973  -2.589  23.672  0.00  0.00    -0.000 A 
ATOM     32  C   UNL     1      -3.473  -2.937  24.230  0.00  0.00    +0.003 A 
ATOM     33  C   UNL     1      -3.334  -2.559  24.950  0.00  0.00    +0.037 A 
BRANCH   3   2
ATOM      1  C   UNL     1      -2.961  -1.736  26.336  0.00  0.00    +0.252 C 
ATOM      2  O   UNL     1      -3.552  -1.458  25.833  0.00  0.00    -0.472 OA
ENDBRANCH   3   2
ENDBRANCH   5   4
ENDBRANCH   6   5
ENDBRANCH   7   6
ENDBRANCH   8   7
BRANCH  12  13
ATOM     13  C   UNL     1      -3.118   3.344  23.876  0.00  0.00    +0.091 C 
BRANCH  13  14
ATOM     14  C   UNL     1      -2.524   3.551  24.411  0.00  0.00    +0.227 A 
ATOM     15  N   UNL     1      -2.417   4.295  24.750  0.00  0.00    -0.111 NA
ATOM     16  N   UNL     1      -1.761   4.254  25.250  0.00  0.00    -0.107 NA
ATOM     17  C   UNL     1      -1.464   3.486  25.218  0.00  0.00    +0.251 A 
ATOM     18  O   UNL     1      -1.936   3.050  24.700  0.00  0.00    -0.419 OA
BRANCH  17  19
ATOM     19  C   UNL     1      -0.809   3.201  25.633  0.00  0.00    +0.074 A 
ATOM     20  C   UNL     1      -0.066   3.196  25.276  0.00  0.00    +0.104 A 
ATOM     21  N   UNL     1       0.589   2.912  25.690  0.00  0.00    -0.242 NA
ATOM     22  C   UNL     1       0.499   2.634  26.462  0.00  0.00    +0.099 A 
ATOM     23  C   UNL     1      -0.244   2.639  26.819  0.00  0.00    +0.021 A 
ATOM     24  C   UNL     1      -0.899   2.923  26.404  0.00  0.00    +0.008 A 
ENDBRANCH  17  19
ENDBRANCH  13  14
ENDBRANCH  12  13
TORSDOF 9
ENDMDL
MODEL 5
REMARK VINA RESULT:      -9.5      2.909      4.910
REMARK  Name = 
REMARK  9 active torsions:
REMARK  status: ('A' for Active; 'I' for Inactive)
REMARK    1  A    between atoms: O_2  and  C_3
REMARK    2  A    between atoms: C_4  and  C_5
REMARK    3  A    between atoms: C_5  and  N_6
REMARK    4  A    between atoms: N_6  and  C_7
REMARK    5  A    between atoms: C_7  and  C_8
REMARK    6  A    between atoms: C_12  and  C_13
REMARK    7  A    between atoms: C_13  and  C_14
REMARK    8  A    between atoms: C_17  and  C_19
REMARK    9  A    between atoms: C_26  and  C_27
REMARK                            x       y       z     vdW  Elec       q    Type
REMARK                         _______ _______ _______ _____ _____    ______ ____
ROOT
ATOM      8  C   UNL     1      -0.091   2.591  24.909  0.00  0.00    +0.039 C 
ATOM      9  C   UNL     1      -0.272   3.111  24.295  0.00  0.00    -0.033 C 
ATOM     10  C   UNL     1      -0.861   3.680  24.397  0.00  0.00    -0.048 C 
ATOM     11  C   UNL     1      -1.042   4.201  23.782  0.00  0.00    +0.026 C 
ATOM     12  C   UNL     1      -1.269   3.729  25.111  0.00  0.00    +0.027 C 
ATOM     25  C   UNL     1      -1.088   3.208  25.726  0.00  0.00    +0.005 C 
ATOM     26  C   UNL     1      -0.499   2.640  25.625  0.00  0.00    +0.006 C 
ENDROOT
BRANCH  26  27
ATOM     27  C   UNL     1      -0.319   2.120  26.239  0.00  0.00    +0.000 C 
ATOM     28  C   UNL     1       0.234   2.335  26.813  0.00  0.00    +0.000 C 
ATOM     29  C   UNL     1      -0.690   1.384  26.280  0.00  0.00    +0.000 C 
ENDBRANCH  26  27
BRANCH   8   7
ATOM      7  C   UNL     1       0.498   2.022  24.809  0.00  0.00    +0.093 C 
BRANCH   7   6
ATOM      6  N   UNL     1       0.641   1.704  24.063  0.00  0.00    -0.213 NA
BRANCH   6   5
ATOM      5  C   UNL     1       1.374   1.363  23.892  0.00  0.00    +0.118 C 
BRANCH   5   4
ATOM      3  C   UNL     1       2.149   0.619  22.952  0.00  0.00    +0.136 A 
ATOM      4  C   UNL     1       1.429   0.766  23.326  0.00  0.00    +0.029 A 
ATOM     30  C   UNL     1       0.765   0.317  23.134  0.00  0.00    +0.000 A 
ATOM     31  C   UNL     1       0.820  -0.280  22.567  0.00  0.00    -0.000 A 
ATOM     32  C   UNL     1       1.541  -0.428  22.193  0.00  0.00    +0.003 A 
ATOM     33  C   UNL     1       2.205   0.022  22.385  0.00  0.00    +0.037 A 
BRANCH   3   2
ATOM      1  C   UNL     1       3.539   0.908  22.785  0.00  0.00    +0.252 C 
ATOM      2  O   UNL     1       2.814   1.068  23.144  0.00  0.00    -0.472 OA
ENDBRANCH   3   2
ENDBRANCH   5   4
ENDBRANCH   6   5
ENDBRANCH   7   6
ENDBRANCH   8   7
BRANCH  12  13
ATOM     13  C   UNL     1      -1.858   4.297  25.212  0.00  0.00    +0.091 C 
BRANCH  13  14
ATOM     14  C   UNL     1      -2.604   4.074  25.487  0.00  0.00    +0.227 A 
ATOM     15  N   UNL     1      -2.944   4.300  26.203  0.00  0.00    -0.111 NA
ATOM     16  N   UNL     1      -3.690   3.951  26.252  0.00  0.00    -0.107 NA
ATOM     17  C   UNL     1      -3.811   3.510  25.566  0.00  0.00    +0.251 A 
ATOM     18  O   UNL     1      -3.139   3.586  25.092  0.00  0.00    -0.419 OA
BRANCH  17  19
ATOM     19  C   UNL     1      -4.486   3.070  25.384  0.00  0.00    +0.074 A 
ATOM     20  C   UNL     1      -5.217   3.292  25.693  0.00  0.00    +0.104 A 
ATOM     21  N   UNL     1      -5.892   2.852  25.512  0.00  0.00    -0.242 NA
ATOM     22  C   UNL     1      -5.833   2.191  25.021  0.00  0.00    +0.099 A 
ATOM     23  C   UNL     1      -5.101   1.970  24.712  0.00  0.00    +0.021 A 
ATOM     24  C   UNL     1      -4.427   2.410  24.894  0.00  0.00    +0.008 A 
ENDBRANCH  17  19
ENDBRANCH  13  14
ENDBRANCH  12  13
TORSDOF 9
ENDMDL
MODEL 6
REMARK VINA RESULT:      -8.9      2.534      4.886
REMARK  Name = 
REMARK  9 active torsions:
REMARK  status: ('A' for Active; 'I' for Inactive)
REMARK    1  A    between atoms: O_2  and  C_3
REMARK    2  A    between atoms: C_4  and  C_5
REMARK    3  A    between atoms: C_5  and  N_6
REMARK    4  A    between atoms: N_6  and  C_7
REMARK    5  A    between atoms: C_7  and  C_8
REMARK    6  A    between atoms: C_12  and  C_13
REMARK    7  A    between atoms: C_13  and  C_14
REMARK    8  A    between atoms: C_17  and  C_19
REMARK    9  A    between atoms: C_26  and  C_27
REMARK                            x       y       z     vdW  Elec       q    Type
REMARK                         _______ _______ _______ _____ _____    ______ ____
ROOT
ATOM      8  C   UNL     1      -3.770  -0.532  25.009  0.00  0.00    +0.039 C 
ATOM      9  C   UNL     1      -3.302  -0.299  25.648  0.00  0.00    -0.033 C 
ATOM     10  C   UNL     1      -2.555  -0.633  25.755  0.00  0.00    -0.048 C 
ATOM     11  C   UNL     1      -2.087  -0.399  26.394  0.00  0.00    +0.026 C 
ATOM     12  C   UNL     1      -2.276  -1.199  25.225  0.00  0.00    +0.027 C 
ATOM     25  C   UNL     1      -2.744  -1.432  24.586  0.00  0.00    +0.005 C 
ATOM     26  C   UNL     1      -3.490  -1.099  24.478  0.00  0.00    +0.006 C 
ENDROOT
BRANCH  26  27
ATOM     27  C   UNL     1      -3.957  -1.332  23.840  0.00  0.00    +0.000 C 
ATOM     28  C   UNL     1      -3.930  -0.908  23.132  0.00  0.00    +0.000 C 
ATOM     29  C   UNL     1      -4.453  -1.988  23.909  0.00  0.00    +0.000 C 
ENDBRANCH  26  27
BRANCH   8   7
ATOM      7  C   UNL     1      -4.517  -0.199  24.901  0.00  0.00    +0.093 C 
BRANCH   7   6
ATOM      6  N   UNL     1      -4.692   0.536  25.230  0.00  0.00    -0.213 NA
BRANCH   6   5
ATOM      5  C   UNL     1      -5.039   1.124  24.765  0.00  0.00    +0.118 C 
BRANCH   5   4
ATOM      3  C   UNL     1      -4.919   2.547  24.752  0.00  0.00    +0.136 A 
ATOM      4  C   UNL     1      -5.217   1.859  25.095  0.00  0.00    +0.029 A 
ATOM     30  C   UNL     1      -5.693   1.905  25.767  0.00  0.00    +0.000 A 
ATOM     31  C   UNL     1      -5.870   2.640  26.097  0.00  0.00    -0.000 A 
ATOM     32  C   UNL     1      -5.572   3.329  25.754  0.00  0.00    +0.003 A 
ATOM     33  C   UNL     1      -5.097   3.282  25.082  0.00  0.00    +0.037 A 
BRANCH   3   2
ATOM      1  C   UNL     1      -4.044   3.170  23.810  0.00  0.00    +0.252 C 
ATOM      2  O   UNL     1      -4.443   2.501  24.080  0.00  0.00    -0.472 OA
ENDBRANCH   3   2
ENDBRANCH   5   4
ENDBRANCH   6   5
ENDBRANCH   7   6
ENDBRANCH   8   7
BRANCH  12  13
ATOM     13  C   UNL     1      -1.530  -1.532  25.332  0.00  0.00    +0.091 C 
BRANCH  13  14
ATOM     14  C   UNL     1      -0.934  -1.399  24.776  0.00  0.00    +0.227 A 
ATOM     15  N   UNL     1      -0.603  -1.965  24.277  0.00  0.00    -0.111 NA
ATOM     16  N   UNL     1      -0.030  -1.593  23.814  0.00  0.00    -0.107 NA
ATOM     17  C   UNL     1      -0.008  -0.796  24.027  0.00  0.00    +0.251 A 
ATOM     18  O   UNL     1      -0.567  -0.676  24.622  0.00  0.00    -0.419 OA
BRANCH  17  19
ATOM     19  C   UNL     1       0.486  -0.221  23.703  0.00  0.00    +0.074 A 
ATOM     20  C   UNL     1       1.050  -0.432  23.139  0.00  0.00    +0.104 A 
ATOM     21  N   UNL     1       1.545   0.144  22.815  0.00  0.00    -0.242 NA
ATOM     22  C   UNL     1       1.474   0.930  23.055  0.00  0.00    +0.099 A 
ATOM     23  C   UNL     1       0.910   1.141  23.618  0.00  0.00    +0.021 A 
ATOM     24  C   UNL     1       0.416   0.565  23.943  0.00  0.00    +0.008 A 
ENDBRANCH  17  19
ENDBRANCH  13  14
ENDBRANCH  12  13
TORSDOF 9
ENDMDL
MODEL 7
REMARK VINA RESULT:      -8.8      1.287      5.631
REMARK  Name = 
REMARK  9 active torsions:
REMARK  status: ('A' for Active; 'I' for Inactive)
REMARK    1  A    between atoms: O_2  and  C_3
REMARK    2  A    between atoms: C_4  and  C_5
REMARK    3  A    between atoms: C_5  and  N_6
REMARK    4  A    between atoms: N_6  and  C_7
REMARK    5  A    between atoms: C_7  and  C_8
REMARK    6  A    between atoms: C_12  and  C_13
REMARK    7  A    between atoms: C_13  and  C_14
REMARK    8  A    between atoms: C_17  and  C_19
REMARK    9  A    between atoms: C_26  and  C_27
REMARK                            x       y       z     vdW  Elec       q    Type
REMARK                         _______ _______ _______ _____ _____    ______ ____
ROOT
ATOM      8  C   UNL     1      -4.027   2.505  24.579  0.00  0.00    +0.039 C 
ATOM      9  C   UNL     1      -3.533   2.288  23.955  0.00  0.00    -0.033 C 
ATOM     10  C   UNL     1      -3.592   1.534  23.626  0.00  0.00    -0.048 C 
ATOM     11  C   UNL     1      -3.098   1.317  23.000  0.00  0.00    +0.026 C 
ATOM     12  C   UNL     1      -4.143   0.996  23.921  0.00  0.00    +0.027 C 
ATOM     25  C   UNL     1      -4.636   1.212  24.545  0.00  0.00    +0.005 C 
ATOM     26  C   UNL     1      -4.579   1.966  24.875  0.00  0.00    +0.006 C 
ENDROOT
BRANCH  26  27
ATOM     27  C   UNL     1      -5.071   2.182  25.499  0.00  0.00    +0.000 C 
ATOM     28  C   UNL     1      -4.862   1.994  26.275  0.00  0.00    +0.000 C 
ATOM     29  C   UNL     1      -5.774   2.587  25.349  0.00  0.00    +0.000 C 
ENDBRANCH  26  27
BRANCH   8   7
ATOM      7  C   UNL     1      -3.969   3.258  24.909  0.00  0.00    +0.093 C 
BRANCH   7   6
ATOM      6  N   UNL     1      -3.299   3.718  24.774  0.00  0.00    -0.213 NA
BRANCH   6   5
ATOM      5  C   UNL     1      -2.816   3.940  25.406  0.00  0.00    +0.118 C 
BRANCH   5   4
ATOM      3  C   UNL     1      -1.393   4.028  25.493  0.00  0.00    +0.136 A 
ATOM      4  C   UNL     1      -2.115   4.352  25.264  0.00  0.00    +0.029 A 
ATOM     30  C   UNL     1      -2.139   5.089  24.894  0.00  0.00    +0.000 A 
ATOM     31  C   UNL     1      -1.438   5.502  24.753  0.00  0.00    -0.000 A 
ATOM     32  C   UNL     1      -0.715   5.177  24.982  0.00  0.00    +0.003 A 
ATOM     33  C   UNL     1      -0.692   4.440  25.352  0.00  0.00    +0.037 A 
BRANCH   3   2
ATOM      1  C   UNL     1      -0.644   2.942  26.044  0.00  0.00    +0.252 C 
ATOM      2  O   UNL     1      -1.369   3.291  25.864  0.00  0.00    -0.472 OA
ENDBRANCH   3   2
ENDBRANCH   5   4
ENDBRANCH   6   5
ENDBRANCH   7   6
ENDBRANCH   8   7
BRANCH  12  13
ATOM     13  C   UNL     1      -4.201   0.243  23.592  0.00  0.00    +0.091 C 
BRANCH  13  14
ATOM     14  C   UNL     1      -3.889  -0.408  23.993  0.00  0.00    +0.227 A 
ATOM     15  N   UNL     1      -4.323  -0.996  24.374  0.00  0.00    -0.111 NA
ATOM     16  N   UNL     1      -3.791  -1.536  24.700  0.00  0.00    -0.107 NA
ATOM     17  C   UNL     1      -3.027  -1.281  24.520  0.00  0.00    +0.251 A 
ATOM     18  O   UNL     1      -3.087  -0.583  24.083  0.00  0.00    -0.419 OA
BRANCH  17  19
ATOM     19  C   UNL     1      -2.326  -1.657  24.739  0.00  0.00    +0.074 A 
ATOM     20  C   UNL     1      -2.172  -2.424  24.479  0.00  0.00    +0.104 A 
ATOM     21  N   UNL     1      -1.470  -2.801  24.698  0.00  0.00    -0.242 NA
ATOM     22  C   UNL     1      -0.924  -2.408  25.177  0.00  0.00    +0.099 A 
ATOM     23  C   UNL     1      -1.079  -1.641  25.435  0.00  0.00    +0.021 A 
ATOM     24  C   UNL     1      -1.780  -1.265  25.217  0.00  0.00    +0.008 A 
ENDBRANCH  17  19
ENDBRANCH  13  14
ENDBRANCH  12  13
TORSDOF 9
ENDMDL
MODEL 8
REMARK VINA RESULT:      -8.8      3.237      5.234
REMARK  Name = 
REMARK  9 active torsions:
REMARK  status: ('A' for Active; 'I' for Inactive)
REMARK    1  A    between atoms: O_2  and  C_3
REMARK    2  A    between atoms: C_4  and  C_5
REMARK    3  A    between atoms: C_5  and  N_6
REMARK    4  A    between atoms: N_6  and  C_7
REMARK    5  A    between atoms: C_7  and  C_8
REMARK    6  A    between atoms: C_12  and  C_13
REMARK    7  A    between atoms: C_13  and  C_14
REMARK    8  A    between atoms: C_17  and  C_19
REMARK    9  A    between atoms: C_26  and  C_27
REMARK                            x       y       z     vdW  Elec       q    Type
REMARK                         _______ _______ _______ _____ _____    ______ ____
ROOT
ATOM      8  C   UNL     1      -0.561   0.471  24.526  0.00  0.00    +0.039 C 
ATOM      9  C   UNL     1      -0.781  -0.320  24.447  0.00  0.00    -0.033 C 
ATOM     10  C   UNL     1      -1.527  -0.567  24.700  0.00  0.00    -0.048 C 
ATOM     11  C   UNL     1      -1.748  -1.359  24.621  0.00  0.00    +0.026 C 
ATOM     12  C   UNL     1      -2.051  -0.025  25.033  0.00  0.00    +0.027 C 
ATOM     25  C   UNL     1      -1.830   0.766  25.112  0.00  0.00    +0.005 C 
ATOM     26  C   UNL     1      -1.086   1.015  24.859  0.00  0.00    +0.006 C 
ENDROOT
BRANCH  26  27
ATOM     27  C   UNL     1      -0.865   1.805  24.938  0.00  0.00    +0.000 C 
ATOM     28  C   UNL     1      -1.012   2.338  24.325  0.00  0.00    +0.000 C 
ATOM     29  C   UNL     1      -0.499   2.064  25.630  0.00  0.00    +0.000 C 
ENDBRANCH  26  27
BRANCH   8   7
ATOM      7  C   UNL     1       0.184   0.720  24.273  0.00  0.00    +0.093 C 
BRANCH   7   6
ATOM      6  N   UNL     1       0.580   0.302  23.684  0.00  0.00    -0.213 NA
BRANCH   6   5
ATOM      5  C   UNL     1       1.377   0.456  23.533  0.00  0.00    +0.118 C 
BRANCH   5   4
ATOM      3  C   UNL     1       2.507   0.383  22.663  0.00  0.00    +0.136 A 
ATOM      4  C   UNL     1       1.721   0.200  22.828  0.00  0.00    +0.029 A 
ATOM     30  C   UNL     1       1.276  -0.238  22.288  0.00  0.00    +0.000 A 
ATOM     31  C   UNL     1       1.619  -0.493  21.582  0.00  0.00    -0.000 A 
ATOM     32  C   UNL     1       2.407  -0.310  21.417  0.00  0.00    +0.003 A 
ATOM     33  C   UNL     1       2.851   0.128  21.957  0.00  0.00    +0.037 A 
BRANCH   3   2
ATOM      1  C   UNL     1       3.751   0.963  23.060  0.00  0.00    +0.252 C 
ATOM      2  O   UNL     1       2.952   0.821  23.203  0.00  0.00    -0.472 OA
ENDBRANCH   3   2
ENDBRANCH   5   4
ENDBRANCH   6   5
ENDBRANCH   7   6
ENDBRANCH   8   7
BRANCH  12  13
ATOM     13  C   UNL     1      -2.795  -0.272  25.286  0.00  0.00    +0.091 C 
BRANCH  13  14
ATOM     14  C   UNL     1      -3.470   0.144  25.054  0.00  0.00    +0.227 A 
ATOM     15  N   UNL     1      -3.938  -0.020  24.395  0.00  0.00    -0.111 NA
ATOM     16  N   UNL     1      -4.551   0.532  24.374  0.00  0.00    -0.107 NA
ATOM     17  C   UNL     1      -4.461   1.037  25.020  0.00  0.00    +0.251 A 
ATOM     18  O   UNL     1      -3.792   0.798  25.441  0.00  0.00    -0.419 OA
BRANCH  17  19
ATOM     19  C   UNL     1      -4.954   1.671  25.212  0.00  0.00    +0.074 A 
ATOM     20  C   UNL     1      -5.660   1.536  25.616  0.00  0.00    +0.104 A 
ATOM     21  N   UNL     1      -6.153   2.170  25.808  0.00  0.00    -0.242 NA
ATOM     22  C   UNL     1      -5.938   2.938  25.596  0.00  0.00    +0.099 A 
ATOM     23  C   UNL     1      -5.232   3.072  25.192  0.00  0.00    +0.021 A 
ATOM     24  C   UNL     1      -4.739   2.438  25.000  0.00  0.00    +0.008 A 
ENDBRANCH  17  19
ENDBRANCH  13  14
ENDBRANCH  12  13
TORSDOF 9
ENDMDL
MODEL 9
REMARK VINA RESULT:      -8.8      2.025      5.993
REMARK  Name = 
REMARK  9 active torsions:
REMARK  status: ('A' for Active; 'I' for Inactive)
REMARK    1  A    between atoms: O_2  and  C_3
REMARK    2  A    between atoms: C_4  and  C_5
REMARK    3  A    between atoms: C_5  and  N_6
REMARK    4  A    between atoms: N_6  and  C_7
REMARK    5  A    between atoms: C_7  and  C_8
REMARK    6  A    between atoms: C_12  and  C_13
REMARK    7  A    between atoms: C_13  and  C_14
REMARK    8  A    between atoms: C_17  and  C_19
REMARK    9  A    between atoms: C_26  and  C_27
REMARK                            x       y       z     vdW  Elec       q    Type
REMARK                         _______ _______ _______ _____ _____    ______ ____
ROOT
ATOM      8  C   UNL     1      -0.964   2.312  24.589  0.00  0.00    +0.039 C 
ATOM      9  C   UNL     1      -1.165   1.990  23.856  0.00  0.00    -0.033 C 
ATOM     10  C   UNL     1      -0.907   1.233  23.654  0.00  0.00    -0.048 C 
ATOM     11  C   UNL     1      -1.108   0.911  22.920  0.00  0.00    +0.026 C 
ATOM     12  C   UNL     1      -0.450   0.797  24.183  0.00  0.00    +0.027 C 
ATOM     25  C   UNL     1      -0.249   1.119  24.916  0.00  0.00    +0.005 C 
ATOM     26  C   UNL     1      -0.506   1.876  25.120  0.00  0.00    +0.006 C 
ENDROOT
BRANCH  26  27
ATOM     27  C   UNL     1      -0.305   2.197  25.851  0.00  0.00    +0.000 C 
ATOM     28  C   UNL     1       0.283   2.774  25.902  0.00  0.00    +0.000 C 
ATOM     29  C   UNL     1      -0.692   1.942  26.534  0.00  0.00    +0.000 C 
ENDBRANCH  26  27
BRANCH   8   7
ATOM      7  C   UNL     1      -1.221   3.069  24.792  0.00  0.00    +0.093 C 
BRANCH   7   6
ATOM      6  N   UNL     1      -1.946   3.347  24.515  0.00  0.00    -0.213 NA
BRANCH   6   5
ATOM      5  C   UNL     1      -2.381   3.885  24.966  0.00  0.00    +0.118 C 
BRANCH   5   4
ATOM      3  C   UNL     1      -3.616   3.991  25.675  0.00  0.00    +0.136 A 
ATOM      4  C   UNL     1      -3.205   3.843  24.976  0.00  0.00    +0.029 A 
ATOM     30  C   UNL     1      -3.616   3.654  24.287  0.00  0.00    +0.000 A 
ATOM     31  C   UNL     1      -4.440   3.612  24.297  0.00  0.00    -0.000 A 
ATOM     32  C   UNL     1      -4.852   3.760  24.997  0.00  0.00    +0.003 A 
ATOM     33  C   UNL     1      -4.440   3.949  25.686  0.00  0.00    +0.037 A 
BRANCH   3   2
ATOM      1  C   UNL     1      -3.610   4.270  27.077  0.00  0.00    +0.252 C 
ATOM      2  O   UNL     1      -3.204   4.180  26.365  0.00  0.00    -0.472 OA
ENDBRANCH   3   2
ENDBRANCH   5   4
ENDBRANCH   6   5
ENDBRANCH   7   6
ENDBRANCH   8   7
BRANCH  12  13
ATOM     13  C   UNL     1      -0.193   0.041  23.981  0.00  0.00    +0.091 C 
BRANCH  13  14
ATOM     14  C   UNL     1      -0.538  -0.621  24.335  0.00  0.00    +0.227 A 
ATOM     15  N   UNL     1      -0.157  -1.159  24.829  0.00  0.00    -0.111 NA
ATOM     16  N   UNL     1      -0.708  -1.731  25.056  0.00  0.00    -0.107 NA
ATOM     17  C   UNL     1      -1.429  -1.544  24.700  0.00  0.00    +0.251 A 
ATOM     18  O   UNL     1      -1.324  -0.858  24.254  0.00  0.00    -0.419 OA
BRANCH  17  19
ATOM     19  C   UNL     1      -2.132  -1.970  24.778  0.00  0.00    +0.074 A 
ATOM     20  C   UNL     1      -2.254  -2.650  24.327  0.00  0.00    +0.104 A 
ATOM     21  N   UNL     1      -2.957  -3.075  24.404  0.00  0.00    -0.242 NA
ATOM     22  C   UNL     1      -3.537  -2.820  24.933  0.00  0.00    +0.099 A 
ATOM     23  C   UNL     1      -3.415  -2.140  25.383  0.00  0.00    +0.021 A 
ATOM     24  C   UNL     1      -2.712  -1.715  25.306  0.00  0.00    +0.008 A 
ENDBRANCH  17  19
ENDBRANCH  13  14
ENDBRANCH  12  13
TORSDOF 9
ENDMDL
MODEL 10
REMARK VINA RESULT:      -8.6      1.710      2.988
REMARK  Name = 
REMARK  9 active torsions:
REMARK  status: ('A' for Active; 'I' for Inactive)
REMARK    1  A    between atoms: O_2  and  C_3
REMARK    2  A    between atoms: C_4  and  C_5
REMARK    3  A    between atoms: C_5  and  N_6
REMARK    4  A    between atoms: N_6  and  C_7
REMARK    5  A    between atoms: C_7  and  C_8
REMARK    6  A    between atoms: C_12  and  C_13
REMARK    7  A    between atoms: C_13  and  C_14
REMARK    8  A    between atoms: C_17  and  C_19
REMARK    9  A    between atoms: C_26  and  C_27
REMARK                            x       y       z     vdW  Elec       q    Type
REMARK                         _______ _______ _______ _____ _____    ______ ____
ROOT
ATOM      8  C   UNL     1      -0.600   0.873  25.018  0.00  0.00    +0.039 C 
ATOM      9  C   UNL     1      -0.525   1.158  25.789  0.00  0.00    -0.033 C 
ATOM     10  C   UNL     1      -0.520   1.971  25.928  0.00  0.00    -0.048 C 
ATOM     11  C   UNL     1      -0.444   2.257  26.700  0.00  0.00    +0.026 C 
ATOM     12  C   UNL     1      -0.590   2.499  25.299  0.00  0.00    +0.027 C 
ATOM     25  C   UNL     1      -0.665   2.214  24.529  0.00  0.00    +0.005 C 
ATOM     26  C   UNL     1      -0.670   1.401  24.387  0.00  0.00    +0.006 C 
ENDROOT
BRANCH  26  27
ATOM     27  C   UNL     1      -0.746   1.117  23.618  0.00  0.00    +0.000 C 
ATOM     28  C   UNL     1      -1.477   1.149  23.235  0.00  0.00    +0.000 C 
ATOM     29  C   UNL     1      -0.091   0.800  23.229  0.00  0.00    +0.000 C 
ENDBRANCH  26  27
BRANCH   8   7
ATOM      7  C   UNL     1      -0.605   0.061  24.877  0.00  0.00    +0.093 C 
BRANCH   7   6
ATOM      6  N   UNL     1      -1.070  -0.436  25.341  0.00  0.00    -0.213 NA
BRANCH   6   5
ATOM      5  C   UNL     1      -1.207  -1.215  25.104  0.00  0.00    +0.118 C 
BRANCH   5   4
ATOM      3  C   UNL     1      -2.181  -2.190  24.730  0.00  0.00    +0.136 A 
ATOM      4  C   UNL     1      -1.954  -1.551  25.198  0.00  0.00    +0.029 A 
ATOM     30  C   UNL     1      -2.475  -1.245  25.762  0.00  0.00    +0.000 A 
ATOM     31  C   UNL     1      -3.223  -1.581  25.856  0.00  0.00    -0.000 A 
ATOM     32  C   UNL     1      -3.450  -2.221  25.387  0.00  0.00    +0.003 A 
ATOM     33  C   UNL     1      -2.929  -2.525  24.824  0.00  0.00    +0.037 A 
BRANCH   3   2
ATOM      1  C   UNL     1      -1.875  -3.155  23.722  0.00  0.00    +0.252 C 
ATOM      2  O   UNL     1      -1.661  -2.495  24.167  0.00  0.00    -0.472 OA
ENDBRANCH   3   2
ENDBRANCH   5   4
ENDBRANCH   6   5
ENDBRANCH   7   6
ENDBRANCH   8   7
BRANCH  12  13
ATOM     13  C   UNL     1      -0.585   3.311  25.439  0.00  0.00    +0.091 C 
BRANCH  13  14
ATOM     14  C   UNL     1      -1.285   3.746  25.373  0.00  0.00    +0.227 A 
ATOM     15  N   UNL     1      -1.340   4.553  25.215  0.00  0.00    -0.111 NA
ATOM     16  N   UNL     1      -2.140   4.755  25.198  0.00  0.00    -0.107 NA
ATOM     17  C   UNL     1      -2.578   4.072  25.346  0.00  0.00    +0.251 A 
ATOM     18  O   UNL     1      -2.049   3.448  25.455  0.00  0.00    -0.419 OA
BRANCH  17  19
ATOM     19  C   UNL     1      -3.402   4.022  25.380  0.00  0.00    +0.074 A 
ATOM     20  C   UNL     1      -3.789   4.097  26.104  0.00  0.00    +0.104 A 
ATOM     21  N   UNL     1      -4.613   4.047  26.138  0.00  0.00    -0.242 NA
ATOM     22  C   UNL     1      -5.047   3.921  25.447  0.00  0.00    +0.099 A 
ATOM     23  C   UNL     1      -4.658   3.846  24.724  0.00  0.00    +0.021 A 
ATOM     24  C   UNL     1      -3.835   3.896  24.690  0.00  0.00    +0.008 A 
ENDBRANCH  17  19
ENDBRANCH  13  14
ENDBRANCH  12  13
TORSDOF 9
ENDMDL
