REMARK  Name = 
REMARK  7 active torsions:
REMARK  status: ('A' for Active; 'I' for Inactive)
REMARK    1  A    between atoms: N_2  and  C_4
REMARK    2  A    between atoms: C_7  and  C_8
REMARK    3  A    between atoms: C_8  and  N_9
REMARK    4  A    between atoms: N_9  and  C_10
REMARK    5  A    between atoms: C_15  and  C_16
REMARK    6  A    between atoms: C_16  and  C_17
REMARK    7  A    between atoms: C_17  and  C_18
REMARK                            x       y       z     vdW  Elec       q    Type
REMARK                         _______ _______ _______ _____ _____    ______ ____
ROOT
ATOM     10  C   UNL     1      -0.628  -0.698   0.000  0.00  0.00    +0.091 C 
ATOM     11  C   UNL     1      -0.143  -1.365   0.000  0.00  0.00    +0.044 C 
ATOM     12  C   UNL     1       0.641  -1.110   0.000  0.00  0.00    +0.138 C 
ATOM     13  N   UNL     1       0.641  -0.285   0.000  0.00  0.00    -0.265 NA
ATOM     14  C   UNL     1      -0.143  -0.030   0.000  0.00  0.00    +0.090 C 
ATOM     15  C   UNL     1       1.356   0.127   0.000  0.00  0.00    +0.080 C 
ATOM     27  C   UNL     1       2.070  -0.285   0.000  0.00  0.00    +0.131 C 
ATOM     28  N   UNL     1       2.070  -1.110   0.000  0.00  0.00    -0.203 NA
ATOM     29  C   UNL     1       1.356  -1.523   0.000  0.00  0.00    +0.256 C 
ATOM     30  O   UNL     1       1.356  -2.348   0.000  0.00  0.00    -0.272 OA
ENDROOT
BRANCH  10   9
ATOM      9  N   UNL     1      -1.453  -0.698   0.000  0.00  0.00    -0.213 NA
BRANCH   9   8
ATOM      8  C   UNL     1      -1.866  -1.412   0.000  0.00  0.00    +0.115 C 
BRANCH   8   7
ATOM      4  C   UNL     1      -4.341  -1.412   0.000  0.00  0.00    +0.048 A 
ATOM      5  C   UNL     1      -3.928  -0.698   0.000  0.00  0.00    +0.014 A 
ATOM      6  C   UNL     1      -3.103  -0.698   0.000  0.00  0.00    -0.002 A 
ATOM      7  C   UNL     1      -2.691  -1.412   0.000  0.00  0.00    -0.005 A 
ATOM     31  C   UNL     1      -3.103  -2.127   0.000  0.00  0.00    -0.002 A 
ATOM     32  C   UNL     1      -3.928  -2.127   0.000  0.00  0.00    +0.014 A 
BRANCH   4   2
ATOM      1  C   UNL     1      -5.578  -2.127   0.000  0.00  0.00    +0.112 C 
ATOM      2  N   UNL     1      -5.166  -1.412   0.000  0.00  0.00    -0.304 N 
ATOM      3  C   UNL     1      -5.578  -0.698   0.000  0.00  0.00    +0.112 C 
ENDBRANCH   4   2
ENDBRANCH   8   7
ENDBRANCH   9   8
ENDBRANCH  10   9
BRANCH  15  16
ATOM     16  C   UNL     1       1.356   0.952   0.000  0.00  0.00    +0.027 C 
BRANCH  16  17
ATOM     17  C   UNL     1       2.070   1.365   0.000  0.00  0.00    +0.087 C 
BRANCH  17  18
ATOM     18  C   UNL     1       2.070   2.190   0.000  0.00  0.00    +0.226 C 
ATOM     19  O   UNL     1       1.356   2.602   0.000  0.00  0.00    -0.275 OA
ATOM     20  N   UNL     1       2.784   2.602   0.000  0.00  0.00    -0.279 N 
ATOM     21  C   UNL     1       2.784   3.427   0.000  0.00  0.00    +0.096 C 
ATOM     22  C   UNL     1       3.499   3.840   0.000  0.00  0.00    +0.054 C 
ATOM     23  C   UNL     1       4.213   3.427   0.000  0.00  0.00    +0.155 C 
ATOM     24  O   UNL     1       4.928   3.840   0.000  0.00  0.00    -0.223 OA
ATOM     25  C   UNL     1       4.213   2.602   0.000  0.00  0.00    +0.054 C 
ATOM     26  C   UNL     1       3.499   2.190   0.000  0.00  0.00    +0.096 C 
ENDBRANCH  17  18
ENDBRANCH  16  17
ENDBRANCH  15  16
TORSDOF 7
