MODEL 1
REMARK VINA RESULT:      -9.7      0.000      0.000
REMARK  Name = 
REMARK  10 active torsions:
REMARK  status: ('A' for Active; 'I' for Inactive)
REMARK    1  A    between atoms: C_2  and  C_3
REMARK    2  A    between atoms: C_3  and  C_4
REMARK    3  A    between atoms: C_7  and  C_8
REMARK    4  A    between atoms: C_8  and  C_9
REMARK    5  A    between atoms: C_11  and  C_12
REMARK    6  A    between atoms: C_15  and  C_16
REMARK    7  A    between atoms: C_16  and  N_17
REMARK    8  A    between atoms: N_20  and  C_21
REMARK    9  A    between atoms: C_21  and  C_22
REMARK   10  A    between atoms: C_22  and  O_23
REMARK                            x       y       z     vdW  Elec       q    Type
REMARK                         _______ _______ _______ _____ _____    ______ ____
ROOT
ATOM      9  C   UNL     1      -3.995   2.446  23.999  0.00  0.00    +0.027 C 
ATOM     10  C   UNL     1      -4.669   2.441  24.476  0.00  0.00    +0.005 C 
ATOM     11  C   UNL     1      -4.963   1.728  24.769  0.00  0.00    +0.006 C 
ATOM     15  C   UNL     1      -4.583   1.019  24.584  0.00  0.00    +0.037 C 
ATOM     27  C   UNL     1      -3.909   1.024  24.107  0.00  0.00    -0.034 C 
ATOM     28  C   UNL     1      -3.616   1.736  23.815  0.00  0.00    -0.048 C 
ATOM     29  C   UNL     1      -2.943   1.741  23.338  0.00  0.00    +0.026 C 
ENDROOT
BRANCH  11  12
ATOM     12  C   UNL     1      -5.635   1.724  25.245  0.00  0.00    +0.000 C 
ATOM     13  C   UNL     1      -6.380   1.607  24.908  0.00  0.00    +0.000 C 
ATOM     14  C   UNL     1      -5.565   1.836  26.059  0.00  0.00    +0.000 C 
ENDBRANCH  11  12
BRANCH   9   8
ATOM      8  C   UNL     1      -3.702   3.159  23.706  0.00  0.00    +0.091 C 
BRANCH   8   7
ATOM      4  C   UNL     1      -2.494   4.372  24.982  0.00  0.00    +0.226 A 
ATOM      5  N   UNL     1      -3.225   4.750  25.048  0.00  0.00    -0.112 NA
ATOM      6  N   UNL     1      -3.766   4.341  24.578  0.00  0.00    -0.112 NA
ATOM      7  C   UNL     1      -3.370   3.711  24.222  0.00  0.00    +0.226 A 
ATOM     30  O   UNL     1      -2.584   3.730  24.472  0.00  0.00    -0.423 OA
BRANCH   4   3
ATOM      3  C   UNL     1      -1.797   4.596  25.360  0.00  0.00    +0.087 C 
BRANCH   3   2
ATOM      1  C   UNL     1      -0.475   5.013  25.009  0.00  0.00    +0.001 C 
ATOM      2  C   UNL     1      -1.290   5.141  25.002  0.00  0.00    +0.010 C 
ENDBRANCH   3   2
ENDBRANCH   4   3
ENDBRANCH   8   7
ENDBRANCH   9   8
BRANCH  15  16
ATOM     16  C   UNL     1      -4.876   0.306  24.876  0.00  0.00    +0.076 C 
BRANCH  16  17
ATOM     17  N   UNL     1      -4.403  -0.370  24.868  0.00  0.00    -0.270 NA
ATOM     18  C   UNL     1      -3.898  -0.528  25.501  0.00  0.00    +0.090 C 
ATOM     19  C   UNL     1      -3.425  -1.204  25.492  0.00  0.00    +0.090 C 
ATOM     20  N   UNL     1      -3.457  -1.722  24.850  0.00  0.00    -0.268 NA
ATOM     25  C   UNL     1      -3.961  -1.563  24.217  0.00  0.00    +0.090 C 
ATOM     26  C   UNL     1      -4.435  -0.887  24.226  0.00  0.00    +0.090 C 
BRANCH  20  21
ATOM     21  C   UNL     1      -2.983  -2.397  24.842  0.00  0.00    +0.105 C 
BRANCH  21  22
ATOM     22  C   UNL     1      -2.244  -2.380  24.476  0.00  0.00    +0.160 C 
BRANCH  22  23
ATOM     23  O   UNL     1      -1.645  -2.886  24.732  0.00  0.00    -0.350 OA
ATOM     24  C   UNL     1      -0.854  -2.669  24.640  0.00  0.00    +0.174 C 
ENDBRANCH  22  23
ENDBRANCH  21  22
ENDBRANCH  20  21
ENDBRANCH  16  17
ENDBRANCH  15  16
TORSDOF 10
ENDMDL
MODEL 2
REMARK VINA RESULT:      -9.3      1.778      3.397
REMARK  Name = 
REMARK  10 active torsions:
REMARK  status: ('A' for Active; 'I' for Inactive)
REMARK    1  A    between atoms: C_2  and  C_3
REMARK    2  A    between atoms: C_3  and  C_4
REMARK    3  A    between atoms: C_7  and  C_8
REMARK    4  A    between atoms: C_8  and  C_9
REMARK    5  A    between atoms: C_11  and  C_12
REMARK    6  A    between atoms: C_15  and  C_16
REMARK    7  A    between atoms: C_16  and  N_17
REMARK    8  A    between atoms: N_20  and  C_21
REMARK    9  A    between atoms: C_21  and  C_22
REMARK   10  A    between atoms: C_22  and  O_23
REMARK                            x       y       z     vdW  Elec       q    Type
REMARK                         _______ _______ _______ _____ _____    ______ ____
ROOT
ATOM      9  C   UNL     1      -2.947   3.025  24.120  0.00  0.00    +0.027 C 
ATOM     10  C   UNL     1      -2.438   3.382  24.663  0.00  0.00    +0.005 C 
ATOM     11  C   UNL     1      -1.722   3.020  24.858  0.00  0.00    +0.006 C 
ATOM     15  C   UNL     1      -1.516   2.301  24.509  0.00  0.00    +0.037 C 
ATOM     27  C   UNL     1      -2.026   1.945  23.966  0.00  0.00    -0.034 C 
ATOM     28  C   UNL     1      -2.740   2.307  23.773  0.00  0.00    -0.048 C 
ATOM     29  C   UNL     1      -3.250   1.950  23.230  0.00  0.00    +0.026 C 
ENDROOT
BRANCH  11  12
ATOM     12  C   UNL     1      -1.213   3.376  25.400  0.00  0.00    +0.000 C 
ATOM     13  C   UNL     1      -1.318   3.249  26.209  0.00  0.00    +0.000 C 
ATOM     14  C   UNL     1      -0.600   3.860  25.134  0.00  0.00    +0.000 C 
ENDBRANCH  11  12
BRANCH   9   8
ATOM      8  C   UNL     1      -3.663   3.388  23.927  0.00  0.00    +0.091 C 
BRANCH   8   7
ATOM      4  C   UNL     1      -5.223   3.265  25.378  0.00  0.00    +0.226 A 
ATOM      5  N   UNL     1      -5.033   4.068  25.416  0.00  0.00    -0.112 NA
ATOM      6  N   UNL     1      -4.425   4.211  24.876  0.00  0.00    -0.112 NA
ATOM      7  C   UNL     1      -4.239   3.498  24.506  0.00  0.00    +0.226 A 
ATOM     30  O   UNL     1      -4.733   2.914  24.816  0.00  0.00    -0.423 OA
BRANCH   4   3
ATOM      3  C   UNL     1      -5.801   2.883  25.824  0.00  0.00    +0.087 C 
BRANCH   3   2
ATOM      1  C   UNL     1      -6.345   1.668  26.345  0.00  0.00    +0.001 C 
ATOM      2  C   UNL     1      -5.861   2.060  25.805  0.00  0.00    +0.010 C 
ENDBRANCH   3   2
ENDBRANCH   4   3
ENDBRANCH   8   7
ENDBRANCH   9   8
BRANCH  15  16
ATOM     16  C   UNL     1      -0.801   1.939  24.703  0.00  0.00    +0.076 C 
BRANCH  16  17
ATOM     17  N   UNL     1      -0.742   1.115  24.704  0.00  0.00    -0.270 NA
ATOM     18  C   UNL     1      -0.397   0.726  24.065  0.00  0.00    +0.090 C 
ATOM     19  C   UNL     1      -0.338  -0.097  24.066  0.00  0.00    +0.090 C 
ATOM     20  N   UNL     1      -0.625  -0.530  24.708  0.00  0.00    -0.268 NA
ATOM     25  C   UNL     1      -0.970  -0.140  25.347  0.00  0.00    +0.090 C 
ATOM     26  C   UNL     1      -1.029   0.683  25.345  0.00  0.00    +0.090 C 
BRANCH  20  21
ATOM     21  C   UNL     1      -0.565  -1.353  24.709  0.00  0.00    +0.105 C 
BRANCH  21  22
ATOM     22  C   UNL     1      -1.239  -1.816  24.817  0.00  0.00    +0.160 C 
BRANCH  22  23
ATOM     23  O   UNL     1      -1.284  -2.565  24.474  0.00  0.00    -0.350 OA
ATOM     24  C   UNL     1      -2.012  -2.952  24.423  0.00  0.00    +0.174 C 
ENDBRANCH  22  23
ENDBRANCH  21  22
ENDBRANCH  20  21
ENDBRANCH  16  17
ENDBRANCH  15  16
TORSDOF 10
ENDMDL
MODEL 3
REMARK VINA RESULT:      -9.0      0.972      5.000
REMARK  Name = 
REMARK  10 active torsions:
REMARK  status: ('A' for Active; 'I' for Inactive)
REMARK    1  A    between atoms: C_2  and  C_3
REMARK    2  A    between atoms: C_3  and  C_4
REMARK    3  A    between atoms: C_7  and  C_8
REMARK    4  A    between atoms: C_8  and  C_9
REMARK    5  A    between atoms: C_11  and  C_12
REMARK    6  A    between atoms: C_15  and  C_16
REMARK    7  A    between atoms: C_16  and  N_17
REMARK    8  A    between atoms: N_20  and  C_21
REMARK    9  A    between atoms: C_21  and  C_22
REMARK   10  A    between atoms: C_22  and  O_23
REMARK                            x       y       z     vdW  Elec       q    Type
REMARK                         _______ _______ _______ _____ _____    ______ ____
ROOT
ATOM      9  C   UNL     1      -4.107   0.519  23.955  0.00  0.00    +0.027 C 
ATOM     10  C   UNL     1      -4.776   0.595  24.433  0.00  0.00    +0.005 C 
ATOM     11  C   UNL     1      -4.906   1.294  24.853  0.00  0.00    +0.006 C 
ATOM     15  C   UNL     1      -4.368   1.916  24.794  0.00  0.00    +0.037 C 
ATOM     27  C   UNL     1      -3.699   1.839  24.316  0.00  0.00    -0.034 C 
ATOM     28  C   UNL     1      -3.569   1.141  23.897  0.00  0.00    -0.048 C 
ATOM     29  C   UNL     1      -2.901   1.064  23.419  0.00  0.00    +0.026 C 
ENDROOT
BRANCH  11  12
ATOM     12  C   UNL     1      -5.574   1.370  25.330  0.00  0.00    +0.000 C 
ATOM     13  C   UNL     1      -6.268   1.692  25.021  0.00  0.00    +0.000 C 
ATOM     14  C   UNL     1      -5.549   1.124  26.117  0.00  0.00    +0.000 C 
ENDBRANCH  11  12
BRANCH   9   8
ATOM      8  C   UNL     1      -3.978  -0.180  23.536  0.00  0.00    +0.091 C 
BRANCH   8   7
ATOM      4  C   UNL     1      -3.200  -1.843  24.627  0.00  0.00    +0.226 A 
ATOM      5  N   UNL     1      -3.981  -2.082  24.506  0.00  0.00    -0.112 NA
ATOM      6  N   UNL     1      -4.367  -1.489  24.083  0.00  0.00    -0.112 NA
ATOM      7  C   UNL     1      -3.826  -0.882  23.942  0.00  0.00    +0.226 A 
ATOM     30  O   UNL     1      -3.105  -1.101  24.278  0.00  0.00    -0.423 OA
BRANCH   4   3
ATOM      3  C   UNL     1      -2.619  -2.269  25.025  0.00  0.00    +0.087 C 
BRANCH   3   2
ATOM      1  C   UNL     1      -1.217  -2.540  25.104  0.00  0.00    +0.001 C 
ATOM      2  C   UNL     1      -1.901  -2.435  24.654  0.00  0.00    +0.010 C 
ENDBRANCH   3   2
ENDBRANCH   4   3
ENDBRANCH   8   7
ENDBRANCH   9   8
BRANCH  15  16
ATOM     16  C   UNL     1      -4.497   2.615  25.213  0.00  0.00    +0.076 C 
BRANCH  16  17
ATOM     17  N   UNL     1      -3.899   3.182  25.264  0.00  0.00    -0.270 NA
ATOM     18  C   UNL     1      -3.841   3.772  24.691  0.00  0.00    +0.090 C 
ATOM     19  C   UNL     1      -3.243   4.339  24.743  0.00  0.00    +0.090 C 
ATOM     20  N   UNL     1      -2.706   4.316  25.369  0.00  0.00    -0.268 NA
ATOM     25  C   UNL     1      -2.765   3.726  25.942  0.00  0.00    +0.090 C 
ATOM     26  C   UNL     1      -3.363   3.158  25.890  0.00  0.00    +0.090 C 
BRANCH  20  21
ATOM     21  C   UNL     1      -2.109   4.883  25.420  0.00  0.00    +0.105 C 
BRANCH  21  22
ATOM     22  C   UNL     1      -1.396   4.771  25.020  0.00  0.00    +0.160 C 
BRANCH  22  23
ATOM     23  O   UNL     1      -0.836   5.376  24.999  0.00  0.00    -0.350 OA
ATOM     24  C   UNL     1      -0.183   5.316  24.498  0.00  0.00    +0.174 C 
ENDBRANCH  22  23
ENDBRANCH  21  22
ENDBRANCH  20  21
ENDBRANCH  16  17
ENDBRANCH  15  16
TORSDOF 10
ENDMDL
MODEL 4
REMARK VINA RESULT:      -9.0      2.252      3.212
REMARK  Name = 
REMARK  10 active torsions:
REMARK  status: ('A' for Active; 'I' for Inactive)
REMARK    1  A    between atoms: C_2  and  C_3
REMARK    2  A    between atoms: C_3  and  C_4
REMARK    3  A    between atoms: C_7  and  C_8
REMARK    4  A    between atoms: C_8  and  C_9
REMARK    5  A    between atoms: C_11  and  C_12
REMARK    6  A    between atoms: C_15  and  C_16
REMARK    7  A    between atoms: C_16  and  N_17
REMARK    8  A    between atoms: N_20  and  C_21
REMARK    9  A    between atoms: C_21  and  C_22
REMARK   10  A    between atoms: C_22  and  O_23
REMARK                            x       y       z     vdW  Elec       q    Type
REMARK                         _______ _______ _______ _____ _____    ______ ____
ROOT
ATOM      9  C   UNL     1      -3.907   0.757  24.219  0.00  0.00    +0.027 C 
ATOM     10  C   UNL     1      -4.044   0.158  24.770  0.00  0.00    +0.005 C 
ATOM     11  C   UNL     1      -3.452  -0.394  24.935  0.00  0.00    +0.006 C 
ATOM     15  C   UNL     1      -2.725  -0.347  24.549  0.00  0.00    +0.037 C 
ATOM     27  C   UNL     1      -2.588   0.253  23.998  0.00  0.00    -0.034 C 
ATOM     28  C   UNL     1      -3.179   0.804  23.833  0.00  0.00    -0.048 C 
ATOM     29  C   UNL     1      -3.043   1.403  23.282  0.00  0.00    +0.026 C 
ENDROOT
BRANCH  11  12
ATOM     12  C   UNL     1      -3.589  -0.992  25.485  0.00  0.00    +0.000 C 
ATOM     13  C   UNL     1      -3.449  -0.856  26.287  0.00  0.00    +0.000 C 
ATOM     14  C   UNL     1      -3.866  -1.728  25.235  0.00  0.00    +0.000 C 
ENDBRANCH  11  12
BRANCH   9   8
ATOM      8  C   UNL     1      -4.498   1.309  24.055  0.00  0.00    +0.091 C 
BRANCH   8   7
ATOM      4  C   UNL     1      -4.724   2.871  25.492  0.00  0.00    +0.226 A 
ATOM      5  N   UNL     1      -5.453   2.489  25.556  0.00  0.00    -0.112 NA
ATOM      6  N   UNL     1      -5.457   1.857  25.025  0.00  0.00    -0.112 NA
ATOM      7  C   UNL     1      -4.731   1.848  24.633  0.00  0.00    +0.226 A 
ATOM     30  O   UNL     1      -4.278   2.475  24.922  0.00  0.00    -0.423 OA
BRANCH   4   3
ATOM      3  C   UNL     1      -4.485   3.532  25.921  0.00  0.00    +0.087 C 
BRANCH   3   2
ATOM      1  C   UNL     1      -3.368   4.297  26.380  0.00  0.00    +0.001 C 
ATOM      2  C   UNL     1      -3.742   3.867  25.785  0.00  0.00    +0.010 C 
ENDBRANCH   3   2
ENDBRANCH   4   3
ENDBRANCH   8   7
ENDBRANCH   9   8
BRANCH  15  16
ATOM     16  C   UNL     1      -2.134  -0.898  24.713  0.00  0.00    +0.076 C 
BRANCH  16  17
ATOM     17  N   UNL     1      -1.361  -0.764  24.457  0.00  0.00    -0.270 NA
ATOM     18  C   UNL     1      -0.884  -0.219  24.852  0.00  0.00    +0.090 C 
ATOM     19  C   UNL     1      -0.111  -0.085  24.595  0.00  0.00    +0.090 C 
ATOM     20  N   UNL     1       0.184  -0.497  23.943  0.00  0.00    -0.268 NA
ATOM     25  C   UNL     1      -0.293  -1.041  23.549  0.00  0.00    +0.090 C 
ATOM     26  C   UNL     1      -1.066  -1.175  23.805  0.00  0.00    +0.090 C 
BRANCH  20  21
ATOM     21  C   UNL     1       0.957  -0.362  23.688  0.00  0.00    +0.105 C 
BRANCH  21  22
ATOM     22  C   UNL     1       1.096  -0.058  22.933  0.00  0.00    +0.160 C 
BRANCH  22  23
ATOM     23  O   UNL     1       1.810   0.320  22.766  0.00  0.00    -0.350 OA
ATOM     24  C   UNL     1       2.319   0.007  22.197  0.00  0.00    +0.174 C 
ENDBRANCH  22  23
ENDBRANCH  21  22
ENDBRANCH  20  21
ENDBRANCH  16  17
ENDBRANCH  15  16
TORSDOF 10
ENDMDL
MODEL 5
REMARK VINA RESULT:      -8.8      2.819      4.079
REMARK  Name = 
REMARK  10 active torsions:
REMARK  status: ('A' for Active; 'I' for Inactive)
REMARK    1  A    between atoms: C_2  and  C_3
REMARK    2  A    between atoms: C_3  and  C_4
REMARK    3  A    between atoms: C_7  and  C_8
REMARK    4  A    between atoms: C_8  and  C_9
REMARK    5  A    between atoms: C_11  and  C_12
REMARK    6  A    between atoms: C_15  and  C_16
REMARK    7  A    between atoms: C_16  and  N_17
REMARK    8  A    between atoms: N_20  and  C_21
REMARK    9  A    between atoms: C_21  and  C_22
REMARK   10  A    between atoms: C_22  and  O_23
REMARK                            x       y       z     vdW  Elec       q    Type
REMARK                         _______ _______ _______ _____ _____    ______ ____
ROOT
ATOM      9  C   UNL     1      -3.232   0.670  24.108  0.00  0.00    +0.027 C 
ATOM     10  C   UNL     1      -3.149   0.073  24.672  0.00  0.00    +0.005 C 
ATOM     11  C   UNL     1      -2.396  -0.195  24.882  0.00  0.00    +0.006 C 
ATOM     15  C   UNL     1      -1.728   0.135  24.527  0.00  0.00    +0.037 C 
ATOM     27  C   UNL     1      -1.812   0.731  23.963  0.00  0.00    -0.034 C 
ATOM     28  C   UNL     1      -2.563   0.998  23.754  0.00  0.00    -0.048 C 
ATOM     29  C   UNL     1      -2.647   1.595  23.190  0.00  0.00    +0.026 C 
ENDROOT
BRANCH  11  12
ATOM     12  C   UNL     1      -2.313  -0.791  25.445  0.00  0.00    +0.000 C 
ATOM     13  C   UNL     1      -2.449  -1.578  25.237  0.00  0.00    +0.000 C 
ATOM     14  C   UNL     1      -2.094  -0.601  26.218  0.00  0.00    +0.000 C 
ENDBRANCH  11  12
BRANCH   9   8
ATOM      8  C   UNL     1      -3.984   0.937  23.899  0.00  0.00    +0.091 C 
BRANCH   8   7
ATOM      4  C   UNL     1      -5.088   2.084  25.322  0.00  0.00    +0.226 A 
ATOM      5  N   UNL     1      -5.441   1.343  25.406  0.00  0.00    -0.112 NA
ATOM      6  N   UNL     1      -5.071   0.823  24.883  0.00  0.00    -0.112 NA
ATOM      7  C   UNL     1      -4.488   1.242  24.476  0.00  0.00    +0.226 A 
ATOM     30  O   UNL     1      -4.499   2.022  24.747  0.00  0.00    -0.423 OA
BRANCH   4   3
ATOM      3  C   UNL     1      -5.288   2.766  25.739  0.00  0.00    +0.087 C 
BRANCH   3   2
ATOM      1  C   UNL     1      -5.573   4.167  25.733  0.00  0.00    +0.001 C 
ATOM      2  C   UNL     1      -5.243   3.503  25.370  0.00  0.00    +0.010 C 
ENDBRANCH   3   2
ENDBRANCH   4   3
ENDBRANCH   8   7
ENDBRANCH   9   8
BRANCH  15  16
ATOM     16  C   UNL     1      -0.976  -0.132  24.736  0.00  0.00    +0.076 C 
BRANCH  16  17
ATOM     17  N   UNL     1      -0.341  -0.026  24.220  0.00  0.00    -0.270 NA
ATOM     18  C   UNL     1       0.085   0.680  24.231  0.00  0.00    +0.090 C 
ATOM     19  C   UNL     1       0.720   0.786  23.714  0.00  0.00    +0.090 C 
ATOM     20  N   UNL     1       0.927   0.186  23.187  0.00  0.00    -0.268 NA
ATOM     25  C   UNL     1       0.500  -0.519  23.176  0.00  0.00    +0.090 C 
ATOM     26  C   UNL     1      -0.135  -0.626  23.693  0.00  0.00    +0.090 C 
BRANCH  20  21
ATOM     21  C   UNL     1       1.562   0.293  22.670  0.00  0.00    +0.105 C 
BRANCH  21  22
ATOM     22  C   UNL     1       2.334   0.294  22.959  0.00  0.00    +0.160 C 
BRANCH  22  23
ATOM     23  O   UNL     1       2.971   0.276  22.435  0.00  0.00    -0.350 OA
ATOM     24  C   UNL     1       3.679   0.652  22.633  0.00  0.00    +0.174 C 
ENDBRANCH  22  23
ENDBRANCH  21  22
ENDBRANCH  20  21
ENDBRANCH  16  17
ENDBRANCH  15  16
TORSDOF 10
ENDMDL
MODEL 6
REMARK VINA RESULT:      -8.5      2.381      6.125
REMARK  Name = 
REMARK  10 active torsions:
REMARK  status: ('A' for Active; 'I' for Inactive)
REMARK    1  A    between atoms: C_2  and  C_3
REMARK    2  A    between atoms: C_3  and  C_4
REMARK    3  A    between atoms: C_7  and  C_8
REMARK    4  A    between atoms: C_8  and  C_9
REMARK    5  A    between atoms: C_11  and  C_12
REMARK    6  A    between atoms: C_15  and  C_16
REMARK    7  A    between atoms: C_16  and  N_17
REMARK    8  A    between atoms: N_20  and  C_21
REMARK    9  A    between atoms: C_21  and  C_22
REMARK   10  A    between atoms: C_22  and  O_23
REMARK                            x       y       z     vdW  Elec       q    Type
REMARK                         _______ _______ _______ _____ _____    ______ ____
ROOT
ATOM      9  C   UNL     1      -0.719  -0.907  25.027  0.00  0.00    +0.027 C 
ATOM     10  C   UNL     1      -0.308  -0.840  24.315  0.00  0.00    +0.005 C 
ATOM     11  C   UNL     1      -0.085  -0.095  24.036  0.00  0.00    +0.006 C 
ATOM     15  C   UNL     1      -0.274   0.580  24.469  0.00  0.00    +0.037 C 
ATOM     27  C   UNL     1      -0.686   0.513  25.182  0.00  0.00    -0.034 C 
ATOM     28  C   UNL     1      -0.908  -0.230  25.460  0.00  0.00    -0.048 C 
ATOM     29  C   UNL     1      -1.319  -0.299  26.172  0.00  0.00    +0.026 C 
ENDROOT
BRANCH  11  12
ATOM     12  C   UNL     1       0.325  -0.028  23.324  0.00  0.00    +0.000 C 
ATOM     13  C   UNL     1       1.150  -0.001  23.325  0.00  0.00    +0.000 C 
ATOM     14  C   UNL     1      -0.087   0.013  22.611  0.00  0.00    +0.000 C 
ENDBRANCH  11  12
BRANCH   9   8
ATOM      8  C   UNL     1      -0.941  -1.651  25.306  0.00  0.00    +0.091 C 
BRANCH   8   7
ATOM      4  C   UNL     1      -2.685  -2.540  24.454  0.00  0.00    +0.226 A 
ATOM      5  N   UNL     1      -2.089  -2.991  24.103  0.00  0.00    -0.112 NA
ATOM      6  N   UNL     1      -1.363  -2.713  24.380  0.00  0.00    -0.112 NA
ATOM      7  C   UNL     1      -1.510  -2.090  24.901  0.00  0.00    +0.226 A 
ATOM     30  O   UNL     1      -2.327  -1.984  24.947  0.00  0.00    -0.423 OA
BRANCH   4   3
ATOM      3  C   UNL     1      -3.495  -2.631  24.333  0.00  0.00    +0.087 C 
BRANCH   3   2
ATOM      1  C   UNL     1      -4.716  -2.169  23.750  0.00  0.00    +0.001 C 
ATOM      2  C   UNL     1      -3.919  -2.051  23.926  0.00  0.00    +0.010 C 
ENDBRANCH   3   2
ENDBRANCH   4   3
ENDBRANCH   8   7
ENDBRANCH   9   8
BRANCH  15  16
ATOM     16  C   UNL     1      -0.052   1.325  24.191  0.00  0.00    +0.076 C 
BRANCH  16  17
ATOM     17  N   UNL     1      -0.438   2.001  24.465  0.00  0.00    -0.270 NA
ATOM     18  C   UNL     1      -0.129   2.421  25.104  0.00  0.00    +0.090 C 
ATOM     19  C   UNL     1      -0.516   3.097  25.378  0.00  0.00    +0.090 C 
ATOM     20  N   UNL     1      -1.211   3.352  25.012  0.00  0.00    -0.268 NA
ATOM     25  C   UNL     1      -1.519   2.931  24.374  0.00  0.00    +0.090 C 
ATOM     26  C   UNL     1      -1.133   2.255  24.100  0.00  0.00    +0.090 C 
BRANCH  20  21
ATOM     21  C   UNL     1      -1.596   4.027  25.287  0.00  0.00    +0.105 C 
BRANCH  21  22
ATOM     22  C   UNL     1      -2.339   3.966  25.641  0.00  0.00    +0.160 C 
BRANCH  22  23
ATOM     23  O   UNL     1      -2.658   4.609  26.045  0.00  0.00    -0.350 OA
ATOM     24  C   UNL     1      -3.384   4.535  26.431  0.00  0.00    +0.174 C 
ENDBRANCH  22  23
ENDBRANCH  21  22
ENDBRANCH  20  21
ENDBRANCH  16  17
ENDBRANCH  15  16
TORSDOF 10
ENDMDL
MODEL 7
REMARK VINA RESULT:      -8.5      2.346      4.841
REMARK  Name = 
REMARK  10 active torsions:
REMARK  status: ('A' for Active; 'I' for Inactive)
REMARK    1  A    between atoms: C_2  and  C_3
REMARK    2  A    between atoms: C_3  and  C_4
REMARK    3  A    between atoms: C_7  and  C_8
REMARK    4  A    between atoms: C_8  and  C_9
REMARK    5  A    between atoms: C_11  and  C_12
REMARK    6  A    between atoms: C_15  and  C_16
REMARK    7  A    between atoms: C_16  and  N_17
REMARK    8  A    between atoms: N_20  and  C_21
REMARK    9  A    between atoms: C_21  and  C_22
REMARK   10  A    between atoms: C_22  and  O_23
REMARK                            x       y       z     vdW  Elec       q    Type
REMARK                         _______ _______ _______ _____ _____    ______ ____
ROOT
ATOM      9  C   UNL     1      -1.826   0.020  25.096  0.00  0.00    +0.027 C 
ATOM     10  C   UNL     1      -2.252  -0.665  24.922  0.00  0.00    +0.005 C 
ATOM     11  C   UNL     1      -3.063  -0.621  24.776  0.00  0.00    +0.006 C 
ATOM     15  C   UNL     1      -3.448   0.109  24.803  0.00  0.00    +0.037 C 
ATOM     27  C   UNL     1      -3.022   0.794  24.977  0.00  0.00    -0.034 C 
ATOM     28  C   UNL     1      -2.212   0.749  25.123  0.00  0.00    -0.048 C 
ATOM     29  C   UNL     1      -1.785   1.434  25.297  0.00  0.00    +0.026 C 
ENDROOT
BRANCH  11  12
ATOM     12  C   UNL     1      -3.489  -1.305  24.602  0.00  0.00    +0.000 C 
ATOM     13  C   UNL     1      -3.688  -1.832  25.206  0.00  0.00    +0.000 C 
ATOM     14  C   UNL     1      -3.716  -1.464  23.825  0.00  0.00    +0.000 C 
ENDBRANCH  11  12
BRANCH   9   8
ATOM      8  C   UNL     1      -1.015  -0.025  25.242  0.00  0.00    +0.091 C 
BRANCH   8   7
ATOM      4  C   UNL     1       0.304  -0.369  23.600  0.00  0.00    +0.226 A 
ATOM      5  N   UNL     1       0.251  -1.127  23.924  0.00  0.00    -0.112 NA
ATOM      6  N   UNL     1      -0.250  -1.090  24.579  0.00  0.00    -0.112 NA
ATOM      7  C   UNL     1      -0.506  -0.310  24.660  0.00  0.00    +0.226 A 
ATOM     30  O   UNL     1      -0.164   0.135  24.055  0.00  0.00    -0.423 OA
BRANCH   4   3
ATOM      3  C   UNL     1       0.747  -0.155  22.939  0.00  0.00    +0.087 C 
BRANCH   3   2
ATOM      1  C   UNL     1       2.022   0.061  22.329  0.00  0.00    +0.001 C 
ATOM      2  C   UNL     1       1.563  -0.047  23.006  0.00  0.00    +0.010 C 
ENDBRANCH   3   2
ENDBRANCH   4   3
ENDBRANCH   8   7
ENDBRANCH   9   8
BRANCH  15  16
ATOM     16  C   UNL     1      -4.258   0.154  24.657  0.00  0.00    +0.076 C 
BRANCH  16  17
ATOM     17  N   UNL     1      -4.672   0.846  24.833  0.00  0.00    -0.270 NA
ATOM     18  C   UNL     1      -4.676   1.472  24.297  0.00  0.00    +0.090 C 
ATOM     19  C   UNL     1      -5.090   2.164  24.473  0.00  0.00    +0.090 C 
ATOM     20  N   UNL     1      -5.500   2.228  25.187  0.00  0.00    -0.268 NA
ATOM     25  C   UNL     1      -5.497   1.601  25.722  0.00  0.00    +0.090 C 
ATOM     26  C   UNL     1      -5.082   0.909  25.546  0.00  0.00    +0.090 C 
BRANCH  20  21
ATOM     21  C   UNL     1      -5.914   2.920  25.362  0.00  0.00    +0.105 C 
BRANCH  21  22
ATOM     22  C   UNL     1      -5.504   3.620  25.511  0.00  0.00    +0.160 C 
BRANCH  22  23
ATOM     23  O   UNL     1      -5.889   4.254  25.873  0.00  0.00    -0.350 OA
ATOM     24  C   UNL     1      -5.866   5.003  25.526  0.00  0.00    +0.174 C 
ENDBRANCH  22  23
ENDBRANCH  21  22
ENDBRANCH  20  21
ENDBRANCH  16  17
ENDBRANCH  15  16
TORSDOF 10
ENDMDL
