REMARK  Name = 
REMARK  5 active torsions:
REMARK  status: ('A' for Active; 'I' for Inactive)
REMARK    1  A    between atoms: C_2  and  C_4
REMARK    2  A    between atoms: C_4  and  C_5
REMARK    3  A    between atoms: C_5  and  C_6
REMARK    4  A    between atoms: C_13  and  C_14
REMARK    5  A    between atoms: C_16  and  C_19
REMARK                            x       y       z     vdW  Elec       q    Type
REMARK                         _______ _______ _______ _____ _____    ______ ____
ROOT
ATOM      6  C   UNL     1      -2.534   1.165   0.000  0.00  0.00    +0.227 C 
ATOM      7  O   UNL     1      -2.199   0.411   0.000  0.00  0.00    -0.275 OA
ATOM      8  N   UNL     1      -2.049   1.832   0.000  0.00  0.00    -0.267 N 
ATOM      9  C   UNL     1      -2.385   2.586   0.000  0.00  0.00    +0.141 C 
ATOM     10  C   UNL     1      -1.900   3.253   0.000  0.00  0.00    +0.094 A 
ATOM     11  C   UNL     1      -1.079   3.167   0.000  0.00  0.00    +0.078 A 
ATOM     12  C   UNL     1      -0.744   2.413   0.000  0.00  0.00    +0.077 C 
ATOM     13  C   UNL     1      -1.229   1.746   0.000  0.00  0.00    +0.161 C 
ATOM     29  N   UNL     1      -0.744   3.921   0.000  0.00  0.00    -0.227 NA
ATOM     30  C   UNL     1      -1.357   4.473   0.000  0.00  0.00    +0.198 A 
ATOM     31  N   UNL     1      -2.071   4.060   0.000  0.00  0.00    -0.225 NA
ENDROOT
BRANCH  13  14
ATOM     14  C   UNL     1      -0.893   0.992   0.000  0.00  0.00    +0.255 A 
ATOM     15  N   UNL     1      -0.086   0.821   0.000  0.00  0.00    -0.189 NA
ATOM     16  C   UNL     1       0.000   0.000   0.000  0.00  0.00    +0.203 A 
ATOM     17  N   UNL     1      -0.754  -0.336   0.000  0.00  0.00    -0.056 NA
ATOM     18  O   UNL     1      -1.306   0.278   0.000  0.00  0.00    -0.335 OA
BRANCH  16  19
ATOM     19  C   UNL     1       0.715  -0.412   0.000  0.00  0.00    +0.039 A 
ATOM     20  C   UNL     1       1.429   0.000   0.000  0.00  0.00    +0.003 A 
ATOM     21  C   UNL     1       2.143  -0.412   0.000  0.00  0.00    +0.000 A 
ATOM     22  C   UNL     1       2.858   0.000   0.000  0.00  0.00    +0.000 A 
ATOM     23  C   UNL     1       3.572  -0.412   0.000  0.00  0.00    +0.000 A 
ATOM     24  C   UNL     1       3.572  -1.238   0.000  0.00  0.00    +0.000 A 
ATOM     25  C   UNL     1       2.858  -1.650   0.000  0.00  0.00    +0.000 A 
ATOM     26  C   UNL     1       2.143  -1.238   0.000  0.00  0.00    +0.000 A 
ATOM     27  C   UNL     1       1.429  -1.650   0.000  0.00  0.00    +0.000 A 
ATOM     28  C   UNL     1       0.715  -1.238   0.000  0.00  0.00    +0.003 A 
ENDBRANCH  16  19
ENDBRANCH  13  14
BRANCH   6   5
ATOM      5  C   UNL     1      -3.355   1.251   0.000  0.00  0.00    +0.097 C 
BRANCH   5   4
ATOM      4  C   UNL     1      -3.840   0.583   0.000  0.00  0.00    +0.124 C 
BRANCH   4   2
ATOM      1  O   UNL     1      -5.145   0.002   0.000  0.00  0.00    -0.246 OA
ATOM      2  C   UNL     1      -4.660   0.669   0.000  0.00  0.00    +0.365 C 
ATOM      3  O   UNL     1      -4.996   1.423   0.000  0.00  0.00    -0.246 OA
ENDBRANCH   4   2
ENDBRANCH   5   4
ENDBRANCH   6   5
TORSDOF 5
