MODEL 1
REMARK VINA RESULT:     -10.6      0.000      0.000
REMARK  Name = 
REMARK  4 active torsions:
REMARK  status: ('A' for Active; 'I' for Inactive)
REMARK    1  A    between atoms: O_2  and  C_3
REMARK    2  A    between atoms: C_6  and  C_9
REMARK    3  A    between atoms: C_12  and  C_14
REMARK    4  A    between atoms: N_18  and  C_19
REMARK                            x       y       z     vdW  Elec       q    Type
REMARK                         _______ _______ _______ _____ _____    ______ ____
ROOT
ATOM      9  C   UNL     1      -3.748   0.762  24.439  0.00  0.00    +0.205 A 
ATOM     10  N   UNL     1      -3.688   1.221  23.756  0.00  0.00    -0.056 NA
ATOM     11  O   UNL     1      -4.050   1.946  23.904  0.00  0.00    -0.336 OA
ATOM     12  C   UNL     1      -4.335   1.936  24.679  0.00  0.00    +0.251 A 
ATOM     13  N   UNL     1      -4.148   1.204  25.008  0.00  0.00    -0.190 NA
ENDROOT
BRANCH   9   6
ATOM      3  C   UNL     1      -2.881  -1.539  24.726  0.00  0.00    +0.225 A 
ATOM      4  N   UNL     1      -2.394  -0.892  24.883  0.00  0.00    -0.210 NA
ATOM      5  C   UNL     1      -2.683  -0.126  24.787  0.00  0.00    +0.105 A 
ATOM      6  C   UNL     1      -3.459  -0.005  24.534  0.00  0.00    +0.058 A 
ATOM      7  C   UNL     1      -3.946  -0.653  24.377  0.00  0.00    +0.010 A 
ATOM      8  C   UNL     1      -3.657  -1.420  24.473  0.00  0.00    +0.058 A 
BRANCH   3   2
ATOM      1  C   UNL     1      -1.887  -2.530  24.454  0.00  0.00    +0.254 C 
ATOM      2  O   UNL     1      -2.592  -2.305  24.821  0.00  0.00    -0.456 OA
ENDBRANCH   3   2
ENDBRANCH   9   6
BRANCH  12  14
ATOM     14  C   UNL     1      -4.736   2.550  25.056  0.00  0.00    +0.138 C 
ATOM     15  C   UNL     1      -5.544   2.576  25.216  0.00  0.00    +0.027 C 
ATOM     16  C   UNL     1      -5.706   3.290  25.598  0.00  0.00    +0.019 C 
ATOM     17  C   UNL     1      -4.997   3.704  25.673  0.00  0.00    +0.072 C 
ATOM     18  N   UNL     1      -4.397   3.248  25.339  0.00  0.00    -0.268 NA
BRANCH  18  19
ATOM     19  C   UNL     1      -3.599   3.452  25.293  0.00  0.00    +0.061 C 
ATOM     20  C   UNL     1      -3.097   3.289  25.927  0.00  0.00    +0.033 C 
ATOM     21  C   UNL     1      -2.298   3.493  25.883  0.00  0.00    +0.074 C 
ATOM     22  N   UNL     1      -2.002   3.859  25.204  0.00  0.00    -0.271 NA
ATOM     23  C   UNL     1      -1.204   4.062  25.160  0.00  0.00    +0.090 C 
ATOM     24  C   UNL     1      -2.505   4.021  24.571  0.00  0.00    +0.074 C 
ATOM     25  C   UNL     1      -3.304   3.818  24.616  0.00  0.00    +0.033 C 
ENDBRANCH  18  19
ENDBRANCH  12  14
TORSDOF 4
ENDMDL
MODEL 2
REMARK VINA RESULT:     -10.2      0.990      2.232
REMARK  Name = 
REMARK  4 active torsions:
REMARK  status: ('A' for Active; 'I' for Inactive)
REMARK    1  A    between atoms: O_2  and  C_3
REMARK    2  A    between atoms: C_6  and  C_9
REMARK    3  A    between atoms: C_12  and  C_14
REMARK    4  A    between atoms: N_18  and  C_19
REMARK                            x       y       z     vdW  Elec       q    Type
REMARK                         _______ _______ _______ _____ _____    ______ ____
ROOT
ATOM      9  C   UNL     1      -2.561   0.902  24.482  0.00  0.00    +0.205 A 
ATOM     10  N   UNL     1      -2.633   1.217  23.723  0.00  0.00    -0.056 NA
ATOM     11  O   UNL     1      -2.336   1.986  23.737  0.00  0.00    -0.336 OA
ATOM     12  C   UNL     1      -2.079   2.146  24.506  0.00  0.00    +0.251 A 
ATOM     13  N   UNL     1      -2.219   1.476  24.965  0.00  0.00    -0.190 NA
ENDROOT
BRANCH   9   6
ATOM      3  C   UNL     1      -3.252  -1.369  25.185  0.00  0.00    +0.225 A 
ATOM      4  N   UNL     1      -2.456  -1.156  25.205  0.00  0.00    -0.210 NA
ATOM      5  C   UNL     1      -2.226  -0.399  24.971  0.00  0.00    +0.105 A 
ATOM      6  C   UNL     1      -2.792   0.145  24.716  0.00  0.00    +0.058 A 
ATOM      7  C   UNL     1      -3.589  -0.069  24.696  0.00  0.00    +0.010 A 
ATOM      8  C   UNL     1      -3.819  -0.826  24.930  0.00  0.00    +0.058 A 
BRANCH   3   2
ATOM      1  C   UNL     1      -3.436  -2.755  24.886  0.00  0.00    +0.254 C 
ATOM      2  O   UNL     1      -3.482  -2.126  25.419  0.00  0.00    -0.456 OA
ENDBRANCH   3   2
ENDBRANCH   9   6
BRANCH  12  14
ATOM     14  C   UNL     1      -1.742   2.852  24.766  0.00  0.00    +0.138 C 
ATOM     15  C   UNL     1      -0.937   3.032  24.774  0.00  0.00    +0.027 C 
ATOM     16  C   UNL     1      -0.850   3.795  25.078  0.00  0.00    +0.019 C 
ATOM     17  C   UNL     1      -1.601   4.085  25.258  0.00  0.00    +0.072 C 
ATOM     18  N   UNL     1      -2.152   3.503  25.066  0.00  0.00    -0.268 NA
BRANCH  18  19
ATOM     19  C   UNL     1      -2.970   3.560  25.156  0.00  0.00    +0.061 C 
ATOM     20  C   UNL     1      -3.316   3.392  25.886  0.00  0.00    +0.033 C 
ATOM     21  C   UNL     1      -4.135   3.448  25.977  0.00  0.00    +0.074 C 
ATOM     22  N   UNL     1      -4.606   3.673  25.338  0.00  0.00    -0.271 NA
ATOM     23  C   UNL     1      -5.424   3.730  25.430  0.00  0.00    +0.090 C 
ATOM     24  C   UNL     1      -4.260   3.841  24.609  0.00  0.00    +0.074 C 
ATOM     25  C   UNL     1      -3.442   3.784  24.518  0.00  0.00    +0.033 C 
ENDBRANCH  18  19
ENDBRANCH  12  14
TORSDOF 4
ENDMDL
MODEL 3
REMARK VINA RESULT:     -10.2      1.546      4.260
REMARK  Name = 
REMARK  4 active torsions:
REMARK  status: ('A' for Active; 'I' for Inactive)
REMARK    1  A    between atoms: O_2  and  C_3
REMARK    2  A    between atoms: C_6  and  C_9
REMARK    3  A    between atoms: C_12  and  C_14
REMARK    4  A    between atoms: N_18  and  C_19
REMARK                            x       y       z     vdW  Elec       q    Type
REMARK                         _______ _______ _______ _____ _____    ______ ____
ROOT
ATOM      9  C   UNL     1      -4.221   0.772  24.596  0.00  0.00    +0.205 A 
ATOM     10  N   UNL     1      -4.015   0.670  23.805  0.00  0.00    -0.056 NA
ATOM     11  O   UNL     1      -3.640  -0.060  23.731  0.00  0.00    -0.336 OA
ATOM     12  C   UNL     1      -3.615  -0.410  24.478  0.00  0.00    +0.251 A 
ATOM     13  N   UNL     1      -3.974   0.104  25.012  0.00  0.00    -0.190 NA
ENDROOT
BRANCH   9   6
ATOM      3  C   UNL     1      -5.380   2.738  25.556  0.00  0.00    +0.225 A 
ATOM      4  N   UNL     1      -4.635   2.825  25.214  0.00  0.00    -0.210 NA
ATOM      5  C   UNL     1      -4.249   2.170  24.894  0.00  0.00    +0.105 A 
ATOM      6  C   UNL     1      -4.608   1.427  24.916  0.00  0.00    +0.058 A 
ATOM      7  C   UNL     1      -5.354   1.340  25.259  0.00  0.00    +0.010 A 
ATOM      8  C   UNL     1      -5.740   1.996  25.578  0.00  0.00    +0.058 A 
BRANCH   3   2
ATOM      1  C   UNL     1      -5.592   4.151  25.598  0.00  0.00    +0.254 C 
ATOM      2  O   UNL     1      -5.766   3.393  25.875  0.00  0.00    -0.456 OA
ENDBRANCH   3   2
ENDBRANCH   9   6
BRANCH  12  14
ATOM     14  C   UNL     1      -3.287  -1.146  24.658  0.00  0.00    +0.138 C 
ATOM     15  C   UNL     1      -3.693  -1.863  24.690  0.00  0.00    +0.027 C 
ATOM     16  C   UNL     1      -3.151  -2.453  24.888  0.00  0.00    +0.019 C 
ATOM     17  C   UNL     1      -2.412  -2.101  24.979  0.00  0.00    +0.072 C 
ATOM     18  N   UNL     1      -2.494  -1.293  24.836  0.00  0.00    -0.268 NA
BRANCH  18  19
ATOM     19  C   UNL     1      -1.893  -0.730  24.867  0.00  0.00    +0.061 C 
ATOM     20  C   UNL     1      -1.709  -0.362  25.583  0.00  0.00    +0.033 C 
ATOM     21  C   UNL     1      -1.107   0.201  25.614  0.00  0.00    +0.074 C 
ATOM     22  N   UNL     1      -0.689   0.398  24.929  0.00  0.00    -0.271 NA
ATOM     23  C   UNL     1      -0.088   0.961  24.961  0.00  0.00    +0.090 C 
ATOM     24  C   UNL     1      -0.874   0.030  24.214  0.00  0.00    +0.074 C 
ATOM     25  C   UNL     1      -1.476  -0.533  24.183  0.00  0.00    +0.033 C 
ENDBRANCH  18  19
ENDBRANCH  12  14
TORSDOF 4
ENDMDL
MODEL 4
REMARK VINA RESULT:     -10.2      1.308      2.575
REMARK  Name = 
REMARK  4 active torsions:
REMARK  status: ('A' for Active; 'I' for Inactive)
REMARK    1  A    between atoms: O_2  and  C_3
REMARK    2  A    between atoms: C_6  and  C_9
REMARK    3  A    between atoms: C_12  and  C_14
REMARK    4  A    between atoms: N_18  and  C_19
REMARK                            x       y       z     vdW  Elec       q    Type
REMARK                         _______ _______ _______ _____ _____    ______ ____
ROOT
ATOM      9  C   UNL     1      -1.578   1.500  24.404  0.00  0.00    +0.205 A 
ATOM     10  N   UNL     1      -1.854   1.790  23.682  0.00  0.00    -0.056 NA
ATOM     11  O   UNL     1      -1.864   2.613  23.724  0.00  0.00    -0.336 OA
ATOM     12  C   UNL     1      -1.593   2.833  24.473  0.00  0.00    +0.251 A 
ATOM     13  N   UNL     1      -1.417   2.145  24.892  0.00  0.00    -0.190 NA
ENDROOT
BRANCH   9   6
ATOM      3  C   UNL     1      -1.286  -0.885  24.999  0.00  0.00    +0.225 A 
ATOM      4  N   UNL     1      -0.647  -0.450  24.713  0.00  0.00    -0.210 NA
ATOM      5  C   UNL     1      -0.744   0.345  24.515  0.00  0.00    +0.105 A 
ATOM      6  C   UNL     1      -1.481   0.705  24.602  0.00  0.00    +0.058 A 
ATOM      7  C   UNL     1      -2.121   0.269  24.888  0.00  0.00    +0.010 A 
ATOM      8  C   UNL     1      -2.024  -0.525  25.086  0.00  0.00    +0.058 A 
BRANCH   3   2
ATOM      1  C   UNL     1      -1.543  -2.266  24.737  0.00  0.00    +0.254 C 
ATOM      2  O   UNL     1      -1.189  -1.679  25.197  0.00  0.00    -0.456 OA
ENDBRANCH   3   2
ENDBRANCH   9   6
BRANCH  12  14
ATOM     14  C   UNL     1      -1.513   3.605  24.751  0.00  0.00    +0.138 C 
ATOM     15  C   UNL     1      -0.816   4.046  24.766  0.00  0.00    +0.027 C 
ATOM     16  C   UNL     1      -0.990   4.786  25.088  0.00  0.00    +0.019 C 
ATOM     17  C   UNL     1      -1.794   4.802  25.271  0.00  0.00    +0.072 C 
ATOM     18  N   UNL     1      -2.118   4.073  25.063  0.00  0.00    -0.268 NA
BRANCH  18  19
ATOM     19  C   UNL     1      -2.907   3.848  25.151  0.00  0.00    +0.061 C 
ATOM     20  C   UNL     1      -3.175   3.563  25.878  0.00  0.00    +0.033 C 
ATOM     21  C   UNL     1      -3.964   3.338  25.967  0.00  0.00    +0.074 C 
ATOM     22  N   UNL     1      -4.485   3.399  25.329  0.00  0.00    -0.271 NA
ATOM     23  C   UNL     1      -5.273   3.174  25.418  0.00  0.00    +0.090 C 
ATOM     24  C   UNL     1      -4.216   3.684  24.603  0.00  0.00    +0.074 C 
ATOM     25  C   UNL     1      -3.427   3.909  24.515  0.00  0.00    +0.033 C 
ENDBRANCH  18  19
ENDBRANCH  12  14
TORSDOF 4
ENDMDL
MODEL 5
REMARK VINA RESULT:     -10.0      1.788      3.873
REMARK  Name = 
REMARK  4 active torsions:
REMARK  status: ('A' for Active; 'I' for Inactive)
REMARK    1  A    between atoms: O_2  and  C_3
REMARK    2  A    between atoms: C_6  and  C_9
REMARK    3  A    between atoms: C_12  and  C_14
REMARK    4  A    between atoms: N_18  and  C_19
REMARK                            x       y       z     vdW  Elec       q    Type
REMARK                         _______ _______ _______ _____ _____    ______ ____
ROOT
ATOM      9  C   UNL     1      -2.279   1.975  24.760  0.00  0.00    +0.205 A 
ATOM     10  N   UNL     1      -2.399   1.864  23.952  0.00  0.00    -0.056 NA
ATOM     11  O   UNL     1      -3.202   1.723  23.830  0.00  0.00    -0.336 OA
ATOM     12  C   UNL     1      -3.579   1.748  24.564  0.00  0.00    +0.251 A 
ATOM     13  N   UNL     1      -3.008   1.903  25.138  0.00  0.00    -0.190 NA
ENDROOT
BRANCH   9   6
ATOM      3  C   UNL     1      -0.111   2.443  25.858  0.00  0.00    +0.225 A 
ATOM      4  N   UNL     1      -0.267   1.691  25.559  0.00  0.00    -0.210 NA
ATOM      5  C   UNL     1      -0.990   1.535  25.193  0.00  0.00    +0.105 A 
ATOM      6  C   UNL     1      -1.556   2.131  25.126  0.00  0.00    +0.058 A 
ATOM      7  C   UNL     1      -1.399   2.885  25.425  0.00  0.00    +0.010 A 
ATOM      8  C   UNL     1      -0.676   3.041  25.791  0.00  0.00    +0.058 A 
BRANCH   3   2
ATOM      1  C   UNL     1       0.667   2.595  27.047  0.00  0.00    +0.254 C 
ATOM      2  O   UNL     1       0.612   2.599  26.224  0.00  0.00    -0.456 OA
ENDBRANCH   3   2
ENDBRANCH   9   6
BRANCH  12  14
ATOM     14  C   UNL     1      -4.385   1.635  24.699  0.00  0.00    +0.138 C 
ATOM     15  C   UNL     1      -4.956   2.228  24.749  0.00  0.00    +0.027 C 
ATOM     16  C   UNL     1      -5.686   1.868  24.887  0.00  0.00    +0.019 C 
ATOM     17  C   UNL     1      -5.565   1.053  24.923  0.00  0.00    +0.072 C 
ATOM     18  N   UNL     1      -4.762   0.908  24.806  0.00  0.00    -0.268 NA
BRANCH  18  19
ATOM     19  C   UNL     1      -4.398   0.168  24.798  0.00  0.00    +0.061 C 
ATOM     20  C   UNL     1      -4.307  -0.237  24.085  0.00  0.00    +0.033 C 
ATOM     21  C   UNL     1      -3.942  -0.978  24.076  0.00  0.00    +0.074 C 
ATOM     22  N   UNL     1      -3.669  -1.312  24.780  0.00  0.00    -0.271 NA
ATOM     23  C   UNL     1      -3.305  -2.052  24.770  0.00  0.00    +0.090 C 
ATOM     24  C   UNL     1      -3.760  -0.906  25.492  0.00  0.00    +0.074 C 
ATOM     25  C   UNL     1      -4.125  -0.166  25.500  0.00  0.00    +0.033 C 
ENDBRANCH  18  19
ENDBRANCH  12  14
TORSDOF 4
ENDMDL
MODEL 6
REMARK VINA RESULT:      -9.8      1.865      4.189
REMARK  Name = 
REMARK  4 active torsions:
REMARK  status: ('A' for Active; 'I' for Inactive)
REMARK    1  A    between atoms: O_2  and  C_3
REMARK    2  A    between atoms: C_6  and  C_9
REMARK    3  A    between atoms: C_12  and  C_14
REMARK    4  A    between atoms: N_18  and  C_19
REMARK                            x       y       z     vdW  Elec       q    Type
REMARK                         _______ _______ _______ _____ _____    ______ ____
ROOT
ATOM      9  C   UNL     1      -3.075   1.835  24.085  0.00  0.00    +0.205 A 
ATOM     10  N   UNL     1      -2.818   1.575  23.346  0.00  0.00    -0.056 NA
ATOM     11  O   UNL     1      -1.997   1.647  23.321  0.00  0.00    -0.336 OA
ATOM     12  C   UNL     1      -1.746   1.952  24.047  0.00  0.00    +0.251 A 
ATOM     13  N   UNL     1      -2.413   2.068  24.517  0.00  0.00    -0.190 NA
ENDROOT
BRANCH   9   6
ATOM      3  C   UNL     1      -5.423   1.904  24.866  0.00  0.00    +0.225 A 
ATOM      4  N   UNL     1      -5.056   2.593  24.601  0.00  0.00    -0.210 NA
ATOM      5  C   UNL     1      -4.274   2.570  24.340  0.00  0.00    +0.105 A 
ATOM      6  C   UNL     1      -3.858   1.858  24.345  0.00  0.00    +0.058 A 
ATOM      7  C   UNL     1      -4.225   1.168  24.611  0.00  0.00    +0.010 A 
ATOM      8  C   UNL     1      -5.007   1.191  24.872  0.00  0.00    +0.058 A 
BRANCH   3   2
ATOM      1  C   UNL     1      -6.370   2.014  25.931  0.00  0.00    +0.254 C 
ATOM      2  O   UNL     1      -6.205   1.927  25.127  0.00  0.00    -0.456 OA
ENDBRANCH   3   2
ENDBRANCH   9   6
BRANCH  12  14
ATOM     14  C   UNL     1      -0.966   2.112  24.261  0.00  0.00    +0.138 C 
ATOM     15  C   UNL     1      -0.592   2.845  24.217  0.00  0.00    +0.027 C 
ATOM     16  C   UNL     1       0.183   2.752  24.486  0.00  0.00    +0.019 C 
ATOM     17  C   UNL     1       0.287   1.961  24.696  0.00  0.00    +0.072 C 
ATOM     18  N   UNL     1      -0.423   1.565  24.557  0.00  0.00    -0.268 NA
BRANCH  18  19
ATOM     19  C   UNL     1      -0.566   0.764  24.690  0.00  0.00    +0.061 C 
ATOM     20  C   UNL     1      -0.418   0.215  24.091  0.00  0.00    +0.033 C 
ATOM     21  C   UNL     1      -0.562  -0.587  24.224  0.00  0.00    +0.074 C 
ATOM     22  N   UNL     1      -0.853  -0.840  24.954  0.00  0.00    -0.271 NA
ATOM     23  C   UNL     1      -0.996  -1.641  25.085  0.00  0.00    +0.090 C 
ATOM     24  C   UNL     1      -1.001  -0.291  25.551  0.00  0.00    +0.074 C 
ATOM     25  C   UNL     1      -0.857   0.511  25.419  0.00  0.00    +0.033 C 
ENDBRANCH  18  19
ENDBRANCH  12  14
TORSDOF 4
ENDMDL
MODEL 7
REMARK VINA RESULT:      -8.3     16.260     18.720
REMARK  Name = 
REMARK  4 active torsions:
REMARK  status: ('A' for Active; 'I' for Inactive)
REMARK    1  A    between atoms: O_2  and  C_3
REMARK    2  A    between atoms: C_6  and  C_9
REMARK    3  A    between atoms: C_12  and  C_14
REMARK    4  A    between atoms: N_18  and  C_19
REMARK                            x       y       z     vdW  Elec       q    Type
REMARK                         _______ _______ _______ _____ _____    ______ ____
ROOT
ATOM      9  C   UNL     1      12.046   7.480  19.716  0.00  0.00    +0.205 A 
ATOM     10  N   UNL     1      12.157   6.739  19.371  0.00  0.00    -0.056 NA
ATOM     11  O   UNL     1      12.577   6.845  18.670  0.00  0.00    -0.336 OA
ATOM     12  C   UNL     1      12.726   7.652  18.581  0.00  0.00    +0.251 A 
ATOM     13  N   UNL     1      12.397   8.043  19.228  0.00  0.00    -0.190 NA
ENDROOT
BRANCH   9   6
ATOM      3  C   UNL     1      10.865   7.931  21.844  0.00  0.00    +0.225 A 
ATOM      4  N   UNL     1      11.460   7.361  21.816  0.00  0.00    -0.210 NA
ATOM      5  C   UNL     1      11.853   7.210  21.106  0.00  0.00    +0.105 A 
ATOM      6  C   UNL     1      11.652   7.630  20.426  0.00  0.00    +0.058 A 
ATOM      7  C   UNL     1      11.057   8.201  20.454  0.00  0.00    +0.010 A 
ATOM      8  C   UNL     1      10.663   8.352  21.164  0.00  0.00    +0.058 A 
BRANCH   3   2
ATOM      1  C   UNL     1      10.656   8.756  22.993  0.00  0.00    +0.254 C 
ATOM      2  O   UNL     1      10.472   8.082  22.553  0.00  0.00    -0.456 OA
ENDBRANCH   3   2
ENDBRANCH   9   6
BRANCH  12  14
ATOM     14  C   UNL     1      13.131   8.004  17.954  0.00  0.00    +0.138 C 
ATOM     15  C   UNL     1      12.792   8.322  17.274  0.00  0.00    +0.027 C 
ATOM     16  C   UNL     1      13.400   8.613  16.798  0.00  0.00    +0.019 C 
ATOM     17  C   UNL     1      14.115   8.475  17.185  0.00  0.00    +0.072 C 
ATOM     18  N   UNL     1      13.950   8.098  17.900  0.00  0.00    -0.268 NA
BRANCH  18  19
ATOM     19  C   UNL     1      14.504   7.858  18.462  0.00  0.00    +0.061 C 
ATOM     20  C   UNL     1      14.804   7.089  18.440  0.00  0.00    +0.033 C 
ATOM     21  C   UNL     1      15.359   6.848  19.003  0.00  0.00    +0.074 C 
ATOM     22  N   UNL     1      15.612   7.375  19.585  0.00  0.00    -0.271 NA
ATOM     23  C   UNL     1      16.165   7.133  20.147  0.00  0.00    +0.090 C 
ATOM     24  C   UNL     1      15.311   8.142  19.606  0.00  0.00    +0.074 C 
ATOM     25  C   UNL     1      14.757   8.383  19.044  0.00  0.00    +0.033 C 
ENDBRANCH  18  19
ENDBRANCH  12  14
TORSDOF 4
ENDMDL
MODEL 8
REMARK VINA RESULT:      -8.2     16.128     18.369
REMARK  Name = 
REMARK  4 active torsions:
REMARK  status: ('A' for Active; 'I' for Inactive)
REMARK    1  A    between atoms: O_2  and  C_3
REMARK    2  A    between atoms: C_6  and  C_9
REMARK    3  A    between atoms: C_12  and  C_14
REMARK    4  A    between atoms: N_18  and  C_19
REMARK                            x       y       z     vdW  Elec       q    Type
REMARK                         _______ _______ _______ _____ _____    ______ ____
ROOT
ATOM      9  C   UNL     1      12.676   7.498  18.761  0.00  0.00    +0.205 A 
ATOM     10  N   UNL     1      12.432   6.746  18.995  0.00  0.00    -0.056 NA
ATOM     11  O   UNL     1      12.809   6.564  19.705  0.00  0.00    -0.336 OA
ATOM     12  C   UNL     1      13.288   7.205  19.910  0.00  0.00    +0.251 A 
ATOM     13  N   UNL     1      13.205   7.781  19.326  0.00  0.00    -0.190 NA
ENDROOT
BRANCH   9   6
ATOM      3  C   UNL     1      11.949   8.693  16.719  0.00  0.00    +0.225 A 
ATOM      4  N   UNL     1      12.657   8.271  16.719  0.00  0.00    -0.210 NA
ATOM      5  C   UNL     1      12.899   7.872  17.400  0.00  0.00    +0.105 A 
ATOM      6  C   UNL     1      12.434   7.896  18.080  0.00  0.00    +0.058 A 
ATOM      7  C   UNL     1      11.725   8.320  18.080  0.00  0.00    +0.010 A 
ATOM      8  C   UNL     1      11.482   8.718  17.399  0.00  0.00    +0.058 A 
BRANCH   3   2
ATOM      1  C   UNL     1      10.917   9.060  15.800  0.00  0.00    +0.254 C 
ATOM      2  O   UNL     1      11.707   9.092  16.039  0.00  0.00    -0.456 OA
ENDBRANCH   3   2
ENDBRANCH   9   6
BRANCH  12  14
ATOM     14  C   UNL     1      13.765   7.258  20.581  0.00  0.00    +0.138 C 
ATOM     15  C   UNL     1      14.576   7.113  20.612  0.00  0.00    +0.027 C 
ATOM     16  C   UNL     1      14.826   7.232  21.390  0.00  0.00    +0.019 C 
ATOM     17  C   UNL     1      14.168   7.449  21.839  0.00  0.00    +0.072 C 
ATOM     18  N   UNL     1      13.513   7.466  21.339  0.00  0.00    -0.268 NA
BRANCH  18  19
ATOM     19  C   UNL     1      12.740   7.657  21.557  0.00  0.00    +0.061 C 
ATOM     20  C   UNL     1      12.511   8.448  21.607  0.00  0.00    +0.033 C 
ATOM     21  C   UNL     1      11.738   8.640  21.825  0.00  0.00    +0.074 C 
ATOM     22  N   UNL     1      11.196   8.041  21.993  0.00  0.00    -0.271 NA
ATOM     23  C   UNL     1      10.424   8.232  22.211  0.00  0.00    +0.090 C 
ATOM     24  C   UNL     1      11.426   7.250  21.943  0.00  0.00    +0.074 C 
ATOM     25  C   UNL     1      12.199   7.059  21.725  0.00  0.00    +0.033 C 
ENDBRANCH  18  19
ENDBRANCH  12  14
TORSDOF 4
ENDMDL
MODEL 9
REMARK VINA RESULT:      -8.0     16.379     18.930
REMARK  Name = 
REMARK  4 active torsions:
REMARK  status: ('A' for Active; 'I' for Inactive)
REMARK    1  A    between atoms: O_2  and  C_3
REMARK    2  A    between atoms: C_6  and  C_9
REMARK    3  A    between atoms: C_12  and  C_14
REMARK    4  A    between atoms: N_18  and  C_19
REMARK                            x       y       z     vdW  Elec       q    Type
REMARK                         _______ _______ _______ _____ _____    ______ ____
ROOT
ATOM      9  C   UNL     1      12.512   7.399  20.298  0.00  0.00    +0.205 A 
ATOM     10  N   UNL     1      12.351   6.806  19.749  0.00  0.00    -0.056 NA
ATOM     11  O   UNL     1      13.068   6.542  19.439  0.00  0.00    -0.336 OA
ATOM     12  C   UNL     1      13.674   6.973  19.799  0.00  0.00    +0.251 A 
ATOM     13  N   UNL     1      13.330   7.502  20.329  0.00  0.00    -0.190 NA
ENDROOT
BRANCH   9   6
ATOM      3  C   UNL     1      10.838   8.651  21.623  0.00  0.00    +0.225 A 
ATOM      4  N   UNL     1      10.856   8.729  20.803  0.00  0.00    -0.210 NA
ATOM      5  C   UNL     1      11.414   8.312  20.361  0.00  0.00    +0.105 A 
ATOM      6  C   UNL     1      11.954   7.817  20.740  0.00  0.00    +0.058 A 
ATOM      7  C   UNL     1      11.936   7.739  21.562  0.00  0.00    +0.010 A 
ATOM      8  C   UNL     1      11.378   8.156  22.003  0.00  0.00    +0.058 A 
BRANCH   3   2
ATOM      1  C   UNL     1      10.340   9.094  22.888  0.00  0.00    +0.254 C 
ATOM      2  O   UNL     1      10.280   9.068  22.065  0.00  0.00    -0.456 OA
ENDBRANCH   3   2
ENDBRANCH   9   6
BRANCH  12  14
ATOM     14  C   UNL     1      14.481   6.888  19.651  0.00  0.00    +0.138 C 
ATOM     15  C   UNL     1      15.016   6.461  20.111  0.00  0.00    +0.027 C 
ATOM     16  C   UNL     1      15.761   6.525  19.761  0.00  0.00    +0.019 C 
ATOM     17  C   UNL     1      15.685   6.991  19.085  0.00  0.00    +0.072 C 
ATOM     18  N   UNL     1      14.895   7.216  19.017  0.00  0.00    -0.268 NA
BRANCH  18  19
ATOM     19  C   UNL     1      14.574   7.686  18.420  0.00  0.00    +0.061 C 
ATOM     20  C   UNL     1      14.266   7.334  17.740  0.00  0.00    +0.033 C 
ATOM     21  C   UNL     1      13.944   7.804  17.142  0.00  0.00    +0.074 C 
ATOM     22  N   UNL     1      13.929   8.625  17.225  0.00  0.00    -0.271 NA
ATOM     23  C   UNL     1      13.608   9.094  16.628  0.00  0.00    +0.090 C 
ATOM     24  C   UNL     1      14.237   8.976  17.905  0.00  0.00    +0.074 C 
ATOM     25  C   UNL     1      14.559   8.506  18.502  0.00  0.00    +0.033 C 
ENDBRANCH  18  19
ENDBRANCH  12  14
TORSDOF 4
ENDMDL
MODEL 10
REMARK VINA RESULT:      -8.0     16.387     18.432
REMARK  Name = 
REMARK  4 active torsions:
REMARK  status: ('A' for Active; 'I' for Inactive)
REMARK    1  A    between atoms: O_2  and  C_3
REMARK    2  A    between atoms: C_6  and  C_9
REMARK    3  A    between atoms: C_12  and  C_14
REMARK    4  A    between atoms: N_18  and  C_19
REMARK                            x       y       z     vdW  Elec       q    Type
REMARK                         _______ _______ _______ _____ _____    ______ ____
ROOT
ATOM      9  C   UNL     1      12.317   7.677  18.915  0.00  0.00    +0.205 A 
ATOM     10  N   UNL     1      12.372   6.901  19.190  0.00  0.00    -0.056 NA
ATOM     11  O   UNL     1      12.076   6.880  19.958  0.00  0.00    -0.336 OA
ATOM     12  C   UNL     1      11.837   7.645  20.160  0.00  0.00    +0.251 A 
ATOM     13  N   UNL     1      11.987   8.136  19.515  0.00  0.00    -0.190 NA
ENDROOT
BRANCH   9   6
ATOM      3  C   UNL     1      13.021   8.485  16.684  0.00  0.00    +0.225 A 
ATOM      4  N   UNL     1      12.219   8.419  16.864  0.00  0.00    -0.210 NA
ATOM      5  C   UNL     1      11.985   8.150  17.608  0.00  0.00    +0.105 A 
ATOM      6  C   UNL     1      12.552   7.946  18.172  0.00  0.00    +0.058 A 
ATOM      7  C   UNL     1      13.355   8.012  17.990  0.00  0.00    +0.010 A 
ATOM      8  C   UNL     1      13.589   8.281  17.247  0.00  0.00    +0.058 A 
BRANCH   3   2
ATOM      1  C   UNL     1      14.058   8.838  15.766  0.00  0.00    +0.254 C 
ATOM      2  O   UNL     1      13.256   8.754  15.940  0.00  0.00    -0.456 OA
ENDBRANCH   3   2
ENDBRANCH   9   6
BRANCH  12  14
ATOM     14  C   UNL     1      11.508   7.875  20.880  0.00  0.00    +0.138 C 
ATOM     15  C   UNL     1      10.703   7.905  21.058  0.00  0.00    +0.027 C 
ATOM     16  C   UNL     1      10.625   8.165  21.838  0.00  0.00    +0.019 C 
ATOM     17  C   UNL     1      11.381   8.295  22.141  0.00  0.00    +0.072 C 
ATOM     18  N   UNL     1      11.927   8.116  21.550  0.00  0.00    -0.268 NA
BRANCH  18  19
ATOM     19  C   UNL     1      12.748   8.168  21.615  0.00  0.00    +0.061 C 
ATOM     20  C   UNL     1      13.125   8.892  21.492  0.00  0.00    +0.033 C 
ATOM     21  C   UNL     1      13.946   8.945  21.556  0.00  0.00    +0.074 C 
ATOM     22  N   UNL     1      14.389   8.274  21.744  0.00  0.00    -0.271 NA
ATOM     23  C   UNL     1      15.210   8.328  21.808  0.00  0.00    +0.090 C 
ATOM     24  C   UNL     1      14.012   7.552  21.866  0.00  0.00    +0.074 C 
ATOM     25  C   UNL     1      13.191   7.499  21.802  0.00  0.00    +0.033 C 
ENDBRANCH  18  19
ENDBRANCH  12  14
TORSDOF 4
ENDMDL
