MODEL 1
REMARK VINA RESULT:     -12.1      0.000      0.000
REMARK  Name = 
REMARK  4 active torsions:
REMARK  status: ('A' for Active; 'I' for Inactive)
REMARK    1  A    between atoms: C_4  and  C_5
REMARK    2  A    between atoms: C_12  and  O_14
REMARK    3  A    between atoms: O_14  and  C_15
REMARK    4  A    between atoms: C_21  and  C_23
REMARK                            x       y       z     vdW  Elec       q    Type
REMARK                         _______ _______ _______ _____ _____    ______ ____
ROOT
ATOM      5  C   UNL     1      -3.336   2.017  25.101  0.00  0.00    +0.252 C 
ATOM      6  O   UNL     1      -4.147   1.972  25.250  0.00  0.00    -0.270 OA
ATOM      7  N   UNL     1      -2.875   1.334  25.116  0.00  0.00    -0.270 N 
ATOM      8  C   UNL     1      -2.071   1.440  24.959  0.00  0.00    +0.126 C 
ATOM      9  C   UNL     1      -1.473   0.873  24.934  0.00  0.00    +0.164 C 
ATOM     10  O   UNL     1      -1.529   0.059  25.058  0.00  0.00    -0.348 OA
ATOM     11  C   UNL     1      -2.199  -0.388  25.239  0.00  0.00    +0.187 C 
ATOM     12  C   UNL     1      -2.977  -0.132  25.340  0.00  0.00    +0.215 C 
ATOM     13  C   UNL     1      -3.277   0.634  25.285  0.00  0.00    +0.140 C 
ENDROOT
BRANCH   5   4
ATOM      1  C   UNL     1      -1.624   4.358  25.257  0.00  0.00    +0.072 C 
ATOM      2  C   UNL     1      -2.200   3.823  25.008  0.00  0.00    +0.123 A 
ATOM      3  C   UNL     1      -2.377   3.100  25.365  0.00  0.00    +0.040 A 
ATOM      4  C   UNL     1      -2.987   2.747  24.936  0.00  0.00    +0.095 A 
ATOM     21  C   UNL     1      -3.188   3.251  24.315  0.00  0.00    +0.220 A 
ATOM     22  O   UNL     1      -2.701   3.916  24.360  0.00  0.00    -0.454 OA
BRANCH  21  23
ATOM     23  C   UNL     1      -3.771   3.115  23.749  0.00  0.00    +0.451 C 
ATOM     24  F   UNL     1      -4.355   2.979  23.182  0.00  0.00    -0.163 F 
ATOM     25  F   UNL     1      -3.202   2.814  23.234  0.00  0.00    -0.163 F 
ATOM     26  F   UNL     1      -4.341   3.416  24.264  0.00  0.00    -0.163 F 
ENDBRANCH  21  23
ENDBRANCH   5   4
BRANCH  12  14
ATOM     14  O   UNL     1      -3.526  -0.721  25.520  0.00  0.00    -0.475 OA
BRANCH  14  15
ATOM     15  C   UNL     1      -3.673  -1.326  24.980  0.00  0.00    +0.139 A 
ATOM     16  C   UNL     1      -3.349  -2.076  25.102  0.00  0.00    +0.037 A 
ATOM     17  C   UNL     1      -3.496  -2.681  24.561  0.00  0.00    +0.003 A 
ATOM     18  C   UNL     1      -3.967  -2.538  23.898  0.00  0.00    +0.000 A 
ATOM     19  C   UNL     1      -4.291  -1.789  23.777  0.00  0.00    +0.003 A 
ATOM     20  C   UNL     1      -4.144  -1.183  24.318  0.00  0.00    +0.037 A 
ENDBRANCH  14  15
ENDBRANCH  12  14
TORSDOF 4
ENDMDL
MODEL 2
REMARK VINA RESULT:     -11.6      1.863      4.691
REMARK  Name = 
REMARK  4 active torsions:
REMARK  status: ('A' for Active; 'I' for Inactive)
REMARK    1  A    between atoms: C_4  and  C_5
REMARK    2  A    between atoms: C_12  and  O_14
REMARK    3  A    between atoms: O_14  and  C_15
REMARK    4  A    between atoms: C_21  and  C_23
REMARK                            x       y       z     vdW  Elec       q    Type
REMARK                         _______ _______ _______ _____ _____    ______ ____
ROOT
ATOM      5  C   UNL     1      -3.162   0.260  24.265  0.00  0.00    +0.252 C 
ATOM      6  O   UNL     1      -2.428   0.506  23.977  0.00  0.00    -0.270 OA
ATOM      7  N   UNL     1      -3.735   0.818  24.464  0.00  0.00    -0.270 N 
ATOM      8  C   UNL     1      -4.449   0.514  24.746  0.00  0.00    +0.126 C 
ATOM      9  C   UNL     1      -5.123   0.922  24.988  0.00  0.00    +0.164 C 
ATOM     10  O   UNL     1      -5.251   1.737  25.009  0.00  0.00    -0.348 OA
ATOM     11  C   UNL     1      -4.736   2.344  24.792  0.00  0.00    +0.187 C 
ATOM     12  C   UNL     1      -3.966   2.286  24.500  0.00  0.00    +0.215 C 
ATOM     13  C   UNL     1      -3.521   1.607  24.355  0.00  0.00    +0.140 C 
ENDROOT
BRANCH   5   4
ATOM      1  C   UNL     1      -4.344  -2.374  23.945  0.00  0.00    +0.072 C 
ATOM      2  C   UNL     1      -3.864  -1.755  24.206  0.00  0.00    +0.123 A 
ATOM      3  C   UNL     1      -3.898  -0.972  23.947  0.00  0.00    +0.040 A 
ATOM      4  C   UNL     1      -3.320  -0.545  24.353  0.00  0.00    +0.095 A 
ATOM     21  C   UNL     1      -2.930  -1.063  24.863  0.00  0.00    +0.220 A 
ATOM     22  O   UNL     1      -3.266  -1.811  24.772  0.00  0.00    -0.454 OA
BRANCH  21  23
ATOM     23  C   UNL     1      -2.313  -0.868  25.373  0.00  0.00    +0.451 C 
ATOM     24  F   UNL     1      -1.695  -0.673  25.884  0.00  0.00    -0.163 F 
ATOM     25  F   UNL     1      -1.779  -0.916  24.746  0.00  0.00    -0.163 F 
ATOM     26  F   UNL     1      -2.846  -0.820  26.000  0.00  0.00    -0.163 F 
ENDBRANCH  21  23
ENDBRANCH   5   4
BRANCH  12  14
ATOM     14  O   UNL     1      -3.591   3.002  24.333  0.00  0.00    -0.475 OA
BRANCH  14  15
ATOM     15  C   UNL     1      -3.192   3.408  24.930  0.00  0.00    +0.139 A 
ATOM     16  C   UNL     1      -2.367   3.409  24.948  0.00  0.00    +0.037 A 
ATOM     17  C   UNL     1      -1.968   3.815  25.545  0.00  0.00    +0.003 A 
ATOM     18  C   UNL     1      -2.394   4.220  26.125  0.00  0.00    +0.000 A 
ATOM     19  C   UNL     1      -3.218   4.219  26.107  0.00  0.00    +0.003 A 
ATOM     20  C   UNL     1      -3.617   3.813  25.509  0.00  0.00    +0.037 A 
ENDBRANCH  14  15
ENDBRANCH  12  14
TORSDOF 4
ENDMDL
MODEL 3
REMARK VINA RESULT:     -11.5      1.543      4.396
REMARK  Name = 
REMARK  4 active torsions:
REMARK  status: ('A' for Active; 'I' for Inactive)
REMARK    1  A    between atoms: C_4  and  C_5
REMARK    2  A    between atoms: C_12  and  O_14
REMARK    3  A    between atoms: O_14  and  C_15
REMARK    4  A    between atoms: C_21  and  C_23
REMARK                            x       y       z     vdW  Elec       q    Type
REMARK                         _______ _______ _______ _____ _____    ______ ____
ROOT
ATOM      5  C   UNL     1      -2.983   0.327  24.242  0.00  0.00    +0.252 C 
ATOM      6  O   UNL     1      -3.390   0.753  23.665  0.00  0.00    -0.270 OA
ATOM      7  N   UNL     1      -2.291   0.633  24.570  0.00  0.00    -0.270 N 
ATOM      8  C   UNL     1      -1.927   0.163  25.143  0.00  0.00    +0.126 C 
ATOM      9  C   UNL     1      -1.237   0.312  25.569  0.00  0.00    +0.164 C 
ATOM     10  O   UNL     1      -0.739   0.969  25.528  0.00  0.00    -0.348 OA
ATOM     11  C   UNL     1      -0.809   1.639  25.051  0.00  0.00    +0.187 C 
ATOM     12  C   UNL     1      -1.395   1.817  24.497  0.00  0.00    +0.215 C 
ATOM     13  C   UNL     1      -2.054   1.369  24.283  0.00  0.00    +0.140 C 
ENDROOT
BRANCH   5   4
ATOM      1  C   UNL     1      -3.180  -2.517  24.797  0.00  0.00    +0.072 C 
ATOM      2  C   UNL     1      -3.359  -1.714  24.746  0.00  0.00    +0.123 A 
ATOM      3  C   UNL     1      -2.872  -1.127  24.430  0.00  0.00    +0.040 A 
ATOM      4  C   UNL     1      -3.268  -0.406  24.491  0.00  0.00    +0.095 A 
ATOM     21  C   UNL     1      -4.000  -0.547  24.845  0.00  0.00    +0.220 A 
ATOM     22  O   UNL     1      -4.056  -1.355  25.002  0.00  0.00    -0.454 OA
BRANCH  21  23
ATOM     23  C   UNL     1      -4.575   0.020  25.011  0.00  0.00    +0.451 C 
ATOM     24  F   UNL     1      -5.151   0.587  25.178  0.00  0.00    -0.163 F 
ATOM     25  F   UNL     1      -4.839  -0.017  24.231  0.00  0.00    -0.163 F 
ATOM     26  F   UNL     1      -4.312   0.058  25.792  0.00  0.00    -0.163 F 
ENDBRANCH  21  23
ENDBRANCH   5   4
BRANCH  12  14
ATOM     14  O   UNL     1      -1.309   2.538  24.104  0.00  0.00    -0.475 OA
BRANCH  14  15
ATOM     15  C   UNL     1      -1.414   3.245  24.515  0.00  0.00    +0.139 A 
ATOM     16  C   UNL     1      -0.759   3.704  24.721  0.00  0.00    +0.037 A 
ATOM     17  C   UNL     1      -0.865   4.411  25.132  0.00  0.00    +0.003 A 
ATOM     18  C   UNL     1      -1.624   4.661  25.337  0.00  0.00    +0.000 A 
ATOM     19  C   UNL     1      -2.278   4.202  25.130  0.00  0.00    +0.003 A 
ATOM     20  C   UNL     1      -2.173   3.495  24.720  0.00  0.00    +0.037 A 
ENDBRANCH  14  15
ENDBRANCH  12  14
TORSDOF 4
ENDMDL
MODEL 4
REMARK VINA RESULT:     -11.4      1.814      2.515
REMARK  Name = 
REMARK  4 active torsions:
REMARK  status: ('A' for Active; 'I' for Inactive)
REMARK    1  A    between atoms: C_4  and  C_5
REMARK    2  A    between atoms: C_12  and  O_14
REMARK    3  A    between atoms: O_14  and  C_15
REMARK    4  A    between atoms: C_21  and  C_23
REMARK                            x       y       z     vdW  Elec       q    Type
REMARK                         _______ _______ _______ _____ _____    ______ ____
ROOT
ATOM      5  C   UNL     1      -1.519   2.365  24.571  0.00  0.00    +0.252 C 
ATOM      6  O   UNL     1      -0.929   1.899  24.231  0.00  0.00    -0.270 OA
ATOM      7  N   UNL     1      -2.299   2.099  24.582  0.00  0.00    -0.270 N 
ATOM      8  C   UNL     1      -2.846   2.607  24.936  0.00  0.00    +0.126 C 
ATOM      9  C   UNL     1      -3.658   2.503  25.033  0.00  0.00    +0.164 C 
ATOM     10  O   UNL     1      -4.126   1.864  24.801  0.00  0.00    -0.348 OA
ATOM     11  C   UNL     1      -3.896   1.172  24.414  0.00  0.00    +0.187 C 
ATOM     12  C   UNL     1      -3.142   0.948  24.164  0.00  0.00    +0.215 C 
ATOM     13  C   UNL     1      -2.432   1.361  24.240  0.00  0.00    +0.140 C 
ENDROOT
BRANCH   5   4
ATOM      1  C   UNL     1      -1.454   5.217  25.114  0.00  0.00    +0.072 C 
ATOM      2  C   UNL     1      -1.297   4.408  25.150  0.00  0.00    +0.123 A 
ATOM      3  C   UNL     1      -1.644   3.826  24.678  0.00  0.00    +0.040 A 
ATOM      4  C   UNL     1      -1.327   3.097  24.900  0.00  0.00    +0.095 A 
ATOM     21  C   UNL     1      -0.785   3.228  25.508  0.00  0.00    +0.220 A 
ATOM     22  O   UNL     1      -0.767   4.039  25.662  0.00  0.00    -0.454 OA
BRANCH  21  23
ATOM     23  C   UNL     1      -0.340   2.651  25.894  0.00  0.00    +0.451 C 
ATOM     24  F   UNL     1       0.105   2.075  26.281  0.00  0.00    -0.163 F 
ATOM     25  F   UNL     1       0.212   2.668  25.282  0.00  0.00    -0.163 F 
ATOM     26  F   UNL     1      -0.893   2.635  26.506  0.00  0.00    -0.163 F 
ENDBRANCH  21  23
ENDBRANCH   5   4
BRANCH  12  14
ATOM     14  O   UNL     1      -3.092   0.214  23.790  0.00  0.00    -0.475 OA
BRANCH  14  15
ATOM     15  C   UNL     1      -3.257  -0.475  24.212  0.00  0.00    +0.139 A 
ATOM     16  C   UNL     1      -3.969  -0.874  24.087  0.00  0.00    +0.037 A 
ATOM     17  C   UNL     1      -4.134  -1.564  24.508  0.00  0.00    +0.003 A 
ATOM     18  C   UNL     1      -3.588  -1.855  25.055  0.00  0.00    +0.000 A 
ATOM     19  C   UNL     1      -2.877  -1.456  25.179  0.00  0.00    +0.003 A 
ATOM     20  C   UNL     1      -2.712  -0.766  24.758  0.00  0.00    +0.037 A 
ENDBRANCH  14  15
ENDBRANCH  12  14
TORSDOF 4
ENDMDL
