MODEL 1
REMARK VINA RESULT:     -13.3      0.000      0.000
REMARK  Name = 
REMARK  4 active torsions:
REMARK  status: ('A' for Active; 'I' for Inactive)
REMARK    1  A    between atoms: C_7  and  C_8
REMARK    2  A    between atoms: C_14  and  N_15
REMARK    3  A    between atoms: N_15  and  S_16
REMARK    4  A    between atoms: S_16  and  C_19
REMARK                            x       y       z     vdW  Elec       q    Type
REMARK                         _______ _______ _______ _____ _____    ______ ____
ROOT
ATOM      8  C   UNL     1      -3.864   2.128  24.249  0.00  0.00    +0.045 C 
ATOM      9  C   UNL     1      -3.551   2.469  23.567  0.00  0.00    +0.041 C 
ATOM     10  C   UNL     1      -2.980   1.956  23.264  0.00  0.00    +0.184 C 
ATOM     11  O   UNL     1      -2.529   2.080  22.585  0.00  0.00    -0.220 OA
ATOM     12  C   UNL     1      -2.941   1.297  23.759  0.00  0.00    +0.200 C 
ATOM     13  O   UNL     1      -2.444   0.647  23.662  0.00  0.00    -0.219 OA
ATOM     14  C   UNL     1      -3.487   1.404  24.368  0.00  0.00    +0.135 C 
ENDROOT
BRANCH   8   7
ATOM      1  C   UNL     1      -3.494   3.357  25.287  0.00  0.00    +0.031 C 
ATOM      2  C   UNL     1      -4.266   3.068  25.248  0.00  0.00    -0.026 A 
ATOM      3  C   UNL     1      -4.852   3.394  25.727  0.00  0.00    -0.005 A 
ATOM      4  C   UNL     1      -5.624   3.106  25.689  0.00  0.00    -0.000 A 
ATOM      5  C   UNL     1      -5.810   2.491  25.169  0.00  0.00    -0.000 A 
ATOM      6  C   UNL     1      -5.223   2.166  24.689  0.00  0.00    -0.005 A 
ATOM      7  C   UNL     1      -4.451   2.454  24.729  0.00  0.00    -0.025 A 
ENDBRANCH   8   7
BRANCH  14  15
ATOM     15  N   UNL     1      -3.631   0.878  24.987  0.00  0.00    -0.076 NA
BRANCH  15  16
ATOM     16  S   UNL     1      -3.645   0.066  24.845  0.00  0.00    +0.077 S 
ATOM     17  O   UNL     1      -2.923  -0.014  25.236  0.00  0.00    -0.152 OA
ATOM     18  O   UNL     1      -4.367   0.146  24.454  0.00  0.00    -0.152 OA
BRANCH  16  19
ATOM     19  C   UNL     1      -3.658  -0.747  24.703  0.00  0.00    +0.124 A 
ATOM     20  C   UNL     1      -3.161  -1.248  25.131  0.00  0.00    +0.021 A 
ATOM     21  C   UNL     1      -3.173  -2.061  24.990  0.00  0.00    +0.013 A 
ATOM     22  C   UNL     1      -3.682  -2.372  24.420  0.00  0.00    +0.058 A 
ATOM     23 CL   UNL     1      -3.695  -3.185  24.279  0.00  0.00    -0.082 Cl
ATOM     24  C   UNL     1      -4.179  -1.871  23.992  0.00  0.00    +0.013 A 
ATOM     25  C   UNL     1      -4.167  -1.058  24.134  0.00  0.00    +0.021 A 
ENDBRANCH  16  19
ENDBRANCH  15  16
ENDBRANCH  14  15
TORSDOF 4
ENDMDL
MODEL 2
REMARK VINA RESULT:     -12.3      1.056      2.202
REMARK  Name = 
REMARK  4 active torsions:
REMARK  status: ('A' for Active; 'I' for Inactive)
REMARK    1  A    between atoms: C_7  and  C_8
REMARK    2  A    between atoms: C_14  and  N_15
REMARK    3  A    between atoms: N_15  and  S_16
REMARK    4  A    between atoms: S_16  and  C_19
REMARK                            x       y       z     vdW  Elec       q    Type
REMARK                         _______ _______ _______ _____ _____    ______ ____
ROOT
ATOM      8  C   UNL     1      -4.075   2.657  25.173  0.00  0.00    +0.045 C 
ATOM      9  C   UNL     1      -4.798   2.903  25.483  0.00  0.00    +0.041 C 
ATOM     10  C   UNL     1      -5.350   2.304  25.351  0.00  0.00    +0.184 C 
ATOM     11  O   UNL     1      -6.144   2.319  25.573  0.00  0.00    -0.220 OA
ATOM     12  C   UNL     1      -4.967   1.687  24.959  0.00  0.00    +0.200 C 
ATOM     13  O   UNL     1      -5.312   0.977  24.719  0.00  0.00    -0.219 OA
ATOM     14  C   UNL     1      -4.179   1.905  24.848  0.00  0.00    +0.135 C 
ENDROOT
BRANCH   8   7
ATOM      1  C   UNL     1      -3.829   3.867  24.078  0.00  0.00    +0.031 C 
ATOM      2  C   UNL     1      -3.248   3.691  24.637  0.00  0.00    -0.026 A 
ATOM      3  C   UNL     1      -2.544   4.121  24.648  0.00  0.00    -0.005 A 
ATOM      4  C   UNL     1      -1.962   3.946  25.207  0.00  0.00    -0.000 A 
ATOM      5  C   UNL     1      -2.085   3.341  25.754  0.00  0.00    -0.000 A 
ATOM      6  C   UNL     1      -2.790   2.911  25.743  0.00  0.00    -0.005 A 
ATOM      7  C   UNL     1      -3.371   3.087  25.184  0.00  0.00    -0.025 A 
ENDBRANCH   8   7
BRANCH  14  15
ATOM     15  N   UNL     1      -3.598   1.452  24.479  0.00  0.00    -0.076 NA
BRANCH  15  16
ATOM     16  S   UNL     1      -3.590   0.633  24.575  0.00  0.00    +0.077 S 
ATOM     17  O   UNL     1      -3.801   0.539  23.783  0.00  0.00    -0.152 OA
ATOM     18  O   UNL     1      -3.379   0.728  25.367  0.00  0.00    -0.152 OA
BRANCH  16  19
ATOM     19  C   UNL     1      -3.582  -0.187  24.670  0.00  0.00    +0.124 A 
ATOM     20  C   UNL     1      -3.839  -0.676  24.057  0.00  0.00    +0.021 A 
ATOM     21  C   UNL     1      -3.832  -1.495  24.151  0.00  0.00    +0.013 A 
ATOM     22  C   UNL     1      -3.566  -1.826  24.859  0.00  0.00    +0.058 A 
ATOM     23 CL   UNL     1      -3.559  -2.646  24.954  0.00  0.00    -0.082 Cl
ATOM     24  C   UNL     1      -3.309  -1.337  25.472  0.00  0.00    +0.013 A 
ATOM     25  C   UNL     1      -3.316  -0.518  25.378  0.00  0.00    +0.021 A 
ENDBRANCH  16  19
ENDBRANCH  15  16
ENDBRANCH  14  15
TORSDOF 4
ENDMDL
MODEL 3
REMARK VINA RESULT:     -12.2      1.828      4.044
REMARK  Name = 
REMARK  4 active torsions:
REMARK  status: ('A' for Active; 'I' for Inactive)
REMARK    1  A    between atoms: C_7  and  C_8
REMARK    2  A    between atoms: C_14  and  N_15
REMARK    3  A    between atoms: N_15  and  S_16
REMARK    4  A    between atoms: S_16  and  C_19
REMARK                            x       y       z     vdW  Elec       q    Type
REMARK                         _______ _______ _______ _____ _____    ______ ____
ROOT
ATOM      8  C   UNL     1      -2.736  -0.461  24.800  0.00  0.00    +0.045 C 
ATOM      9  C   UNL     1      -1.997  -0.442  25.166  0.00  0.00    +0.041 C 
ATOM     10  C   UNL     1      -1.759   0.346  25.220  0.00  0.00    +0.184 C 
ATOM     11  O   UNL     1      -1.053   0.618  25.549  0.00  0.00    -0.220 OA
ATOM     12  C   UNL     1      -2.351   0.815  24.888  0.00  0.00    +0.200 C 
ATOM     13  O   UNL     1      -2.341   1.637  24.826  0.00  0.00    -0.219 OA
ATOM     14  C   UNL     1      -2.955   0.316  24.628  0.00  0.00    +0.135 C 
ENDROOT
BRANCH   8   7
ATOM      1  C   UNL     1      -3.059  -1.548  25.999  0.00  0.00    +0.031 C 
ATOM      2  C   UNL     1      -3.340  -1.680  25.234  0.00  0.00    -0.026 A 
ATOM      3  C   UNL     1      -3.783  -2.357  25.070  0.00  0.00    -0.005 A 
ATOM      4  C   UNL     1      -4.064  -2.490  24.306  0.00  0.00    -0.000 A 
ATOM      5  C   UNL     1      -3.902  -1.946  23.706  0.00  0.00    -0.000 A 
ATOM      6  C   UNL     1      -3.460  -1.270  23.871  0.00  0.00    -0.005 A 
ATOM      7  C   UNL     1      -3.179  -1.137  24.636  0.00  0.00    -0.025 A 
ENDBRANCH   8   7
BRANCH  14  15
ATOM     15  N   UNL     1      -3.655   0.552  24.262  0.00  0.00    -0.076 NA
BRANCH  15  16
ATOM     16  S   UNL     1      -4.063   1.214  24.537  0.00  0.00    +0.077 S 
ATOM     17  O   UNL     1      -3.816   1.641  23.875  0.00  0.00    -0.152 OA
ATOM     18  O   UNL     1      -4.309   0.787  25.199  0.00  0.00    -0.152 OA
BRANCH  16  19
ATOM     19  C   UNL     1      -4.470   1.877  24.812  0.00  0.00    +0.124 A 
ATOM     20  C   UNL     1      -5.053   1.792  25.390  0.00  0.00    +0.021 A 
ATOM     21  C   UNL     1      -5.461   2.454  25.666  0.00  0.00    +0.013 A 
ATOM     22  C   UNL     1      -5.286   3.201  25.363  0.00  0.00    +0.058 A 
ATOM     23 CL   UNL     1      -5.694   3.864  25.638  0.00  0.00    -0.082 Cl
ATOM     24  C   UNL     1      -4.703   3.286  24.785  0.00  0.00    +0.013 A 
ATOM     25  C   UNL     1      -4.295   2.624  24.510  0.00  0.00    +0.021 A 
ENDBRANCH  16  19
ENDBRANCH  15  16
ENDBRANCH  14  15
TORSDOF 4
ENDMDL
MODEL 4
REMARK VINA RESULT:     -12.2      2.142      4.128
REMARK  Name = 
REMARK  4 active torsions:
REMARK  status: ('A' for Active; 'I' for Inactive)
REMARK    1  A    between atoms: C_7  and  C_8
REMARK    2  A    between atoms: C_14  and  N_15
REMARK    3  A    between atoms: N_15  and  S_16
REMARK    4  A    between atoms: S_16  and  C_19
REMARK                            x       y       z     vdW  Elec       q    Type
REMARK                         _______ _______ _______ _____ _____    ______ ____
ROOT
ATOM      8  C   UNL     1      -4.124   0.193  24.866  0.00  0.00    +0.045 C 
ATOM      9  C   UNL     1      -4.896   0.459  24.983  0.00  0.00    +0.041 C 
ATOM     10  C   UNL     1      -4.931   1.251  24.755  0.00  0.00    +0.184 C 
ATOM     11  O   UNL     1      -5.600   1.734  24.781  0.00  0.00    -0.220 OA
ATOM     12  C   UNL     1      -4.180   1.476  24.498  0.00  0.00    +0.200 C 
ATOM     13  O   UNL     1      -3.966   2.222  24.221  0.00  0.00    -0.219 OA
ATOM     14  C   UNL     1      -3.681   0.822  24.567  0.00  0.00    +0.135 C 
ENDROOT
BRANCH   8   7
ATOM      1  C   UNL     1      -4.355  -1.013  23.764  0.00  0.00    +0.031 C 
ATOM      2  C   UNL     1      -3.959  -1.169  24.471  0.00  0.00    -0.026 A 
ATOM      3  C   UNL     1      -3.679  -1.929  24.627  0.00  0.00    -0.005 A 
ATOM      4  C   UNL     1      -3.283  -2.087  25.333  0.00  0.00    -0.000 A 
ATOM      5  C   UNL     1      -3.167  -1.483  25.884  0.00  0.00    -0.000 A 
ATOM      6  C   UNL     1      -3.448  -0.723  25.729  0.00  0.00    -0.005 A 
ATOM      7  C   UNL     1      -3.844  -0.567  25.022  0.00  0.00    -0.025 A 
ENDBRANCH   8   7
BRANCH  14  15
ATOM     15  N   UNL     1      -2.881   0.801  24.370  0.00  0.00    -0.076 NA
BRANCH  15  16
ATOM     16  S   UNL     1      -2.401   1.456  24.517  0.00  0.00    +0.077 S 
ATOM     17  O   UNL     1      -2.383   1.622  23.710  0.00  0.00    -0.152 OA
ATOM     18  O   UNL     1      -2.421   1.288  25.325  0.00  0.00    -0.152 OA
BRANCH  16  19
ATOM     19  C   UNL     1      -1.922   2.111  24.663  0.00  0.00    +0.124 A 
ATOM     20  C   UNL     1      -1.567   2.510  24.034  0.00  0.00    +0.021 A 
ATOM     21  C   UNL     1      -1.087   3.166  24.180  0.00  0.00    +0.013 A 
ATOM     22  C   UNL     1      -0.963   3.422  24.954  0.00  0.00    +0.058 A 
ATOM     23 CL   UNL     1      -0.484   4.078  25.100  0.00  0.00    -0.082 Cl
ATOM     24  C   UNL     1      -1.319   3.023  25.583  0.00  0.00    +0.013 A 
ATOM     25  C   UNL     1      -1.798   2.368  25.438  0.00  0.00    +0.021 A 
ENDBRANCH  16  19
ENDBRANCH  15  16
ENDBRANCH  14  15
TORSDOF 4
ENDMDL
MODEL 5
REMARK VINA RESULT:     -12.1      1.087      1.437
REMARK  Name = 
REMARK  4 active torsions:
REMARK  status: ('A' for Active; 'I' for Inactive)
REMARK    1  A    between atoms: C_7  and  C_8
REMARK    2  A    between atoms: C_14  and  N_15
REMARK    3  A    between atoms: N_15  and  S_16
REMARK    4  A    between atoms: S_16  and  C_19
REMARK                            x       y       z     vdW  Elec       q    Type
REMARK                         _______ _______ _______ _____ _____    ______ ____
ROOT
ATOM      8  C   UNL     1      -2.282   1.945  24.229  0.00  0.00    +0.045 C 
ATOM      9  C   UNL     1      -1.568   2.045  23.828  0.00  0.00    +0.041 C 
ATOM     10  C   UNL     1      -1.160   1.328  23.852  0.00  0.00    +0.184 C 
ATOM     11  O   UNL     1      -0.420   1.181  23.518  0.00  0.00    -0.220 OA
ATOM     12  C   UNL     1      -1.621   0.785  24.267  0.00  0.00    +0.200 C 
ATOM     13  O   UNL     1      -1.424  -0.001  24.422  0.00  0.00    -0.219 OA
ATOM     14  C   UNL     1      -2.315   1.166  24.500  0.00  0.00    +0.135 C 
ENDROOT
BRANCH   8   7
ATOM      1  C   UNL     1      -2.099   3.083  25.409  0.00  0.00    +0.031 C 
ATOM      2  C   UNL     1      -2.770   3.090  24.929  0.00  0.00    -0.026 A 
ATOM      3  C   UNL     1      -3.349   3.667  25.039  0.00  0.00    -0.005 A 
ATOM      4  C   UNL     1      -4.021   3.675  24.560  0.00  0.00    -0.000 A 
ATOM      5  C   UNL     1      -4.112   3.105  23.969  0.00  0.00    -0.000 A 
ATOM      6  C   UNL     1      -3.533   2.528  23.859  0.00  0.00    -0.005 A 
ATOM      7  C   UNL     1      -2.862   2.521  24.339  0.00  0.00    -0.025 A 
ENDBRANCH   8   7
BRANCH  14  15
ATOM     15  N   UNL     1      -2.933   0.828  24.929  0.00  0.00    -0.076 NA
BRANCH  15  16
ATOM     16  S   UNL     1      -3.159   0.048  24.783  0.00  0.00    +0.077 S 
ATOM     17  O   UNL     1      -3.469   0.276  24.054  0.00  0.00    -0.152 OA
ATOM     18  O   UNL     1      -2.848  -0.179  25.513  0.00  0.00    -0.152 OA
BRANCH  16  19
ATOM     19  C   UNL     1      -3.386  -0.731  24.636  0.00  0.00    +0.124 A 
ATOM     20  C   UNL     1      -3.122  -1.337  25.131  0.00  0.00    +0.021 A 
ATOM     21  C   UNL     1      -3.349  -2.117  24.985  0.00  0.00    +0.013 A 
ATOM     22  C   UNL     1      -3.838  -2.291  24.344  0.00  0.00    +0.058 A 
ATOM     23 CL   UNL     1      -4.065  -3.071  24.197  0.00  0.00    -0.082 Cl
ATOM     24  C   UNL     1      -4.101  -1.685  23.849  0.00  0.00    +0.013 A 
ATOM     25  C   UNL     1      -3.875  -0.905  23.995  0.00  0.00    +0.021 A 
ENDBRANCH  16  19
ENDBRANCH  15  16
ENDBRANCH  14  15
TORSDOF 4
ENDMDL
