REMARK  Name = 
REMARK  5 active torsions:
REMARK  status: ('A' for Active; 'I' for Inactive)
REMARK    1  A    between atoms: C_7  and  C_8
REMARK    2  A    between atoms: C_8  and  N_9
REMARK    3  A    between atoms: C_12  and  C_14
REMARK    4  A    between atoms: C_17  and  C_18
REMARK    5  A    between atoms: C_18  and  C_19
REMARK                            x       y       z     vdW  Elec       q    Type
REMARK                         _______ _______ _______ _____ _____    ______ ____
ROOT
ATOM     14  C   UNL     1      -2.533   0.786   0.000  0.00  0.00    +0.227 A 
ATOM     15  N   UNL     1      -2.361   1.593   0.000  0.00  0.00    -0.112 NA
ATOM     16  N   UNL     1      -1.541   1.679   0.000  0.00  0.00    -0.111 NA
ATOM     17  C   UNL     1      -1.205   0.926   0.000  0.00  0.00    +0.231 A 
ATOM     28  O   UNL     1      -1.819   0.374   0.000  0.00  0.00    -0.423 OA
ENDROOT
BRANCH  14  12
ATOM      9  N   UNL     1      -4.279  -0.443   0.000  0.00  0.00    -0.268 NA
ATOM     10  C   UNL     1      -4.614   0.311   0.000  0.00  0.00    +0.073 C 
ATOM     11  C   UNL     1      -4.001   0.863   0.000  0.00  0.00    +0.028 C 
ATOM     12  C   UNL     1      -3.287   0.451   0.000  0.00  0.00    +0.096 C 
ATOM     13  C   UNL     1      -3.458  -0.356   0.000  0.00  0.00    +0.082 C 
BRANCH   9   8
ATOM      8  C   UNL     1      -4.691  -1.157   0.000  0.00  0.00    +0.101 C 
BRANCH   8   7
ATOM      1  F   UNL     1      -5.516  -2.586   0.000  0.00  0.00    -0.204 F 
ATOM      2  C   UNL     1      -5.929  -1.872   0.000  0.00  0.00    +0.137 A 
ATOM      3  C   UNL     1      -6.754  -1.872   0.000  0.00  0.00    +0.029 A 
ATOM      4  C   UNL     1      -7.166  -1.157   0.000  0.00  0.00    +0.002 A 
ATOM      5  C   UNL     1      -6.754  -0.443   0.000  0.00  0.00    -0.000 A 
ATOM      6  C   UNL     1      -5.929  -0.443   0.000  0.00  0.00    -0.001 A 
ATOM      7  C   UNL     1      -5.516  -1.157   0.000  0.00  0.00    +0.021 A 
ENDBRANCH   8   7
ENDBRANCH   9   8
ENDBRANCH  14  12
BRANCH  17  18
ATOM     18  C   UNL     1      -0.398   0.754   0.000  0.00  0.00    +0.115 C 
BRANCH  18  19
ATOM     19  C   UNL     1      -0.143  -0.030   0.000  0.00  0.00    +0.008 A 
ATOM     20  C   UNL     1      -0.628  -0.698   0.000  0.00  0.00    +0.095 A 
ATOM     21  N   UNL     1      -0.143  -1.365   0.000  0.00  0.00    -0.244 NA
ATOM     22  C   UNL     1       0.641  -1.110   0.000  0.00  0.00    +0.081 A 
ATOM     23  C   UNL     1       0.641  -0.285   0.000  0.00  0.00    +0.016 A 
ATOM     24  C   UNL     1       1.356   0.127   0.000  0.00  0.00    +0.001 A 
ATOM     25  C   UNL     1       2.070  -0.285   0.000  0.00  0.00    +0.000 A 
ATOM     26  C   UNL     1       2.070  -1.110   0.000  0.00  0.00    +0.002 A 
ATOM     27  C   UNL     1       1.356  -1.523   0.000  0.00  0.00    +0.019 A 
ENDBRANCH  18  19
ENDBRANCH  17  18
TORSDOF 5
