REMARK  Name = 
REMARK  3 active torsions:
REMARK  status: ('A' for Active; 'I' for Inactive)
REMARK    1  A    between atoms: C_5  and  N_6
REMARK    2  A    between atoms: C_14  and  C_15
REMARK    3  A    between atoms: C_17  and  C_20
REMARK                            x       y       z     vdW  Elec       q    Type
REMARK                         _______ _______ _______ _____ _____    ______ ____
ROOT
ATOM      6  N   UNL     1       2.784  -0.127   0.000  0.00  0.00    -0.162 NA
ATOM      7  C   UNL     1       2.784   0.698   0.000  0.00  0.00    +0.328 C 
ATOM      8  O   UNL     1       3.499   1.110   0.000  0.00  0.00    -0.250 OA
ATOM      9  N   UNL     1       2.070   1.110   0.000  0.00  0.00    -0.249 N 
ATOM     10  C   UNL     1       1.356   0.698   0.000  0.00  0.00    +0.143 C 
ATOM     11  C   UNL     1       0.641   1.110   0.000  0.00  0.00    +0.094 A 
ATOM     12  C   UNL     1       0.641   1.935   0.000  0.00  0.00    +0.078 A 
ATOM     13  C   UNL     1       1.356   2.348   0.000  0.00  0.00    +0.077 C 
ATOM     14  C   UNL     1       2.070   1.935   0.000  0.00  0.00    +0.162 C 
ATOM     26  N   UNL     1      -0.143   2.190   0.000  0.00  0.00    -0.227 NA
ATOM     27  C   UNL     1      -0.628   1.523   0.000  0.00  0.00    +0.198 A 
ATOM     28  N   UNL     1      -0.143   0.856   0.000  0.00  0.00    -0.225 NA
ENDROOT
BRANCH   6   5
ATOM      1 CL   UNL     1       5.642  -1.777   0.000  0.00  0.00    -0.082 Cl
ATOM      2  C   UNL     1       4.928  -1.365   0.000  0.00  0.00    +0.058 A 
ATOM      3  C   UNL     1       4.213  -1.777   0.000  0.00  0.00    +0.013 A 
ATOM      4  C   UNL     1       3.499  -1.365   0.000  0.00  0.00    +0.018 A 
ATOM      5  C   UNL     1       3.499  -0.540   0.000  0.00  0.00    +0.075 A 
ATOM     29  C   UNL     1       4.213  -0.127   0.000  0.00  0.00    +0.018 A 
ATOM     30  C   UNL     1       4.928  -0.540   0.000  0.00  0.00    +0.013 A 
ENDBRANCH   6   5
BRANCH  14  15
ATOM     15  C   UNL     1       2.784   2.348   0.000  0.00  0.00    +0.255 A 
ATOM     16  N   UNL     1       2.871   3.168   0.000  0.00  0.00    -0.189 NA
ATOM     17  C   UNL     1       3.678   3.340   0.000  0.00  0.00    +0.203 A 
ATOM     18  N   UNL     1       4.090   2.626   0.000  0.00  0.00    -0.056 NA
ATOM     19  O   UNL     1       3.538   2.012   0.000  0.00  0.00    -0.335 OA
BRANCH  17  20
ATOM     20  C   UNL     1       4.013   4.094   0.000  0.00  0.00    +0.039 A 
ATOM     21  C   UNL     1       3.528   4.761   0.000  0.00  0.00    +0.003 A 
ATOM     22  C   UNL     1       3.864   5.515   0.000  0.00  0.00    +0.000 A 
ATOM     23  C   UNL     1       4.684   5.601   0.000  0.00  0.00    +0.000 A 
ATOM     24  C   UNL     1       5.169   4.934   0.000  0.00  0.00    +0.000 A 
ATOM     25  C   UNL     1       4.834   4.180   0.000  0.00  0.00    +0.003 A 
ENDBRANCH  17  20
ENDBRANCH  14  15
TORSDOF 3
