MODEL 1
REMARK VINA RESULT:      -7.8      0.000      0.000
REMARK  Name = 
REMARK  6 active torsions:
REMARK  status: ('A' for Active; 'I' for Inactive)
REMARK    1  A    between atoms: O_2  and  C_3
REMARK    2  A    between atoms: C_5  and  O_6
REMARK    3  A    between atoms: C_9  and  N_10
REMARK    4  A    between atoms: N_13  and  C_14
REMARK    5  A    between atoms: C_18  and  N_22
REMARK    6  A    between atoms: C_25  and  C_29
REMARK                            x       y       z     vdW  Elec       q    Type
REMARK                         _______ _______ _______ _____ _____    ______ ____
ROOT
ATOM     14  C   UNL     1      -1.842   1.750  23.740  0.00  0.00    +0.156 C 
ATOM     15  C   UNL     1      -1.417   2.450  23.838  0.00  0.00    +0.166 C 
ATOM     16  O   UNL     1      -0.617   2.255  23.893  0.00  0.00    -0.350 OA
ATOM     17  C   UNL     1      -0.548   1.437  23.829  0.00  0.00    +0.166 C 
ATOM     18  C   UNL     1      -0.012   0.809  23.824  0.00  0.00    +0.154 C 
ATOM     19  C   UNL     1      -0.438   0.110  23.726  0.00  0.00    +0.166 C 
ATOM     20  O   UNL     1      -1.237   0.304  23.671  0.00  0.00    -0.350 OA
ATOM     21  C   UNL     1      -1.306   1.124  23.735  0.00  0.00    +0.166 C 
ENDROOT
BRANCH  18  22
ATOM     22  N   UNL     1       0.807   0.872  23.902  0.00  0.00    -0.200 NA
ATOM     23  C   UNL     1       1.303   0.529  23.339  0.00  0.00    +0.237 A 
ATOM     24  N   UNL     1       2.121   0.591  23.417  0.00  0.00    -0.209 NA
ATOM     25  C   UNL     1       2.617   0.248  22.854  0.00  0.00    +0.120 A 
ATOM     26  C   UNL     1       2.294  -0.157  22.212  0.00  0.00    +0.043 A 
ATOM     27  C   UNL     1       1.475  -0.219  22.133  0.00  0.00    +0.104 A 
ATOM     28  N   UNL     1       0.980   0.124  22.697  0.00  0.00    -0.211 NA
BRANCH  25  29
ATOM     29  C   UNL     1       3.436   0.310  22.932  0.00  0.00    +0.163 A 
ATOM     30  C   UNL     1       3.890   0.977  22.759  0.00  0.00    +0.042 A 
ATOM     31  C   UNL     1       4.679   0.796  22.917  0.00  0.00    +0.044 A 
ATOM     32  C   UNL     1       4.713   0.018  23.187  0.00  0.00    +0.180 A 
ATOM     33  O   UNL     1       3.944  -0.282  23.196  0.00  0.00    -0.449 OA
ENDBRANCH  25  29
ENDBRANCH  18  22
BRANCH  14  13
ATOM     10  N   UNL     1      -3.976   1.969  24.146  0.00  0.00    -0.161 NA
ATOM     11  C   UNL     1      -3.158   2.031  24.224  0.00  0.00    +0.344 C 
ATOM     12  O   UNL     1      -2.834   2.438  24.866  0.00  0.00    -0.249 OA
ATOM     13  N   UNL     1      -2.662   1.688  23.662  0.00  0.00    -0.184 NA
BRANCH  10   9
ATOM      3  C   UNL     1      -5.393   2.181  25.794  0.00  0.00    +0.143 A 
ATOM      4  C   UNL     1      -5.464   3.002  25.834  0.00  0.00    +0.074 A 
ATOM      5  C   UNL     1      -5.039   3.479  25.311  0.00  0.00    +0.143 A 
ATOM      8  C   UNL     1      -4.544   3.134  24.749  0.00  0.00    +0.054 A 
ATOM      9  C   UNL     1      -4.472   2.313  24.709  0.00  0.00    +0.081 A 
ATOM     34  C   UNL     1      -4.896   1.837  25.231  0.00  0.00    +0.054 A 
BRANCH   3   2
ATOM      1  C   UNL     1      -6.549   1.397  26.093  0.00  0.00    +0.252 C 
ATOM      2  O   UNL     1      -5.817   1.705  26.316  0.00  0.00    -0.471 OA
ENDBRANCH   3   2
BRANCH   5   6
ATOM      6  O   UNL     1      -5.111   4.300  25.351  0.00  0.00    -0.471 OA
ATOM      7  C   UNL     1      -5.854   4.645  25.447  0.00  0.00    +0.252 C 
ENDBRANCH   5   6
ENDBRANCH  10   9
ENDBRANCH  14  13
TORSDOF 6
ENDMDL
MODEL 2
REMARK VINA RESULT:      -7.8      0.061      1.174
REMARK  Name = 
REMARK  6 active torsions:
REMARK  status: ('A' for Active; 'I' for Inactive)
REMARK    1  A    between atoms: O_2  and  C_3
REMARK    2  A    between atoms: C_5  and  O_6
REMARK    3  A    between atoms: C_9  and  N_10
REMARK    4  A    between atoms: N_13  and  C_14
REMARK    5  A    between atoms: C_18  and  N_22
REMARK    6  A    between atoms: C_25  and  C_29
REMARK                            x       y       z     vdW  Elec       q    Type
REMARK                         _______ _______ _______ _____ _____    ______ ____
ROOT
ATOM     14  C   UNL     1      -1.800   1.736  23.713  0.00  0.00    +0.156 C 
ATOM     15  C   UNL     1      -1.373   2.433  23.823  0.00  0.00    +0.166 C 
ATOM     16  O   UNL     1      -0.575   2.235  23.883  0.00  0.00    -0.350 OA
ATOM     17  C   UNL     1      -0.508   1.417  23.810  0.00  0.00    +0.166 C 
ATOM     18  C   UNL     1       0.026   0.788  23.801  0.00  0.00    +0.154 C 
ATOM     19  C   UNL     1      -0.402   0.091  23.690  0.00  0.00    +0.166 C 
ATOM     20  O   UNL     1      -1.200   0.289  23.631  0.00  0.00    -0.350 OA
ATOM     21  C   UNL     1      -1.266   1.109  23.704  0.00  0.00    +0.166 C 
ENDROOT
BRANCH  18  22
ATOM     22  N   UNL     1       0.844   0.846  23.888  0.00  0.00    -0.200 NA
ATOM     23  C   UNL     1       1.344   0.521  23.317  0.00  0.00    +0.237 A 
ATOM     24  N   UNL     1       2.162   0.579  23.404  0.00  0.00    -0.209 NA
ATOM     25  C   UNL     1       2.662   0.254  22.833  0.00  0.00    +0.120 A 
ATOM     26  C   UNL     1       2.343  -0.128  22.176  0.00  0.00    +0.043 A 
ATOM     27  C   UNL     1       1.524  -0.186  22.089  0.00  0.00    +0.104 A 
ATOM     28  N   UNL     1       1.025   0.139  22.660  0.00  0.00    -0.211 NA
BRANCH  25  29
ATOM     29  C   UNL     1       3.480   0.312  22.920  0.00  0.00    +0.163 A 
ATOM     30  C   UNL     1       3.942   0.971  22.734  0.00  0.00    +0.042 A 
ATOM     31  C   UNL     1       4.727   0.787  22.907  0.00  0.00    +0.044 A 
ATOM     32  C   UNL     1       4.751   0.017  23.199  0.00  0.00    +0.180 A 
ATOM     33  O   UNL     1       3.980  -0.277  23.207  0.00  0.00    -0.449 OA
ENDBRANCH  25  29
ENDBRANCH  18  22
BRANCH  14  13
ATOM     10  N   UNL     1      -3.937   1.948  24.108  0.00  0.00    -0.161 NA
ATOM     11  C   UNL     1      -3.119   2.006  24.195  0.00  0.00    +0.344 C 
ATOM     12  O   UNL     1      -2.799   2.391  24.851  0.00  0.00    -0.249 OA
ATOM     13  N   UNL     1      -2.619   1.678  23.626  0.00  0.00    -0.184 NA
BRANCH  10   9
ATOM      3  C   UNL     1      -5.008   3.421  25.311  0.00  0.00    +0.143 A 
ATOM      4  C   UNL     1      -5.436   2.929  25.816  0.00  0.00    +0.074 A 
ATOM      5  C   UNL     1      -5.365   2.109  25.751  0.00  0.00    +0.143 A 
ATOM      8  C   UNL     1      -4.865   1.783  25.182  0.00  0.00    +0.054 A 
ATOM      9  C   UNL     1      -4.436   2.275  24.677  0.00  0.00    +0.081 A 
ATOM     34  C   UNL     1      -4.508   3.094  24.742  0.00  0.00    +0.054 A 
BRANCH   3   2
ATOM      1  C   UNL     1      -5.827   4.586  25.430  0.00  0.00    +0.252 C 
ATOM      2  O   UNL     1      -5.080   4.240  25.375  0.00  0.00    -0.471 OA
ENDBRANCH   3   2
BRANCH   5   6
ATOM      6  O   UNL     1      -5.793   1.617  26.256  0.00  0.00    -0.471 OA
ATOM      7  C   UNL     1      -6.586   1.454  26.099  0.00  0.00    +0.252 C 
ENDBRANCH   5   6
ENDBRANCH  10   9
ENDBRANCH  14  13
TORSDOF 6
ENDMDL
MODEL 3
REMARK VINA RESULT:      -7.0     16.347     17.639
REMARK  Name = 
REMARK  6 active torsions:
REMARK  status: ('A' for Active; 'I' for Inactive)
REMARK    1  A    between atoms: O_2  and  C_3
REMARK    2  A    between atoms: C_5  and  O_6
REMARK    3  A    between atoms: C_9  and  N_10
REMARK    4  A    between atoms: N_13  and  C_14
REMARK    5  A    between atoms: C_18  and  N_22
REMARK    6  A    between atoms: C_25  and  C_29
REMARK                            x       y       z     vdW  Elec       q    Type
REMARK                         _______ _______ _______ _____ _____    ______ ____
ROOT
ATOM     14  C   UNL     1      -5.817  -9.449  10.738  0.00  0.00    +0.156 C 
ATOM     15  C   UNL     1      -6.116  -9.010  11.368  0.00  0.00    +0.166 C 
ATOM     16  O   UNL     1      -5.723  -9.246  12.053  0.00  0.00    -0.350 OA
ATOM     17  C   UNL     1      -5.180  -9.831  11.847  0.00  0.00    +0.166 C 
ATOM     18  C   UNL     1      -4.601 -10.340  12.141  0.00  0.00    +0.154 C 
ATOM     19  C   UNL     1      -4.302 -10.780  11.511  0.00  0.00    +0.166 C 
ATOM     20  O   UNL     1      -4.696 -10.543  10.826  0.00  0.00    -0.350 OA
ATOM     21  C   UNL     1      -5.239  -9.957  11.034  0.00  0.00    +0.166 C 
ENDROOT
BRANCH  18  22
ATOM     22  N   UNL     1      -4.363 -10.398  12.930  0.00  0.00    -0.200 NA
ATOM     23  C   UNL     1      -3.561 -10.431  13.117  0.00  0.00    +0.237 A 
ATOM     24  N   UNL     1      -3.323 -10.490  13.905  0.00  0.00    -0.209 NA
ATOM     25  C   UNL     1      -2.520 -10.523  14.092  0.00  0.00    +0.120 A 
ATOM     26  C   UNL     1      -1.955 -10.498  13.492  0.00  0.00    +0.043 A 
ATOM     27  C   UNL     1      -2.193 -10.439  12.704  0.00  0.00    +0.104 A 
ATOM     28  N   UNL     1      -2.996 -10.406  12.517  0.00  0.00    -0.211 NA
BRANCH  25  29
ATOM     29  C   UNL     1      -2.282 -10.581  14.879  0.00  0.00    +0.163 A 
ATOM     30  C   UNL     1      -1.519 -10.452  15.167  0.00  0.00    +0.042 A 
ATOM     31  C   UNL     1      -1.531 -10.570  15.983  0.00  0.00    +0.044 A 
ATOM     32  C   UNL     1      -2.300 -10.772  16.200  0.00  0.00    +0.180 A 
ATOM     33  O   UNL     1      -2.764 -10.779  15.518  0.00  0.00    -0.449 OA
ENDBRANCH  25  29
ENDBRANCH  18  22
BRANCH  14  13
ATOM     10  N   UNL     1      -6.956  -8.883   8.964  0.00  0.00    -0.161 NA
ATOM     11  C   UNL     1      -6.718  -8.942   9.751  0.00  0.00    +0.344 C 
ATOM     12  O   UNL     1      -7.143  -8.551  10.341  0.00  0.00    -0.249 OA
ATOM     13  N   UNL     1      -6.055  -9.391   9.950  0.00  0.00    -0.184 NA
BRANCH  10   9
ATOM      3  C   UNL     1      -9.032  -8.325   8.587  0.00  0.00    +0.143 A 
ATOM      4  C   UNL     1      -8.944  -7.536   8.366  0.00  0.00    +0.074 A 
ATOM      5  C   UNL     1      -8.193  -7.195   8.344  0.00  0.00    +0.143 A 
ATOM      8  C   UNL     1      -7.530  -7.644   8.544  0.00  0.00    +0.054 A 
ATOM      9  C   UNL     1      -7.619  -8.434   8.764  0.00  0.00    +0.081 A 
ATOM     34  C   UNL     1      -8.369  -8.774   8.786  0.00  0.00    +0.054 A 
BRANCH   3   2
ATOM      1  C   UNL     1      -9.898  -9.431   8.322  0.00  0.00    +0.252 C 
ATOM      2  O   UNL     1      -9.783  -8.666   8.609  0.00  0.00    -0.471 OA
ENDBRANCH   3   2
BRANCH   5   6
ATOM      6  O   UNL     1      -8.104  -6.405   8.124  0.00  0.00    -0.471 OA
ATOM      7  C   UNL     1      -8.704  -5.861   8.286  0.00  0.00    +0.252 C 
ENDBRANCH   5   6
ENDBRANCH  10   9
ENDBRANCH  14  13
TORSDOF 6
ENDMDL
MODEL 4
REMARK VINA RESULT:      -6.6     16.760     18.933
REMARK  Name = 
REMARK  6 active torsions:
REMARK  status: ('A' for Active; 'I' for Inactive)
REMARK    1  A    between atoms: O_2  and  C_3
REMARK    2  A    between atoms: C_5  and  O_6
REMARK    3  A    between atoms: C_9  and  N_10
REMARK    4  A    between atoms: N_13  and  C_14
REMARK    5  A    between atoms: C_18  and  N_22
REMARK    6  A    between atoms: C_25  and  C_29
REMARK                            x       y       z     vdW  Elec       q    Type
REMARK                         _______ _______ _______ _____ _____    ______ ____
ROOT
ATOM     14  C   UNL     1      -5.764  -9.870  11.225  0.00  0.00    +0.156 C 
ATOM     15  C   UNL     1      -5.868  -9.180  11.663  0.00  0.00    +0.166 C 
ATOM     16  O   UNL     1      -6.554  -8.810  11.395  0.00  0.00    -0.350 OA
ATOM     17  C   UNL     1      -6.875  -9.271  10.792  0.00  0.00    +0.166 C 
ATOM     18  C   UNL     1      -7.496  -9.328  10.253  0.00  0.00    +0.154 C 
ATOM     19  C   UNL     1      -7.392 -10.019   9.814  0.00  0.00    +0.166 C 
ATOM     20  O   UNL     1      -6.706 -10.389  10.082  0.00  0.00    -0.350 OA
ATOM     21  C   UNL     1      -6.386  -9.927  10.687  0.00  0.00    +0.166 C 
ENDROOT
BRANCH  18  22
ATOM     22  N   UNL     1      -8.115  -8.788  10.167  0.00  0.00    -0.200 NA
ATOM     23  C   UNL     1      -8.166  -8.324   9.487  0.00  0.00    +0.237 A 
ATOM     24  N   UNL     1      -8.784  -7.785   9.401  0.00  0.00    -0.209 NA
ATOM     25  C   UNL     1      -8.836  -7.321   8.721  0.00  0.00    +0.120 A 
ATOM     26  C   UNL     1      -8.269  -7.397   8.126  0.00  0.00    +0.043 A 
ATOM     27  C   UNL     1      -7.651  -7.937   8.211  0.00  0.00    +0.104 A 
ATOM     28  N   UNL     1      -7.600  -8.400   8.892  0.00  0.00    -0.211 NA
BRANCH  25  29
ATOM     29  C   UNL     1      -9.453  -6.781   8.635  0.00  0.00    +0.163 A 
ATOM     30  C   UNL     1      -9.375  -5.964   8.546  0.00  0.00    +0.042 A 
ATOM     31  C   UNL     1     -10.131  -5.642   8.479  0.00  0.00    +0.044 A 
ATOM     32  C   UNL     1     -10.676  -6.258   8.526  0.00  0.00    +0.180 A 
ATOM     33  O   UNL     1     -10.257  -6.962   8.623  0.00  0.00    -0.449 OA
ENDBRANCH  25  29
ENDBRANCH  18  22
BRANCH  14  13
ATOM     10  N   UNL     1      -3.782 -10.689  11.633  0.00  0.00    -0.161 NA
ATOM     11  C   UNL     1      -4.399 -10.150  11.547  0.00  0.00    +0.344 C 
ATOM     12  O   UNL     1      -4.272  -9.348  11.699  0.00  0.00    -0.249 OA
ATOM     13  N   UNL     1      -5.146 -10.411  11.311  0.00  0.00    -0.184 NA
BRANCH  10   9
ATOM      3  C   UNL     1      -1.820  -9.733  11.587  0.00  0.00    +0.143 A 
ATOM      4  C   UNL     1      -1.543  -9.907  12.344  0.00  0.00    +0.074 A 
ATOM      5  C   UNL     1      -2.013 -10.343  12.865  0.00  0.00    +0.143 A 
ATOM      8  C   UNL     1      -2.759 -10.603  12.627  0.00  0.00    +0.054 A 
ATOM      9  C   UNL     1      -3.035 -10.428  11.870  0.00  0.00    +0.081 A 
ATOM     34  C   UNL     1      -2.566  -9.993  11.350  0.00  0.00    +0.054 A 
BRANCH   3   2
ATOM      1  C   UNL     1      -0.538  -9.236  11.197  0.00  0.00    +0.252 C 
ATOM      2  O   UNL     1      -1.350  -9.298  11.067  0.00  0.00    -0.471 OA
ENDBRANCH   3   2
BRANCH   5   6
ATOM      6  O   UNL     1      -1.737 -10.517  13.622  0.00  0.00    -0.471 OA
ATOM      7  C   UNL     1      -2.234 -10.425  14.274  0.00  0.00    +0.252 C 
ENDBRANCH   5   6
ENDBRANCH  10   9
ENDBRANCH  14  13
TORSDOF 6
ENDMDL
MODEL 5
REMARK VINA RESULT:      -6.4      1.446      2.102
REMARK  Name = 
REMARK  6 active torsions:
REMARK  status: ('A' for Active; 'I' for Inactive)
REMARK    1  A    between atoms: O_2  and  C_3
REMARK    2  A    between atoms: C_5  and  O_6
REMARK    3  A    between atoms: C_9  and  N_10
REMARK    4  A    between atoms: N_13  and  C_14
REMARK    5  A    between atoms: C_18  and  N_22
REMARK    6  A    between atoms: C_25  and  C_29
REMARK                            x       y       z     vdW  Elec       q    Type
REMARK                         _______ _______ _______ _____ _____    ______ ____
ROOT
ATOM     14  C   UNL     1      -1.495   3.374  25.508  0.00  0.00    +0.156 C 
ATOM     15  C   UNL     1      -1.248   3.848  24.880  0.00  0.00    +0.166 C 
ATOM     16  O   UNL     1      -0.593   3.487  24.532  0.00  0.00    -0.350 OA
ATOM     17  C   UNL     1      -0.435   2.792  24.945  0.00  0.00    +0.166 C 
ATOM     18  C   UNL     1       0.067   2.138  24.986  0.00  0.00    +0.154 C 
ATOM     19  C   UNL     1      -0.181   1.664  25.614  0.00  0.00    +0.166 C 
ATOM     20  O   UNL     1      -0.836   2.025  25.962  0.00  0.00    -0.350 OA
ATOM     21  C   UNL     1      -0.993   2.722  25.548  0.00  0.00    +0.166 C 
ENDROOT
BRANCH  18  22
ATOM     22  N   UNL     1       0.705   1.985  24.486  0.00  0.00    -0.200 NA
ATOM     23  C   UNL     1       0.737   1.278  24.062  0.00  0.00    +0.237 A 
ATOM     24  N   UNL     1       1.375   1.125  23.562  0.00  0.00    -0.209 NA
ATOM     25  C   UNL     1       1.407   0.418  23.137  0.00  0.00    +0.120 A 
ATOM     26  C   UNL     1       0.801  -0.136  23.214  0.00  0.00    +0.043 A 
ATOM     27  C   UNL     1       0.162   0.017  23.714  0.00  0.00    +0.104 A 
ATOM     28  N   UNL     1       0.131   0.724  24.138  0.00  0.00    -0.211 NA
BRANCH  25  29
ATOM     29  C   UNL     1       2.044   0.265  22.638  0.00  0.00    +0.163 A 
ATOM     30  C   UNL     1       2.837   0.432  22.797  0.00  0.00    +0.042 A 
ATOM     31  C   UNL     1       3.284   0.189  22.148  0.00  0.00    +0.044 A 
ATOM     32  C   UNL     1       2.769  -0.128  21.588  0.00  0.00    +0.180 A 
ATOM     33  O   UNL     1       2.003  -0.081  21.890  0.00  0.00    -0.449 OA
ENDBRANCH  25  29
ENDBRANCH  18  22
BRANCH  14  13
ATOM     10  N   UNL     1      -3.544   3.581  26.234  0.00  0.00    -0.161 NA
ATOM     11  C   UNL     1      -2.906   3.429  25.735  0.00  0.00    +0.344 C 
ATOM     12  O   UNL     1      -3.039   3.178  24.959  0.00  0.00    -0.249 OA
ATOM     13  N   UNL     1      -2.134   3.527  26.008  0.00  0.00    -0.184 NA
BRANCH  10   9
ATOM      3  C   UNL     1      -5.506   4.031  25.390  0.00  0.00    +0.143 A 
ATOM      4  C   UNL     1      -5.860   3.286  25.413  0.00  0.00    +0.074 A 
ATOM      5  C   UNL     1      -5.441   2.639  25.709  0.00  0.00    +0.143 A 
ATOM      8  C   UNL     1      -4.670   2.738  25.983  0.00  0.00    +0.054 A 
ATOM      9  C   UNL     1      -4.316   3.483  25.960  0.00  0.00    +0.081 A 
ATOM     34  C   UNL     1      -4.734   4.129  25.664  0.00  0.00    +0.054 A 
BRANCH   3   2
ATOM      1  C   UNL     1      -6.267   5.220  25.611  0.00  0.00    +0.252 C 
ATOM      2  O   UNL     1      -5.924   4.677  25.093  0.00  0.00    -0.471 OA
ENDBRANCH   3   2
BRANCH   5   6
ATOM      6  O   UNL     1      -5.795   1.894  25.732  0.00  0.00    -0.471 OA
ATOM      7  C   UNL     1      -5.868   1.451  25.040  0.00  0.00    +0.252 C 
ENDBRANCH   5   6
ENDBRANCH  10   9
ENDBRANCH  14  13
TORSDOF 6
ENDMDL
MODEL 6
REMARK VINA RESULT:      -6.3      1.128      7.464
REMARK  Name = 
REMARK  6 active torsions:
REMARK  status: ('A' for Active; 'I' for Inactive)
REMARK    1  A    between atoms: O_2  and  C_3
REMARK    2  A    between atoms: C_5  and  O_6
REMARK    3  A    between atoms: C_9  and  N_10
REMARK    4  A    between atoms: N_13  and  C_14
REMARK    5  A    between atoms: C_18  and  N_22
REMARK    6  A    between atoms: C_25  and  C_29
REMARK                            x       y       z     vdW  Elec       q    Type
REMARK                         _______ _______ _______ _____ _____    ______ ____
ROOT
ATOM     14  C   UNL     1       0.113   0.337  23.511  0.00  0.00    +0.156 C 
ATOM     15  C   UNL     1       0.112   1.161  23.478  0.00  0.00    +0.166 C 
ATOM     16  O   UNL     1      -0.544   1.431  23.897  0.00  0.00    -0.350 OA
ATOM     17  C   UNL     1      -0.950   0.776  24.188  0.00  0.00    +0.166 C 
ATOM     18  C   UNL     1      -1.606   0.536  24.627  0.00  0.00    +0.154 C 
ATOM     19  C   UNL     1      -1.605  -0.288  24.660  0.00  0.00    +0.166 C 
ATOM     20  O   UNL     1      -0.949  -0.558  24.241  0.00  0.00    -0.350 OA
ATOM     21  C   UNL     1      -0.543   0.099  23.949  0.00  0.00    +0.166 C 
ENDROOT
BRANCH  18  22
ATOM     22  N   UNL     1      -2.165   1.035  24.973  0.00  0.00    -0.200 NA
ATOM     23  C   UNL     1      -2.964   0.953  24.784  0.00  0.00    +0.237 A 
ATOM     24  N   UNL     1      -3.523   1.451  25.130  0.00  0.00    -0.209 NA
ATOM     25  C   UNL     1      -4.322   1.370  24.941  0.00  0.00    +0.120 A 
ATOM     26  C   UNL     1      -4.562   0.789  24.406  0.00  0.00    +0.043 A 
ATOM     27  C   UNL     1      -4.002   0.291  24.060  0.00  0.00    +0.104 A 
ATOM     28  N   UNL     1      -3.204   0.373  24.249  0.00  0.00    -0.211 NA
BRANCH  25  29
ATOM     29  C   UNL     1      -4.881   1.868  25.286  0.00  0.00    +0.163 A 
ATOM     30  C   UNL     1      -5.608   1.636  25.602  0.00  0.00    +0.042 A 
ATOM     31  C   UNL     1      -5.988   2.310  25.888  0.00  0.00    +0.044 A 
ATOM     32  C   UNL     1      -5.497   2.958  25.748  0.00  0.00    +0.180 A 
ATOM     33  O   UNL     1      -4.813   2.684  25.377  0.00  0.00    -0.449 OA
ENDBRANCH  25  29
ENDBRANCH  18  22
BRANCH  14  13
ATOM     10  N   UNL     1       2.034  -0.475  22.865  0.00  0.00    -0.161 NA
ATOM     11  C   UNL     1       1.475   0.023  23.210  0.00  0.00    +0.344 C 
ATOM     12  O   UNL     1       1.718   0.708  23.602  0.00  0.00    -0.249 OA
ATOM     13  N   UNL     1       0.672  -0.162  23.165  0.00  0.00    -0.184 NA
BRANCH  10   9
ATOM      3  C   UNL     1       4.141  -0.555  23.430  0.00  0.00    +0.143 A 
ATOM      4  C   UNL     1       4.442   0.082  23.001  0.00  0.00    +0.074 A 
ATOM      5  C   UNL     1       3.940   0.534  22.526  0.00  0.00    +0.143 A 
ATOM      8  C   UNL     1       3.138   0.348  22.481  0.00  0.00    +0.054 A 
ATOM      9  C   UNL     1       2.837  -0.289  22.910  0.00  0.00    +0.081 A 
ATOM     34  C   UNL     1       3.338  -0.740  23.384  0.00  0.00    +0.054 A 
BRANCH   3   2
ATOM      1  C   UNL     1       5.352  -0.685  24.177  0.00  0.00    +0.252 C 
ATOM      2  O   UNL     1       4.643  -1.006  23.903  0.00  0.00    -0.471 OA
ENDBRANCH   3   2
BRANCH   5   6
ATOM      6  O   UNL     1       4.241   1.171  22.098  0.00  0.00    -0.471 OA
ATOM      7  C   UNL     1       4.233   1.929  22.424  0.00  0.00    +0.252 C 
ENDBRANCH   5   6
ENDBRANCH  10   9
ENDBRANCH  14  13
TORSDOF 6
ENDMDL
MODEL 7
REMARK VINA RESULT:      -6.1     15.308     16.253
REMARK  Name = 
REMARK  6 active torsions:
REMARK  status: ('A' for Active; 'I' for Inactive)
REMARK    1  A    between atoms: O_2  and  C_3
REMARK    2  A    between atoms: C_5  and  O_6
REMARK    3  A    between atoms: C_9  and  N_10
REMARK    4  A    between atoms: N_13  and  C_14
REMARK    5  A    between atoms: C_18  and  N_22
REMARK    6  A    between atoms: C_25  and  C_29
REMARK                            x       y       z     vdW  Elec       q    Type
REMARK                         _______ _______ _______ _____ _____    ______ ____
ROOT
ATOM     14  C   UNL     1      -8.254 -10.089  14.267  0.00  0.00    +0.156 C 
ATOM     15  C   UNL     1      -7.587 -10.192  14.741  0.00  0.00    +0.166 C 
ATOM     16  O   UNL     1      -6.932 -10.268  14.246  0.00  0.00    -0.350 OA
ATOM     17  C   UNL     1      -7.193 -10.212  13.466  0.00  0.00    +0.166 C 
ATOM     18  C   UNL     1      -6.951 -10.225  12.678  0.00  0.00    +0.154 C 
ATOM     19  C   UNL     1      -7.618 -10.121  12.203  0.00  0.00    +0.166 C 
ATOM     20  O   UNL     1      -8.273 -10.045  12.699  0.00  0.00    -0.350 OA
ATOM     21  C   UNL     1      -8.011 -10.101  13.479  0.00  0.00    +0.166 C 
ENDROOT
BRANCH  18  22
ATOM     22  N   UNL     1      -6.176 -10.323  12.411  0.00  0.00    -0.200 NA
ATOM     23  C   UNL     1      -5.834  -9.757  11.918  0.00  0.00    +0.237 A 
ATOM     24  N   UNL     1      -5.061  -9.855  11.650  0.00  0.00    -0.209 NA
ATOM     25  C   UNL     1      -4.719  -9.288  11.157  0.00  0.00    +0.120 A 
ATOM     26  C   UNL     1      -5.152  -8.623  10.932  0.00  0.00    +0.043 A 
ATOM     27  C   UNL     1      -5.926  -8.525  11.199  0.00  0.00    +0.104 A 
ATOM     28  N   UNL     1      -6.267  -9.092  11.692  0.00  0.00    -0.211 NA
BRANCH  25  29
ATOM     29  C   UNL     1      -3.945  -9.386  10.890  0.00  0.00    +0.163 A 
ATOM     30  C   UNL     1      -3.662  -9.192  10.140  0.00  0.00    +0.042 A 
ATOM     31  C   UNL     1      -2.860  -9.382  10.112  0.00  0.00    +0.044 A 
ATOM     32  C   UNL     1      -2.647  -9.693  10.845  0.00  0.00    +0.180 A 
ATOM     33  O   UNL     1      -3.317  -9.696  11.326  0.00  0.00    -0.449 OA
ENDBRANCH  25  29
ENDBRANCH  18  22
BRANCH  14  13
ATOM     10  N   UNL     1      -9.952  -9.444  15.478  0.00  0.00    -0.161 NA
ATOM     11  C   UNL     1      -9.178  -9.542  15.211  0.00  0.00    +0.344 C 
ATOM     12  O   UNL     1      -8.552  -9.192  15.620  0.00  0.00    -0.249 OA
ATOM     13  N   UNL     1      -9.029  -9.990  14.534  0.00  0.00    -0.184 NA
BRANCH  10   9
ATOM      3  C   UNL     1     -10.484  -7.759  16.761  0.00  0.00    +0.143 A 
ATOM      4  C   UNL     1     -10.401  -8.100  17.507  0.00  0.00    +0.074 A 
ATOM      5  C   UNL     1     -10.167  -8.889  17.578  0.00  0.00    +0.143 A 
ATOM      8  C   UNL     1     -10.018  -9.336  16.901  0.00  0.00    +0.054 A 
ATOM      9  C   UNL     1     -10.102  -8.995  16.154  0.00  0.00    +0.081 A 
ATOM     34  C   UNL     1     -10.334  -8.208  16.084  0.00  0.00    +0.054 A 
BRANCH   3   2
ATOM      1  C   UNL     1     -10.526  -6.543  16.012  0.00  0.00    +0.252 C 
ATOM      2  O   UNL     1     -10.717  -6.972  16.691  0.00  0.00    -0.471 OA
ENDBRANCH   3   2
BRANCH   5   6
ATOM      6  O   UNL     1     -10.084  -9.229  18.324  0.00  0.00    -0.471 OA
ATOM      7  C   UNL     1     -10.713  -9.643  18.662  0.00  0.00    +0.252 C 
ENDBRANCH   5   6
ENDBRANCH  10   9
ENDBRANCH  14  13
TORSDOF 6
ENDMDL
MODEL 8
REMARK VINA RESULT:      -5.3     19.002     20.263
REMARK  Name = 
REMARK  6 active torsions:
REMARK  status: ('A' for Active; 'I' for Inactive)
REMARK    1  A    between atoms: O_2  and  C_3
REMARK    2  A    between atoms: C_5  and  O_6
REMARK    3  A    between atoms: C_9  and  N_10
REMARK    4  A    between atoms: N_13  and  C_14
REMARK    5  A    between atoms: C_18  and  N_22
REMARK    6  A    between atoms: C_25  and  C_29
REMARK                            x       y       z     vdW  Elec       q    Type
REMARK                         _______ _______ _______ _____ _____    ______ ____
ROOT
ATOM     14  C   UNL     1      16.265  -7.286  26.322  0.00  0.00    +0.156 C 
ATOM     15  C   UNL     1      15.930  -6.784  26.884  0.00  0.00    +0.166 C 
ATOM     16  O   UNL     1      16.156  -6.012  26.703  0.00  0.00    -0.350 OA
ATOM     17  C   UNL     1      16.631  -6.036  26.029  0.00  0.00    +0.166 C 
ATOM     18  C   UNL     1      17.065  -5.575  25.500  0.00  0.00    +0.154 C 
ATOM     19  C   UNL     1      17.400  -6.077  24.938  0.00  0.00    +0.166 C 
ATOM     20  O   UNL     1      17.173  -6.849  25.120  0.00  0.00    -0.350 OA
ATOM     21  C   UNL     1      16.698  -6.824  25.794  0.00  0.00    +0.166 C 
ENDROOT
BRANCH  18  22
ATOM     22  N   UNL     1      17.148  -4.755  25.529  0.00  0.00    -0.200 NA
ATOM     23  C   UNL     1      17.064  -4.307  24.840  0.00  0.00    +0.237 A 
ATOM     24  N   UNL     1      17.148  -3.487  24.869  0.00  0.00    -0.209 NA
ATOM     25  C   UNL     1      17.064  -3.040  24.181  0.00  0.00    +0.120 A 
ATOM     26  C   UNL     1      16.896  -3.412  23.464  0.00  0.00    +0.043 A 
ATOM     27  C   UNL     1      16.813  -4.233  23.436  0.00  0.00    +0.104 A 
ATOM     28  N   UNL     1      16.897  -4.680  24.124  0.00  0.00    -0.211 NA
BRANCH  25  29
ATOM     29  C   UNL     1      17.148  -2.220  24.209  0.00  0.00    +0.163 A 
ATOM     30  C   UNL     1      17.000  -1.696  23.588  0.00  0.00    +0.042 A 
ATOM     31  C   UNL     1      17.155  -0.932  23.858  0.00  0.00    +0.044 A 
ATOM     32  C   UNL     1      17.397  -0.983  24.644  0.00  0.00    +0.180 A 
ATOM     33  O   UNL     1      17.393  -1.779  24.861  0.00  0.00    -0.449 OA
ENDBRANCH  25  29
ENDBRANCH  18  22
BRANCH  14  13
ATOM     10  N   UNL     1      16.007  -9.356  26.964  0.00  0.00    -0.161 NA
ATOM     11  C   UNL     1      16.091  -8.537  26.992  0.00  0.00    +0.344 C 
ATOM     12  O   UNL     1      16.085  -8.145  27.719  0.00  0.00    -0.249 OA
ATOM     13  N   UNL     1      16.181  -8.106  26.294  0.00  0.00    -0.184 NA
BRANCH  10   9
ATOM      3  C   UNL     1      16.491 -10.490  28.766  0.00  0.00    +0.143 A 
ATOM      4  C   UNL     1      15.736 -10.647  29.059  0.00  0.00    +0.074 A 
ATOM      5  C   UNL     1      15.071 -10.374  28.653  0.00  0.00    +0.143 A 
ATOM      8  C   UNL     1      15.162  -9.944  27.955  0.00  0.00    +0.054 A 
ATOM      9  C   UNL     1      15.917  -9.787  27.662  0.00  0.00    +0.081 A 
ATOM     34  C   UNL     1      16.581 -10.059  28.068  0.00  0.00    +0.054 A 
BRANCH   3   2
ATOM      1  C   UNL     1      17.397 -10.390  29.867  0.00  0.00    +0.252 C 
ATOM      2  O   UNL     1      17.155 -10.762  29.171  0.00  0.00    -0.471 OA
ENDBRANCH   3   2
BRANCH   5   6
ATOM      6  O   UNL     1      14.316 -10.532  28.946  0.00  0.00    -0.471 OA
ATOM      7  C   UNL     1      14.041 -10.133  29.614  0.00  0.00    +0.252 C 
ENDBRANCH   5   6
ENDBRANCH  10   9
ENDBRANCH  14  13
TORSDOF 6
ENDMDL
