MODEL 1
REMARK VINA RESULT:     -10.2      0.000      0.000
REMARK  Name = 
REMARK  8 active torsions:
REMARK  status: ('A' for Active; 'I' for Inactive)
REMARK    1  A    between atoms: O_2  and  C_3
REMARK    2  A    between atoms: C_3  and  C_4
REMARK    3  A    between atoms: C_4  and  N_5
REMARK    4  A    between atoms: N_5  and  C_6
REMARK    5  A    between atoms: C_7  and  C_12
REMARK    6  A    between atoms: C_15  and  C_17
REMARK    7  A    between atoms: N_21  and  C_22
REMARK    8  A    between atoms: C_22  and  C_23
REMARK                            x       y       z     vdW  Elec       q    Type
REMARK                         _______ _______ _______ _____ _____    ______ ____
ROOT
ATOM     12  C   UNL     1      -3.820   1.615  24.621  0.00  0.00    +0.206 A 
ATOM     13  N   UNL     1      -3.666   1.515  23.817  0.00  0.00    -0.056 NA
ATOM     14  O   UNL     1      -3.111   0.910  23.737  0.00  0.00    -0.336 OA
ATOM     15  C   UNL     1      -2.922   0.637  24.492  0.00  0.00    +0.251 A 
ATOM     16  N   UNL     1      -3.360   1.072  25.038  0.00  0.00    -0.190 NA
ENDROOT
BRANCH  12   7
ATOM      6  C   UNL     1      -4.077   2.919  25.148  0.00  0.00    +0.151 A 
ATOM      7  C   UNL     1      -4.342   2.162  24.950  0.00  0.00    +0.072 A 
ATOM      8  C   UNL     1      -5.129   1.954  25.082  0.00  0.00    +0.008 A 
ATOM      9  C   UNL     1      -5.651   2.501  25.411  0.00  0.00    +0.021 A 
ATOM     10  C   UNL     1      -5.387   3.257  25.608  0.00  0.00    +0.100 A 
ATOM     11  N   UNL     1      -4.599   3.466  25.476  0.00  0.00    -0.228 NA
BRANCH   6   5
ATOM      5  N   UNL     1      -3.290   3.127  25.015  0.00  0.00    -0.218 NA
BRANCH   5   4
ATOM      4  C   UNL     1      -3.018   3.874  25.240  0.00  0.00    +0.146 C 
BRANCH   4   3
ATOM      3  C   UNL     1      -2.230   4.081  25.111  0.00  0.00    +0.166 C 
BRANCH   3   2
ATOM      1  C   UNL     1      -1.225   5.096  25.079  0.00  0.00    +0.174 C 
ATOM      2  O   UNL     1      -1.956   4.822  25.348  0.00  0.00    -0.349 OA
ENDBRANCH   3   2
ENDBRANCH   4   3
ENDBRANCH   5   4
ENDBRANCH   6   5
ENDBRANCH  12   7
BRANCH  15  17
ATOM     17  C   UNL     1      -2.387   0.033  24.670  0.00  0.00    +0.138 C 
ATOM     18  C   UNL     1      -1.573   0.120  24.770  0.00  0.00    +0.027 C 
ATOM     19  C   UNL     1      -1.257  -0.623  24.941  0.00  0.00    +0.019 C 
ATOM     20  C   UNL     1      -1.875  -1.168  24.946  0.00  0.00    +0.073 C 
ATOM     21  N   UNL     1      -2.574  -0.763  24.778  0.00  0.00    -0.266 NA
BRANCH  21  22
ATOM     22  C   UNL     1      -3.328  -1.096  24.728  0.00  0.00    +0.072 C 
BRANCH  22  23
ATOM     23  C   UNL     1      -3.429  -1.906  24.846  0.00  0.00    +0.015 C 
ATOM     24  C   UNL     1      -3.530  -2.716  24.963  0.00  0.00    +0.001 C 
ATOM     25  C   UNL     1      -3.411  -2.026  24.029  0.00  0.00    +0.001 C 
ATOM     26  C   UNL     1      -3.447  -1.786  25.661  0.00  0.00    +0.001 C 
ENDBRANCH  22  23
ENDBRANCH  21  22
ENDBRANCH  15  17
TORSDOF 8
ENDMDL
MODEL 2
REMARK VINA RESULT:      -9.7      1.404      3.205
REMARK  Name = 
REMARK  8 active torsions:
REMARK  status: ('A' for Active; 'I' for Inactive)
REMARK    1  A    between atoms: O_2  and  C_3
REMARK    2  A    between atoms: C_3  and  C_4
REMARK    3  A    between atoms: C_4  and  N_5
REMARK    4  A    between atoms: N_5  and  C_6
REMARK    5  A    between atoms: C_7  and  C_12
REMARK    6  A    between atoms: C_15  and  C_17
REMARK    7  A    between atoms: N_21  and  C_22
REMARK    8  A    between atoms: C_22  and  C_23
REMARK                            x       y       z     vdW  Elec       q    Type
REMARK                         _______ _______ _______ _____ _____    ______ ____
ROOT
ATOM     12  C   UNL     1      -2.710   2.923  24.471  0.00  0.00    +0.206 A 
ATOM     13  N   UNL     1      -2.974   2.816  23.696  0.00  0.00    -0.056 NA
ATOM     14  O   UNL     1      -3.645   2.338  23.720  0.00  0.00    -0.336 OA
ATOM     15  C   UNL     1      -3.796   2.150  24.509  0.00  0.00    +0.251 A 
ATOM     16  N   UNL     1      -3.218   2.511  24.972  0.00  0.00    -0.190 NA
ENDROOT
BRANCH  12   7
ATOM      6  C   UNL     1      -1.296   3.040  24.644  0.00  0.00    +0.151 A 
ATOM      7  C   UNL     1      -2.053   3.365  24.702  0.00  0.00    +0.072 A 
ATOM      8  C   UNL     1      -2.151   4.131  24.992  0.00  0.00    +0.008 A 
ATOM      9  C   UNL     1      -1.494   4.572  25.223  0.00  0.00    +0.021 A 
ATOM     10  C   UNL     1      -0.738   4.248  25.165  0.00  0.00    +0.100 A 
ATOM     11  N   UNL     1      -0.639   3.481  24.875  0.00  0.00    -0.228 NA
BRANCH   6   5
ATOM      5  N   UNL     1      -1.197   2.274  24.354  0.00  0.00    -0.218 NA
BRANCH   5   4
ATOM      4  C   UNL     1      -0.473   1.889  24.445  0.00  0.00    +0.146 C 
BRANCH   4   3
ATOM      3  C   UNL     1      -0.321   1.194  24.029  0.00  0.00    +0.166 C 
BRANCH   3   2
ATOM      1  C   UNL     1      -0.081  -0.215  24.018  0.00  0.00    +0.174 C 
ATOM      2  O   UNL     1      -0.244   0.480  24.434  0.00  0.00    -0.349 OA
ENDBRANCH   3   2
ENDBRANCH   4   3
ENDBRANCH   5   4
ENDBRANCH   6   5
ENDBRANCH  12   7
BRANCH  15  17
ATOM     17  C   UNL     1      -4.417   1.681  24.785  0.00  0.00    +0.138 C 
ATOM     18  C   UNL     1      -5.146   1.954  25.059  0.00  0.00    +0.027 C 
ATOM     19  C   UNL     1      -5.597   1.299  25.279  0.00  0.00    +0.019 C 
ATOM     20  C   UNL     1      -5.147   0.622  25.141  0.00  0.00    +0.073 C 
ATOM     21  N   UNL     1      -4.418   0.858  24.836  0.00  0.00    -0.266 NA
BRANCH  21  22
ATOM     22  C   UNL     1      -3.797   0.358  24.619  0.00  0.00    +0.072 C 
BRANCH  22  23
ATOM     23  C   UNL     1      -3.881  -0.460  24.697  0.00  0.00    +0.015 C 
ATOM     24  C   UNL     1      -3.964  -1.276  24.776  0.00  0.00    +0.001 C 
ATOM     25  C   UNL     1      -3.622  -0.410  25.480  0.00  0.00    +0.001 C 
ATOM     26  C   UNL     1      -4.139  -0.508  23.916  0.00  0.00    +0.001 C 
ENDBRANCH  22  23
ENDBRANCH  21  22
ENDBRANCH  15  17
TORSDOF 8
ENDMDL
MODEL 3
REMARK VINA RESULT:      -9.7      1.228      2.404
REMARK  Name = 
REMARK  8 active torsions:
REMARK  status: ('A' for Active; 'I' for Inactive)
REMARK    1  A    between atoms: O_2  and  C_3
REMARK    2  A    between atoms: C_3  and  C_4
REMARK    3  A    between atoms: C_4  and  N_5
REMARK    4  A    between atoms: N_5  and  C_6
REMARK    5  A    between atoms: C_7  and  C_12
REMARK    6  A    between atoms: C_15  and  C_17
REMARK    7  A    between atoms: N_21  and  C_22
REMARK    8  A    between atoms: C_22  and  C_23
REMARK                            x       y       z     vdW  Elec       q    Type
REMARK                         _______ _______ _______ _____ _____    ______ ____
ROOT
ATOM     12  C   UNL     1      -1.797   1.989  24.643  0.00  0.00    +0.206 A 
ATOM     13  N   UNL     1      -1.860   1.760  23.852  0.00  0.00    -0.056 NA
ATOM     14  O   UNL     1      -1.715   0.949  23.810  0.00  0.00    -0.336 OA
ATOM     15  C   UNL     1      -1.562   0.677  24.574  0.00  0.00    +0.251 A 
ATOM     16  N   UNL     1      -1.613   1.319  25.088  0.00  0.00    -0.190 NA
ENDROOT
BRANCH  12   7
ATOM      6  C   UNL     1      -2.660   3.047  25.065  0.00  0.00    +0.151 A 
ATOM      7  C   UNL     1      -1.899   2.753  24.935  0.00  0.00    +0.072 A 
ATOM      8  C   UNL     1      -1.243   3.225  25.099  0.00  0.00    +0.008 A 
ATOM      9  C   UNL     1      -1.345   3.988  25.392  0.00  0.00    +0.021 A 
ATOM     10  C   UNL     1      -2.105   4.282  25.521  0.00  0.00    +0.100 A 
ATOM     11  N   UNL     1      -2.763   3.810  25.357  0.00  0.00    -0.228 NA
BRANCH   6   5
ATOM      5  N   UNL     1      -3.317   2.575  24.901  0.00  0.00    -0.218 NA
BRANCH   5   4
ATOM      4  C   UNL     1      -4.072   2.830  25.120  0.00  0.00    +0.146 C 
BRANCH   4   3
ATOM      3  C   UNL     1      -4.737   2.420  24.855  0.00  0.00    +0.166 C 
BRANCH   3   2
ATOM      1  C   UNL     1      -6.037   1.882  25.102  0.00  0.00    +0.174 C 
ATOM      2  O   UNL     1      -5.382   2.315  25.357  0.00  0.00    -0.349 OA
ENDBRANCH   3   2
ENDBRANCH   4   3
ENDBRANCH   5   4
ENDBRANCH   6   5
ENDBRANCH  12   7
BRANCH  15  17
ATOM     17  C   UNL     1      -1.389  -0.102  24.786  0.00  0.00    +0.138 C 
ATOM     18  C   UNL     1      -0.635  -0.416  24.907  0.00  0.00    +0.027 C 
ATOM     19  C   UNL     1      -0.721  -1.211  25.109  0.00  0.00    +0.019 C 
ATOM     20  C   UNL     1      -1.526  -1.389  25.114  0.00  0.00    +0.073 C 
ATOM     21  N   UNL     1      -1.939  -0.703  24.914  0.00  0.00    -0.266 NA
BRANCH  21  22
ATOM     22  C   UNL     1      -2.759  -0.631  24.853  0.00  0.00    +0.072 C 
BRANCH  22  23
ATOM     23  C   UNL     1      -3.243  -1.282  25.008  0.00  0.00    +0.015 C 
ATOM     24  C   UNL     1      -3.725  -1.932  25.164  0.00  0.00    +0.001 C 
ATOM     25  C   UNL     1      -3.274  -1.068  25.804  0.00  0.00    +0.001 C 
ATOM     26  C   UNL     1      -3.211  -1.495  24.212  0.00  0.00    +0.001 C 
ENDBRANCH  22  23
ENDBRANCH  21  22
ENDBRANCH  15  17
TORSDOF 8
ENDMDL
MODEL 4
REMARK VINA RESULT:      -9.7      1.075      4.300
REMARK  Name = 
REMARK  8 active torsions:
REMARK  status: ('A' for Active; 'I' for Inactive)
REMARK    1  A    between atoms: O_2  and  C_3
REMARK    2  A    between atoms: C_3  and  C_4
REMARK    3  A    between atoms: C_4  and  N_5
REMARK    4  A    between atoms: N_5  and  C_6
REMARK    5  A    between atoms: C_7  and  C_12
REMARK    6  A    between atoms: C_15  and  C_17
REMARK    7  A    between atoms: N_21  and  C_22
REMARK    8  A    between atoms: C_22  and  C_23
REMARK                            x       y       z     vdW  Elec       q    Type
REMARK                         _______ _______ _______ _____ _____    ______ ____
ROOT
ATOM     12  C   UNL     1      -3.616   0.357  24.460  0.00  0.00    +0.206 A 
ATOM     13  N   UNL     1      -3.682   0.728  23.725  0.00  0.00    -0.056 NA
ATOM     14  O   UNL     1      -3.978   1.487  23.850  0.00  0.00    -0.336 OA
ATOM     15  C   UNL     1      -4.095   1.586  24.661  0.00  0.00    +0.251 A 
ATOM     16  N   UNL     1      -3.871   0.887  25.037  0.00  0.00    -0.190 NA
ENDROOT
BRANCH  12   7
ATOM      6  C   UNL     1      -2.531  -0.564  24.600  0.00  0.00    +0.151 A 
ATOM      7  C   UNL     1      -3.342  -0.410  24.592  0.00  0.00    +0.072 A 
ATOM      8  C   UNL     1      -3.878  -1.024  24.716  0.00  0.00    +0.008 A 
ATOM      9  C   UNL     1      -3.605  -1.790  24.848  0.00  0.00    +0.021 A 
ATOM     10  C   UNL     1      -2.795  -1.944  24.856  0.00  0.00    +0.100 A 
ATOM     11  N   UNL     1      -2.257  -1.330  24.732  0.00  0.00    -0.228 NA
BRANCH   6   5
ATOM      5  N   UNL     1      -1.994   0.051  24.476  0.00  0.00    -0.218 NA
BRANCH   5   4
ATOM      4  C   UNL     1      -1.189  -0.071  24.614  0.00  0.00    +0.146 C 
BRANCH   4   3
ATOM      3  C   UNL     1      -0.633   0.439  24.281  0.00  0.00    +0.166 C 
BRANCH   3   2
ATOM      1  C   UNL     1       0.253   1.551  24.422  0.00  0.00    +0.174 C 
ATOM      2  O   UNL     1      -0.213   0.960  24.762  0.00  0.00    -0.349 OA
ENDBRANCH   3   2
ENDBRANCH   4   3
ENDBRANCH   5   4
ENDBRANCH   6   5
ENDBRANCH  12   7
BRANCH  15  17
ATOM     17  C   UNL     1      -4.385   2.264  25.031  0.00  0.00    +0.138 C 
ATOM     18  C   UNL     1      -5.166   2.395  25.261  0.00  0.00    +0.027 C 
ATOM     19  C   UNL     1      -5.207   3.143  25.607  0.00  0.00    +0.019 C 
ATOM     20  C   UNL     1      -4.453   3.474  25.591  0.00  0.00    +0.073 C 
ATOM     21  N   UNL     1      -3.944   2.931  25.235  0.00  0.00    -0.266 NA
BRANCH  21  22
ATOM     22  C   UNL     1      -3.136   3.037  25.104  0.00  0.00    +0.072 C 
BRANCH  22  23
ATOM     23  C   UNL     1      -2.768   3.737  25.342  0.00  0.00    +0.015 C 
ATOM     24  C   UNL     1      -2.401   4.436  25.579  0.00  0.00    +0.001 C 
ATOM     25  C   UNL     1      -2.589   3.394  26.071  0.00  0.00    +0.001 C 
ATOM     26  C   UNL     1      -2.948   4.078  24.613  0.00  0.00    +0.001 C 
ENDBRANCH  22  23
ENDBRANCH  21  22
ENDBRANCH  15  17
TORSDOF 8
ENDMDL
MODEL 5
REMARK VINA RESULT:      -9.4      1.493      4.083
REMARK  Name = 
REMARK  8 active torsions:
REMARK  status: ('A' for Active; 'I' for Inactive)
REMARK    1  A    between atoms: O_2  and  C_3
REMARK    2  A    between atoms: C_3  and  C_4
REMARK    3  A    between atoms: C_4  and  N_5
REMARK    4  A    between atoms: N_5  and  C_6
REMARK    5  A    between atoms: C_7  and  C_12
REMARK    6  A    between atoms: C_15  and  C_17
REMARK    7  A    between atoms: N_21  and  C_22
REMARK    8  A    between atoms: C_22  and  C_23
REMARK                            x       y       z     vdW  Elec       q    Type
REMARK                         _______ _______ _______ _____ _____    ______ ____
ROOT
ATOM     12  C   UNL     1      -2.486   0.719  24.447  0.00  0.00    +0.206 A 
ATOM     13  N   UNL     1      -2.206   1.095  23.767  0.00  0.00    -0.056 NA
ATOM     14  O   UNL     1      -1.629   1.637  23.996  0.00  0.00    -0.336 OA
ATOM     15  C   UNL     1      -1.551   1.596  24.817  0.00  0.00    +0.251 A 
ATOM     16  N   UNL     1      -2.081   1.029  25.095  0.00  0.00    -0.190 NA
ENDROOT
BRANCH  12   7
ATOM      6  C   UNL     1      -3.859   0.345  24.586  0.00  0.00    +0.151 A 
ATOM      7  C   UNL     1      -3.069   0.135  24.473  0.00  0.00    +0.072 A 
ATOM      8  C   UNL     1      -2.862  -0.659  24.386  0.00  0.00    +0.008 A 
ATOM      9  C   UNL     1      -3.444  -1.242  24.412  0.00  0.00    +0.021 A 
ATOM     10  C   UNL     1      -4.234  -1.032  24.524  0.00  0.00    +0.100 A 
ATOM     11  N   UNL     1      -4.441  -0.238  24.612  0.00  0.00    -0.228 NA
BRANCH   6   5
ATOM      5  N   UNL     1      -4.066   1.139  24.673  0.00  0.00    -0.218 NA
BRANCH   5   4
ATOM      4  C   UNL     1      -4.828   1.342  24.915  0.00  0.00    +0.146 C 
BRANCH   4   3
ATOM      3  C   UNL     1      -5.069   2.131  24.900  0.00  0.00    +0.166 C 
BRANCH   3   2
ATOM      1  C   UNL     1      -5.611   3.272  25.568  0.00  0.00    +0.174 C 
ATOM      2  O   UNL     1      -5.348   2.490  25.588  0.00  0.00    -0.349 OA
ENDBRANCH   3   2
ENDBRANCH   4   3
ENDBRANCH   5   4
ENDBRANCH   6   5
ENDBRANCH  12   7
BRANCH  15  17
ATOM     17  C   UNL     1      -1.034   2.044  25.278  0.00  0.00    +0.138 C 
ATOM     18  C   UNL     1      -0.413   1.751  25.735  0.00  0.00    +0.027 C 
ATOM     19  C   UNL     1      -0.043   2.391  26.102  0.00  0.00    +0.019 C 
ATOM     20  C   UNL     1      -0.435   3.079  25.872  0.00  0.00    +0.073 C 
ATOM     21  N   UNL     1      -1.048   2.865  25.363  0.00  0.00    -0.266 NA
BRANCH  21  22
ATOM     22  C   UNL     1      -1.581   3.381  25.001  0.00  0.00    +0.072 C 
BRANCH  22  23
ATOM     23  C   UNL     1      -1.527   4.193  25.140  0.00  0.00    +0.015 C 
ATOM     24  C   UNL     1      -1.473   5.004  25.279  0.00  0.00    +0.001 C 
ATOM     25  C   UNL     1      -2.109   4.131  25.721  0.00  0.00    +0.001 C 
ATOM     26  C   UNL     1      -0.945   4.254  24.559  0.00  0.00    +0.001 C 
ENDBRANCH  22  23
ENDBRANCH  21  22
ENDBRANCH  15  17
TORSDOF 8
ENDMDL
MODEL 6
REMARK VINA RESULT:      -9.3      1.463      3.941
REMARK  Name = 
REMARK  8 active torsions:
REMARK  status: ('A' for Active; 'I' for Inactive)
REMARK    1  A    between atoms: O_2  and  C_3
REMARK    2  A    between atoms: C_3  and  C_4
REMARK    3  A    between atoms: C_4  and  N_5
REMARK    4  A    between atoms: N_5  and  C_6
REMARK    5  A    between atoms: C_7  and  C_12
REMARK    6  A    between atoms: C_15  and  C_17
REMARK    7  A    between atoms: N_21  and  C_22
REMARK    8  A    between atoms: C_22  and  C_23
REMARK                            x       y       z     vdW  Elec       q    Type
REMARK                         _______ _______ _______ _____ _____    ______ ____
ROOT
ATOM     12  C   UNL     1      -3.990   2.759  24.677  0.00  0.00    +0.206 A 
ATOM     13  N   UNL     1      -3.749   2.818  23.890  0.00  0.00    -0.056 NA
ATOM     14  O   UNL     1      -3.045   3.247  23.871  0.00  0.00    -0.336 OA
ATOM     15  C   UNL     1      -2.851   3.453  24.645  0.00  0.00    +0.251 A 
ATOM     16  N   UNL     1      -3.434   3.152  25.144  0.00  0.00    -0.190 NA
ENDROOT
BRANCH  12   7
ATOM      6  C   UNL     1      -4.677   1.552  25.016  0.00  0.00    +0.151 A 
ATOM      7  C   UNL     1      -4.667   2.375  24.950  0.00  0.00    +0.072 A 
ATOM      8  C   UNL     1      -5.335   2.813  25.156  0.00  0.00    +0.008 A 
ATOM      9  C   UNL     1      -6.012   2.429  25.428  0.00  0.00    +0.021 A 
ATOM     10  C   UNL     1      -6.022   1.607  25.494  0.00  0.00    +0.100 A 
ATOM     11  N   UNL     1      -5.353   1.169  25.288  0.00  0.00    -0.228 NA
BRANCH   6   5
ATOM      5  N   UNL     1      -4.009   1.115  24.810  0.00  0.00    -0.218 NA
BRANCH   5   4
ATOM      4  C   UNL     1      -3.966   0.313  25.001  0.00  0.00    +0.146 C 
BRANCH   4   3
ATOM      3  C   UNL     1      -3.344  -0.147  24.713  0.00  0.00    +0.166 C 
BRANCH   3   2
ATOM      1  C   UNL     1      -2.380  -1.172  24.957  0.00  0.00    +0.174 C 
ATOM      2  O   UNL     1      -2.866  -0.567  25.238  0.00  0.00    -0.349 OA
ENDBRANCH   3   2
ENDBRANCH   4   3
ENDBRANCH   5   4
ENDBRANCH   6   5
ENDBRANCH  12   7
BRANCH  15  17
ATOM     17  C   UNL     1      -2.188   3.886  24.880  0.00  0.00    +0.138 C 
ATOM     18  C   UNL     1      -2.150   4.705  24.970  0.00  0.00    +0.027 C 
ATOM     19  C   UNL     1      -1.385   4.899  25.212  0.00  0.00    +0.019 C 
ATOM     20  C   UNL     1      -0.951   4.201  25.272  0.00  0.00    +0.073 C 
ATOM     21  N   UNL     1      -1.447   3.574  25.067  0.00  0.00    -0.266 NA
BRANCH  21  22
ATOM     22  C   UNL     1      -1.239   2.775  25.052  0.00  0.00    +0.072 C 
BRANCH  22  23
ATOM     23  C   UNL     1      -0.481   2.543  25.281  0.00  0.00    +0.015 C 
ATOM     24  C   UNL     1       0.277   2.311  25.509  0.00  0.00    +0.001 C 
ATOM     25  C   UNL     1      -0.236   2.569  24.493  0.00  0.00    +0.001 C 
ATOM     26  C   UNL     1      -0.726   2.517  26.068  0.00  0.00    +0.001 C 
ENDBRANCH  22  23
ENDBRANCH  21  22
ENDBRANCH  15  17
TORSDOF 8
ENDMDL
