MODEL 1
REMARK VINA RESULT:      -9.8      0.000      0.000
REMARK  Name = 
REMARK  3 active torsions:
REMARK  status: ('A' for Active; 'I' for Inactive)
REMARK    1  A    between atoms: S_2  and  C_3
REMARK    2  A    between atoms: C_7  and  N_8
REMARK    3  A    between atoms: N_11  and  C_12
REMARK                            x       y       z     vdW  Elec       q    Type
REMARK                         _______ _______ _______ _____ _____    ______ ____
ROOT
ATOM      8  N   UNL     1      -3.684   0.016  23.934  0.00  0.00    -0.161 NA
ATOM      9  C   UNL     1      -4.175   0.488  24.398  0.00  0.00    +0.344 C 
ATOM     10  O   UNL     1      -4.569   0.162  25.047  0.00  0.00    -0.249 OA
ATOM     11  N   UNL     1      -4.275   1.287  24.216  0.00  0.00    -0.184 NA
ENDROOT
BRANCH  11  12
ATOM     12  C   UNL     1      -4.766   1.759  24.681  0.00  0.00    +0.156 C 
ATOM     13  C   UNL     1      -5.473   1.522  25.034  0.00  0.00    +0.166 C 
ATOM     14  O   UNL     1      -5.780   2.167  25.446  0.00  0.00    -0.349 OA
ATOM     15  C   UNL     1      -5.264   2.802  25.348  0.00  0.00    +0.177 C 
ATOM     16  C   UNL     1      -5.134   3.594  25.541  0.00  0.00    +0.211 C 
ATOM     17  O   UNL     1      -5.626   4.066  26.006  0.00  0.00    -0.218 OA
ATOM     18  C   UNL     1      -4.428   3.830  25.188  0.00  0.00    +0.178 C 
ATOM     19  O   UNL     1      -4.120   3.185  24.776  0.00  0.00    -0.349 OA
ATOM     20  C   UNL     1      -4.637   2.550  24.875  0.00  0.00    +0.167 C 
ENDBRANCH  11  12
BRANCH   8   7
ATOM      3  C   UNL     1      -2.788  -1.840  24.653  0.00  0.00    +0.027 A 
ATOM      4  C   UNL     1      -3.388  -2.379  24.481  0.00  0.00    +0.006 A 
ATOM      5  C   UNL     1      -4.087  -2.120  24.126  0.00  0.00    +0.002 A 
ATOM      6  C   UNL     1      -4.185  -1.322  23.944  0.00  0.00    +0.017 A 
ATOM      7  C   UNL     1      -3.585  -0.782  24.116  0.00  0.00    +0.075 A 
ATOM     21  C   UNL     1      -2.887  -1.041  24.470  0.00  0.00    +0.023 A 
BRANCH   3   2
ATOM      1  C   UNL     1      -1.489  -2.427  24.545  0.00  0.00    +0.074 C 
ATOM      2  S   UNL     1      -2.090  -2.099  25.007  0.00  0.00    -0.113 S 
ENDBRANCH   3   2
ENDBRANCH   8   7
TORSDOF 3
ENDMDL
MODEL 2
REMARK VINA RESULT:      -9.6      1.695      2.272
REMARK  Name = 
REMARK  3 active torsions:
REMARK  status: ('A' for Active; 'I' for Inactive)
REMARK    1  A    between atoms: S_2  and  C_3
REMARK    2  A    between atoms: C_7  and  N_8
REMARK    3  A    between atoms: N_11  and  C_12
REMARK                            x       y       z     vdW  Elec       q    Type
REMARK                         _______ _______ _______ _____ _____    ______ ____
ROOT
ATOM      8  N   UNL     1      -4.106   0.581  24.973  0.00  0.00    -0.161 NA
ATOM      9  C   UNL     1      -3.498   1.132  24.886  0.00  0.00    +0.344 C 
ATOM     10  O   UNL     1      -2.712   0.880  24.870  0.00  0.00    -0.249 OA
ATOM     11  N   UNL     1      -3.675   1.934  24.816  0.00  0.00    -0.184 NA
ENDROOT
BRANCH  11  12
ATOM     12  C   UNL     1      -3.067   2.485  24.729  0.00  0.00    +0.156 C 
ATOM     13  C   UNL     1      -2.461   2.454  24.170  0.00  0.00    +0.166 C 
ATOM     14  O   UNL     1      -1.978   3.113  24.281  0.00  0.00    -0.349 OA
ATOM     15  C   UNL     1      -2.285   3.552  24.908  0.00  0.00    +0.177 C 
ATOM     16  C   UNL     1      -2.177   4.230  25.365  0.00  0.00    +0.211 C 
ATOM     17  O   UNL     1      -1.568   4.781  25.278  0.00  0.00    -0.218 OA
ATOM     18  C   UNL     1      -2.783   4.261  25.924  0.00  0.00    +0.178 C 
ATOM     19  O   UNL     1      -3.266   3.602  25.812  0.00  0.00    -0.349 OA
ATOM     20  C   UNL     1      -2.958   3.163  25.185  0.00  0.00    +0.167 C 
ENDBRANCH  11  12
BRANCH   8   7
ATOM      3  C   UNL     1      -3.936  -1.543  24.501  0.00  0.00    +0.027 A 
ATOM      4  C   UNL     1      -3.575  -1.827  25.187  0.00  0.00    +0.006 A 
ATOM      5  C   UNL     1      -3.391  -1.308  25.802  0.00  0.00    +0.002 A 
ATOM      6  C   UNL     1      -3.569  -0.505  25.730  0.00  0.00    +0.017 A 
ATOM      7  C   UNL     1      -3.929  -0.222  25.044  0.00  0.00    +0.075 A 
ATOM     21  C   UNL     1      -4.113  -0.741  24.430  0.00  0.00    +0.023 A 
BRANCH   3   2
ATOM      1  C   UNL     1      -3.821  -2.832  23.894  0.00  0.00    +0.074 C 
ATOM      2  S   UNL     1      -4.119  -2.062  23.887  0.00  0.00    -0.113 S 
ENDBRANCH   3   2
ENDBRANCH   8   7
TORSDOF 3
ENDMDL
MODEL 3
REMARK VINA RESULT:      -9.4      1.874      4.761
REMARK  Name = 
REMARK  3 active torsions:
REMARK  status: ('A' for Active; 'I' for Inactive)
REMARK    1  A    between atoms: S_2  and  C_3
REMARK    2  A    between atoms: C_7  and  N_8
REMARK    3  A    between atoms: N_11  and  C_12
REMARK                            x       y       z     vdW  Elec       q    Type
REMARK                         _______ _______ _______ _____ _____    ______ ____
ROOT
ATOM      8  N   UNL     1      -4.254   1.533  24.180  0.00  0.00    -0.161 NA
ATOM      9  C   UNL     1      -4.041   0.829  24.552  0.00  0.00    +0.344 C 
ATOM     10  O   UNL     1      -4.002   0.793  25.376  0.00  0.00    -0.249 OA
ATOM     11  N   UNL     1      -3.865   0.160  24.102  0.00  0.00    -0.184 NA
ENDROOT
BRANCH  11  12
ATOM     12  C   UNL     1      -3.651  -0.544  24.475  0.00  0.00    +0.156 C 
ATOM     13  C   UNL     1      -3.203  -0.611  25.165  0.00  0.00    +0.166 C 
ATOM     14  O   UNL     1      -3.123  -1.413  25.340  0.00  0.00    -0.349 OA
ATOM     15  C   UNL     1      -3.522  -1.842  24.759  0.00  0.00    +0.177 C 
ATOM     16  C   UNL     1      -3.719  -2.602  24.508  0.00  0.00    +0.211 C 
ATOM     17  O   UNL     1      -3.505  -3.307  24.881  0.00  0.00    -0.218 OA
ATOM     18  C   UNL     1      -4.167  -2.536  23.819  0.00  0.00    +0.178 C 
ATOM     19  O   UNL     1      -4.247  -1.734  23.644  0.00  0.00    -0.349 OA
ATOM     20  C   UNL     1      -3.848  -1.305  24.225  0.00  0.00    +0.167 C 
ENDBRANCH  11  12
BRANCH   8   7
ATOM      3  C   UNL     1      -4.026   3.443  25.212  0.00  0.00    +0.027 A 
ATOM      4  C   UNL     1      -4.782   3.539  25.529  0.00  0.00    +0.006 A 
ATOM      5  C   UNL     1      -5.361   2.967  25.397  0.00  0.00    +0.002 A 
ATOM      6  C   UNL     1      -5.185   2.298  24.947  0.00  0.00    +0.017 A 
ATOM      7  C   UNL     1      -4.430   2.202  24.630  0.00  0.00    +0.075 A 
ATOM     21  C   UNL     1      -3.851   2.774  24.762  0.00  0.00    +0.023 A 
BRANCH   3   2
ATOM      1  C   UNL     1      -3.108   4.094  26.092  0.00  0.00    +0.074 C 
ATOM      2  S   UNL     1      -3.448   4.015  25.344  0.00  0.00    -0.113 S 
ENDBRANCH   3   2
ENDBRANCH   8   7
TORSDOF 3
ENDMDL
MODEL 4
REMARK VINA RESULT:      -8.9      2.378      4.979
REMARK  Name = 
REMARK  3 active torsions:
REMARK  status: ('A' for Active; 'I' for Inactive)
REMARK    1  A    between atoms: S_2  and  C_3
REMARK    2  A    between atoms: C_7  and  N_8
REMARK    3  A    between atoms: N_11  and  C_12
REMARK                            x       y       z     vdW  Elec       q    Type
REMARK                         _______ _______ _______ _____ _____    ______ ____
ROOT
ATOM      8  N   UNL     1      -3.260   1.527  23.813  0.00  0.00    -0.161 NA
ATOM      9  C   UNL     1      -2.656   1.179  24.253  0.00  0.00    +0.344 C 
ATOM     10  O   UNL     1      -2.492   1.449  25.016  0.00  0.00    -0.249 OA
ATOM     11  N   UNL     1      -2.215   0.560  23.932  0.00  0.00    -0.184 NA
ENDROOT
BRANCH  11  12
ATOM     12  C   UNL     1      -1.611   0.211  24.373  0.00  0.00    +0.156 C 
ATOM     13  C   UNL     1      -0.987   0.608  24.739  0.00  0.00    +0.166 C 
ATOM     14  O   UNL     1      -0.516   0.047  25.117  0.00  0.00    -0.349 OA
ATOM     15  C   UNL     1      -0.847  -0.696  24.985  0.00  0.00    +0.177 C 
ATOM     16  C   UNL     1      -0.761  -1.502  25.137  0.00  0.00    +0.211 C 
ATOM     17  O   UNL     1      -0.157  -1.851  25.578  0.00  0.00    -0.218 OA
ATOM     18  C   UNL     1      -1.385  -1.899  24.771  0.00  0.00    +0.178 C 
ATOM     19  O   UNL     1      -1.856  -1.338  24.393  0.00  0.00    -0.349 OA
ATOM     20  C   UNL     1      -1.524  -0.594  24.525  0.00  0.00    +0.167 C 
ENDBRANCH  11  12
BRANCH   8   7
ATOM      3  C   UNL     1      -4.851   2.608  24.845  0.00  0.00    +0.027 A 
ATOM      4  C   UNL     1      -4.582   3.385  24.776  0.00  0.00    +0.006 A 
ATOM      5  C   UNL     1      -3.873   3.543  24.385  0.00  0.00    +0.002 A 
ATOM      6  C   UNL     1      -3.432   2.923  24.064  0.00  0.00    +0.017 A 
ATOM      7  C   UNL     1      -3.701   2.146  24.134  0.00  0.00    +0.075 A 
ATOM     21  C   UNL     1      -4.410   1.989  24.524  0.00  0.00    +0.023 A 
BRANCH   3   2
ATOM      1  C   UNL     1      -5.682   2.735  26.001  0.00  0.00    +0.074 C 
ATOM      2  S   UNL     1      -5.560   2.451  25.236  0.00  0.00    -0.113 S 
ENDBRANCH   3   2
ENDBRANCH   8   7
TORSDOF 3
ENDMDL
MODEL 5
REMARK VINA RESULT:      -8.8      2.878      3.497
REMARK  Name = 
REMARK  3 active torsions:
REMARK  status: ('A' for Active; 'I' for Inactive)
REMARK    1  A    between atoms: S_2  and  C_3
REMARK    2  A    between atoms: C_7  and  N_8
REMARK    3  A    between atoms: N_11  and  C_12
REMARK                            x       y       z     vdW  Elec       q    Type
REMARK                         _______ _______ _______ _____ _____    ______ ____
ROOT
ATOM      8  N   UNL     1      -1.400  -0.319  25.746  0.00  0.00    -0.161 NA
ATOM      9  C   UNL     1      -1.176   0.356  25.328  0.00  0.00    +0.344 C 
ATOM     10  O   UNL     1      -1.231   0.370  24.505  0.00  0.00    -0.249 OA
ATOM     11  N   UNL     1      -0.896   1.018  25.733  0.00  0.00    -0.184 NA
ENDROOT
BRANCH  11  12
ATOM     12  C   UNL     1      -0.672   1.693  25.315  0.00  0.00    +0.156 C 
ATOM     13  C   UNL     1      -0.137   1.720  24.688  0.00  0.00    +0.166 C 
ATOM     14  O   UNL     1      -0.079   2.503  24.437  0.00  0.00    -0.349 OA
ATOM     15  C   UNL     1      -0.577   2.961  24.908  0.00  0.00    +0.177 C 
ATOM     16  C   UNL     1      -0.849   3.727  25.045  0.00  0.00    +0.211 C 
ATOM     17  O   UNL     1      -0.625   4.403  24.627  0.00  0.00    -0.218 OA
ATOM     18  C   UNL     1      -1.384   3.701  25.672  0.00  0.00    +0.178 C 
ATOM     19  O   UNL     1      -1.443   2.917  25.923  0.00  0.00    -0.349 OA
ATOM     20  C   UNL     1      -0.944   2.460  25.451  0.00  0.00    +0.167 C 
ENDBRANCH  11  12
BRANCH   8   7
ATOM      3  C   UNL     1      -2.770  -1.782  24.881  0.00  0.00    +0.027 A 
ATOM      4  C   UNL     1      -2.238  -2.306  24.531  0.00  0.00    +0.006 A 
ATOM      5  C   UNL     1      -1.426  -2.168  24.585  0.00  0.00    +0.002 A 
ATOM      6  C   UNL     1      -1.147  -1.505  24.990  0.00  0.00    +0.017 A 
ATOM      7  C   UNL     1      -1.679  -0.982  25.341  0.00  0.00    +0.075 A 
ATOM     21  C   UNL     1      -2.490  -1.120  25.286  0.00  0.00    +0.023 A 
BRANCH   3   2
ATOM      1  C   UNL     1      -3.939  -1.996  24.087  0.00  0.00    +0.074 C 
ATOM      2  S   UNL     1      -3.581  -1.921  24.827  0.00  0.00    -0.113 S 
ENDBRANCH   3   2
ENDBRANCH   8   7
TORSDOF 3
ENDMDL
