REMARK  Name = 
REMARK  5 active torsions:
REMARK  status: ('A' for Active; 'I' for Inactive)
REMARK    1  A    between atoms: C_4  and  C_17
REMARK    2  A    between atoms: N_5  and  C_6
REMARK    3  A    between atoms: C_6  and  C_7
REMARK    4  A    between atoms: C_10  and  C_13
REMARK    5  A    between atoms: C_19  and  C_22
REMARK                            x       y       z     vdW  Elec       q    Type
REMARK                         _______ _______ _______ _____ _____    ______ ____
ROOT
ATOM      1  O   UNL     1       2.726  -1.174   0.000  0.00  0.00    -0.222 OA
ATOM      2  C   UNL     1       1.941  -1.429   0.000  0.00  0.00    +0.170 C 
ATOM      3  C   UNL     1       1.687  -2.213   0.000  0.00  0.00    +0.060 C 
ATOM      4  C   UNL     1       0.862  -2.213   0.000  0.00  0.00    +0.140 C 
ATOM      5  N   UNL     1       0.607  -1.429   0.000  0.00  0.00    -0.260 NA
ATOM     16  C   UNL     1       1.274  -0.944   0.000  0.00  0.00    +0.106 C 
ENDROOT
BRANCH   4  17
ATOM     17  C   UNL     1       0.377  -2.881   0.000  0.00  0.00    +0.251 A 
ATOM     18  N   UNL     1       0.631  -3.665   0.000  0.00  0.00    -0.194 NA
ATOM     19  C   UNL     1      -0.036  -4.150   0.000  0.00  0.00    +0.180 A 
ATOM     20  N   UNL     1      -0.703  -3.665   0.000  0.00  0.00    -0.061 NA
ATOM     21  O   UNL     1      -0.448  -2.881   0.000  0.00  0.00    -0.336 OA
BRANCH  19  22
ATOM     22  C   UNL     1      -0.036  -4.975   0.000  0.00  0.00    +0.062 C 
ATOM     23  C   UNL     1       0.377  -5.690   0.000  0.00  0.00    +0.008 C 
ATOM     24  C   UNL     1      -0.448  -5.690   0.000  0.00  0.00    +0.008 C 
ENDBRANCH  19  22
ENDBRANCH   4  17
BRANCH   5   6
ATOM      6  C   UNL     1      -0.178  -1.174   0.000  0.00  0.00    +0.100 C 
BRANCH   6   7
ATOM      7  C   UNL     1      -0.350  -0.367   0.000  0.00  0.00    -0.006 A 
ATOM      8  C   UNL     1      -1.134  -0.112   0.000  0.00  0.00    -0.003 A 
ATOM      9  C   UNL     1      -1.306   0.695   0.000  0.00  0.00    +0.006 A 
ATOM     10  C   UNL     1      -0.693   1.247   0.000  0.00  0.00    +0.080 A 
ATOM     11  C   UNL     1       0.092   0.992   0.000  0.00  0.00    +0.006 A 
ATOM     12  C   UNL     1       0.264   0.185   0.000  0.00  0.00    -0.003 A 
BRANCH  10  13
ATOM     13  C   UNL     1      -0.864   2.054   0.000  0.00  0.00    +0.388 C 
ATOM     14  O   UNL     1      -0.251   2.606   0.000  0.00  0.00    -0.241 OA
ATOM     15  O   UNL     1      -1.649   2.309   0.000  0.00  0.00    -0.241 OA
ENDBRANCH  10  13
ENDBRANCH   6   7
ENDBRANCH   5   6
TORSDOF 5
