MODEL 1
REMARK VINA RESULT:     -15.6      0.000      0.000
REMARK  Name = 
REMARK  3 active torsions:
REMARK  status: ('A' for Active; 'I' for Inactive)
REMARK    1  A    between atoms: C_5  and  C_6
REMARK    2  A    between atoms: N_17  and  S_19
REMARK    3  A    between atoms: S_19  and  C_22
REMARK                            x       y       z     vdW  Elec       q    Type
REMARK                         _______ _______ _______ _____ _____    ______ ____
ROOT
ATOM      1  O   UNL     1      -3.005   3.227  25.121  0.00  0.00    -0.267 OA
ATOM      2  C   UNL     1      -3.176   2.428  25.008  0.00  0.00    +0.261 A 
ATOM      3  C   UNL     1      -2.564   1.888  24.888  0.00  0.00    +0.061 A 
ATOM      4  C   UNL     1      -2.735   1.089  24.775  0.00  0.00    +0.006 A 
ATOM      5  C   UNL     1      -3.518   0.829  24.782  0.00  0.00    +0.012 A 
ATOM     12  C   UNL     1      -4.130   1.369  24.902  0.00  0.00    +0.041 A 
ATOM     13  C   UNL     1      -5.046   1.407  24.963  0.00  0.00    +0.056 C 
ATOM     14  C   UNL     1      -5.617   1.000  24.934  0.00  0.00    +0.011 C 
ATOM     15  C   UNL     1      -5.445   1.788  25.045  0.00  0.00    +0.041 C 
ATOM     16  C   UNL     1      -5.441   2.765  25.196  0.00  0.00    +0.098 C 
ATOM     17  N   UNL     1      -4.618   2.907  25.168  0.00  0.00    -0.155 NA
ATOM     18  C   UNL     1      -5.059   2.351  25.109  0.00  0.00    +0.102 C 
ATOM     28  C   UNL     1      -4.487   1.758  24.983  0.00  0.00    +0.110 C 
ATOM     29  N   UNL     1      -3.959   2.168  25.015  0.00  0.00    -0.299 N 
ENDROOT
BRANCH   5   6
ATOM      6  C   UNL     1      -3.689   0.030  24.669  0.00  0.00    +0.001 A 
ATOM      7  C   UNL     1      -3.701  -0.484  25.314  0.00  0.00    +0.000 A 
ATOM      8  C   UNL     1      -3.872  -1.284  25.201  0.00  0.00    +0.000 A 
ATOM      9  C   UNL     1      -4.031  -1.569  24.444  0.00  0.00    +0.000 A 
ATOM     10  C   UNL     1      -4.019  -1.055  23.799  0.00  0.00    +0.000 A 
ATOM     11  C   UNL     1      -3.848  -0.255  23.912  0.00  0.00    +0.000 A 
ENDBRANCH   5   6
BRANCH  17  19
ATOM     19  S   UNL     1      -3.908   3.328  25.190  0.00  0.00    +0.063 S 
ATOM     20  O   UNL     1      -3.950   3.442  24.374  0.00  0.00    -0.153 OA
ATOM     21  O   UNL     1      -3.866   3.214  26.007  0.00  0.00    -0.153 OA
BRANCH  19  22
ATOM     22  C   UNL     1      -3.199   3.749  25.213  0.00  0.00    +0.122 A 
ATOM     23  C   UNL     1      -2.877   4.051  24.516  0.00  0.00    +0.020 A 
ATOM     24  C   UNL     1      -2.167   4.472  24.538  0.00  0.00    +0.001 A 
ATOM     25  C   UNL     1      -1.781   4.591  25.257  0.00  0.00    +0.000 A 
ATOM     26  C   UNL     1      -2.103   4.288  25.954  0.00  0.00    +0.001 A 
ATOM     27  C   UNL     1      -2.812   3.867  25.931  0.00  0.00    +0.020 A 
ENDBRANCH  19  22
ENDBRANCH  17  19
TORSDOF 3
ENDMDL
MODEL 2
REMARK VINA RESULT:     -15.1      1.378      2.470
REMARK  Name = 
REMARK  3 active torsions:
REMARK  status: ('A' for Active; 'I' for Inactive)
REMARK    1  A    between atoms: C_5  and  C_6
REMARK    2  A    between atoms: N_17  and  S_19
REMARK    3  A    between atoms: S_19  and  C_22
REMARK                            x       y       z     vdW  Elec       q    Type
REMARK                         _______ _______ _______ _____ _____    ______ ____
ROOT
ATOM      1  O   UNL     1      -3.514   2.147  24.621  0.00  0.00    -0.267 OA
ATOM      2  C   UNL     1      -3.532   1.322  24.645  0.00  0.00    +0.261 A 
ATOM      3  C   UNL     1      -4.250   0.928  24.742  0.00  0.00    +0.061 A 
ATOM      4  C   UNL     1      -4.268   0.103  24.767  0.00  0.00    +0.006 A 
ATOM      5  C   UNL     1      -3.568  -0.327  24.695  0.00  0.00    +0.012 A 
ATOM     12  C   UNL     1      -2.850   0.067  24.598  0.00  0.00    +0.041 A 
ATOM     13  C   UNL     1      -1.952  -0.100  24.495  0.00  0.00    +0.056 C 
ATOM     14  C   UNL     1      -1.492  -0.628  24.454  0.00  0.00    +0.011 C 
ATOM     15  C   UNL     1      -1.478   0.186  24.430  0.00  0.00    +0.041 C 
ATOM     16  C   UNL     1      -1.258   1.148  24.377  0.00  0.00    +0.098 C 
ATOM     17  N   UNL     1      -2.023   1.471  24.460  0.00  0.00    -0.155 NA
ATOM     18  C   UNL     1      -1.723   0.826  24.442  0.00  0.00    +0.102 C 
ATOM     28  C   UNL     1      -2.414   0.370  24.537  0.00  0.00    +0.110 C 
ATOM     29  N   UNL     1      -2.832   0.892  24.573  0.00  0.00    -0.299 N 
ENDROOT
BRANCH   5   6
ATOM      6  C   UNL     1      -3.586  -1.152  24.719  0.00  0.00    +0.001 A 
ATOM      7  C   UNL     1      -3.761  -1.581  24.037  0.00  0.00    +0.000 A 
ATOM      8  C   UNL     1      -3.778  -2.406  24.062  0.00  0.00    +0.000 A 
ATOM      9  C   UNL     1      -3.621  -2.801  24.769  0.00  0.00    +0.000 A 
ATOM     10  C   UNL     1      -3.446  -2.372  25.451  0.00  0.00    +0.000 A 
ATOM     11  C   UNL     1      -3.428  -1.547  25.426  0.00  0.00    +0.000 A 
ENDBRANCH   5   6
BRANCH  17  19
ATOM     19  S   UNL     1      -2.615   2.044  24.516  0.00  0.00    +0.063 S 
ATOM     20  O   UNL     1      -2.512   2.071  25.334  0.00  0.00    -0.153 OA
ATOM     21  O   UNL     1      -2.718   2.017  23.697  0.00  0.00    -0.153 OA
BRANCH  19  22
ATOM     22  C   UNL     1      -3.207   2.617  24.571  0.00  0.00    +0.122 A 
ATOM     23  C   UNL     1      -3.594   2.876  23.891  0.00  0.00    +0.020 A 
ATOM     24  C   UNL     1      -4.186   3.449  23.946  0.00  0.00    +0.001 A 
ATOM     25  C   UNL     1      -4.389   3.761  24.682  0.00  0.00    +0.000 A 
ATOM     26  C   UNL     1      -4.001   3.502  25.362  0.00  0.00    +0.001 A 
ATOM     27  C   UNL     1      -3.410   2.930  25.306  0.00  0.00    +0.020 A 
ENDBRANCH  19  22
ENDBRANCH  17  19
TORSDOF 3
ENDMDL
MODEL 3
REMARK VINA RESULT:     -15.0      1.511      3.904
REMARK  Name = 
REMARK  3 active torsions:
REMARK  status: ('A' for Active; 'I' for Inactive)
REMARK    1  A    between atoms: C_5  and  C_6
REMARK    2  A    between atoms: N_17  and  S_19
REMARK    3  A    between atoms: S_19  and  C_22
REMARK                            x       y       z     vdW  Elec       q    Type
REMARK                         _______ _______ _______ _____ _____    ______ ____
ROOT
ATOM      1  O   UNL     1      -3.448  -0.369  24.812  0.00  0.00    -0.267 OA
ATOM      2  C   UNL     1      -3.021   0.336  24.844  0.00  0.00    +0.261 A 
ATOM      3  C   UNL     1      -2.199   0.318  24.910  0.00  0.00    +0.061 A 
ATOM      4  C   UNL     1      -1.771   1.023  24.942  0.00  0.00    +0.006 A 
ATOM      5  C   UNL     1      -2.166   1.746  24.908  0.00  0.00    +0.012 A 
ATOM     12  C   UNL     1      -2.988   1.765  24.841  0.00  0.00    +0.041 A 
ATOM     13  C   UNL     1      -3.686   2.360  24.783  0.00  0.00    +0.056 C 
ATOM     14  C   UNL     1      -3.823   3.048  24.770  0.00  0.00    +0.011 C 
ATOM     15  C   UNL     1      -4.242   2.350  24.739  0.00  0.00    +0.041 C 
ATOM     16  C   UNL     1      -4.914   1.627  24.687  0.00  0.00    +0.098 C 
ATOM     17  N   UNL     1      -4.409   0.963  24.730  0.00  0.00    -0.155 NA
ATOM     18  C   UNL     1      -4.347   1.673  24.733  0.00  0.00    +0.102 C 
ATOM     28  C   UNL     1      -3.519   1.721  24.799  0.00  0.00    +0.110 C 
ATOM     29  N   UNL     1      -3.415   1.060  24.810  0.00  0.00    -0.299 N 
ENDROOT
BRANCH   5   6
ATOM      6  C   UNL     1      -1.739   2.451  24.939  0.00  0.00    +0.001 A 
ATOM      7  C   UNL     1      -1.442   2.785  24.246  0.00  0.00    +0.000 A 
ATOM      8  C   UNL     1      -1.014   3.491  24.278  0.00  0.00    +0.000 A 
ATOM      9  C   UNL     1      -0.884   3.862  25.003  0.00  0.00    +0.000 A 
ATOM     10  C   UNL     1      -1.181   3.528  25.696  0.00  0.00    +0.000 A 
ATOM     11  C   UNL     1      -1.608   2.823  25.664  0.00  0.00    +0.000 A 
ENDBRANCH   5   6
BRANCH  17  19
ATOM     19  S   UNL     1      -4.180   0.170  24.751  0.00  0.00    +0.063 S 
ATOM     20  O   UNL     1      -4.277   0.164  25.571  0.00  0.00    -0.153 OA
ATOM     21  O   UNL     1      -4.082   0.177  23.932  0.00  0.00    -0.153 OA
BRANCH  19  22
ATOM     22  C   UNL     1      -3.950  -0.622  24.773  0.00  0.00    +0.122 A 
ATOM     23  C   UNL     1      -3.792  -0.986  25.495  0.00  0.00    +0.020 A 
ATOM     24  C   UNL     1      -3.563  -1.779  25.517  0.00  0.00    +0.001 A 
ATOM     25  C   UNL     1      -3.493  -2.206  24.815  0.00  0.00    +0.000 A 
ATOM     26  C   UNL     1      -3.651  -1.842  24.092  0.00  0.00    +0.001 A 
ATOM     27  C   UNL     1      -3.880  -1.049  24.071  0.00  0.00    +0.020 A 
ENDBRANCH  19  22
ENDBRANCH  17  19
TORSDOF 3
ENDMDL
