MODEL 1
REMARK VINA RESULT:      -9.7      0.000      0.000
REMARK  Name = 
REMARK  7 active torsions:
REMARK  status: ('A' for Active; 'I' for Inactive)
REMARK    1  A    between atoms: C_2  and  C_3
REMARK    2  A    between atoms: C_8  and  C_9
REMARK    3  A    between atoms: C_9  and  C_10
REMARK    4  A    between atoms: N_12  and  C_14
REMARK    5  A    between atoms: C_14  and  C_15
REMARK    6  A    between atoms: N_19  and  C_20
REMARK    7  A    between atoms: C_24  and  O_25
REMARK                            x       y       z     vdW  Elec       q    Type
REMARK                         _______ _______ _______ _____ _____    ______ ____
ROOT
ATOM      3  C   UNL     1      -4.425   2.357  25.153  0.00  0.00    +0.020 C 
ATOM      4  C   UNL     1      -4.560   1.551  25.044  0.00  0.00    +0.095 C 
ATOM      5  N   UNL     1      -3.948   1.061  24.785  0.00  0.00    -0.263 N 
ATOM      6  C   UNL     1      -3.202   1.378  24.635  0.00  0.00    +0.095 C 
ATOM      7  C   UNL     1      -3.066   2.184  24.744  0.00  0.00    +0.022 C 
ATOM      8  C   UNL     1      -3.678   2.673  25.003  0.00  0.00    +0.012 C 
ATOM     17  C   UNL     1      -4.084   0.255  24.676  0.00  0.00    +0.327 C 
ATOM     18  O   UNL     1      -4.831  -0.062  24.825  0.00  0.00    -0.250 OA
ATOM     19  N   UNL     1      -3.473  -0.235  24.417  0.00  0.00    -0.162 NA
ENDROOT
BRANCH  19  20
ATOM     20  C   UNL     1      -3.608  -1.041  24.307  0.00  0.00    +0.078 A 
ATOM     21  C   UNL     1      -4.254  -1.294  23.859  0.00  0.00    +0.017 A 
ATOM     22  C   UNL     1      -4.388  -2.101  23.750  0.00  0.00    +0.004 A 
ATOM     23  C   UNL     1      -3.879  -2.653  24.087  0.00  0.00    +0.037 A 
ATOM     24  C   UNL     1      -3.234  -2.401  24.535  0.00  0.00    +0.140 A 
ATOM     27  C   UNL     1      -3.099  -1.594  24.645  0.00  0.00    +0.054 A 
BRANCH  24  25
ATOM     25  O   UNL     1      -2.724  -2.955  24.873  0.00  0.00    -0.471 OA
ATOM     26  C   UNL     1      -1.923  -2.948  24.681  0.00  0.00    +0.252 C 
ENDBRANCH  24  25
ENDBRANCH  19  20
BRANCH   3   2
ATOM      1  C   UNL     1      -5.810   2.562  25.439  0.00  0.00    +0.000 C 
ATOM      2  C   UNL     1      -5.036   2.847  25.412  0.00  0.00    +0.002 C 
ENDBRANCH   3   2
BRANCH   8   9
ATOM      9  C   UNL     1      -3.542   3.480  25.112  0.00  0.00    +0.085 C 
BRANCH   9  10
ATOM     10  C   UNL     1      -2.837   3.738  25.457  0.00  0.00    +0.226 C 
ATOM     11  O   UNL     1      -2.509   3.318  26.087  0.00  0.00    -0.275 OA
ATOM     12  N   UNL     1      -2.462   4.414  25.171  0.00  0.00    -0.265 N 
ATOM     13  C   UNL     1      -2.791   4.834  24.541  0.00  0.00    +0.116 C 
BRANCH  12  14
ATOM     14  C   UNL     1      -1.758   4.670  25.515  0.00  0.00    +0.200 C 
BRANCH  14  15
ATOM     15  C   UNL     1      -1.201   5.076  25.060  0.00  0.00    +0.095 C 
ATOM     16  N   UNL     1      -0.644   5.482  24.607  0.00  0.00    -0.194 NA
ENDBRANCH  14  15
ENDBRANCH  12  14
ENDBRANCH   9  10
ENDBRANCH   8   9
TORSDOF 7
ENDMDL
MODEL 2
REMARK VINA RESULT:      -9.0      1.279      5.477
REMARK  Name = 
REMARK  7 active torsions:
REMARK  status: ('A' for Active; 'I' for Inactive)
REMARK    1  A    between atoms: C_2  and  C_3
REMARK    2  A    between atoms: C_8  and  C_9
REMARK    3  A    between atoms: C_9  and  C_10
REMARK    4  A    between atoms: N_12  and  C_14
REMARK    5  A    between atoms: C_14  and  C_15
REMARK    6  A    between atoms: N_19  and  C_20
REMARK    7  A    between atoms: C_24  and  O_25
REMARK                            x       y       z     vdW  Elec       q    Type
REMARK                         _______ _______ _______ _____ _____    ______ ____
ROOT
ATOM      3  C   UNL     1      -4.552   1.246  24.809  0.00  0.00    +0.020 C 
ATOM      4  C   UNL     1      -4.248   2.011  24.871  0.00  0.00    +0.095 C 
ATOM      5  N   UNL     1      -3.434   2.128  24.933  0.00  0.00    -0.263 N 
ATOM      6  C   UNL     1      -2.923   1.481  24.934  0.00  0.00    +0.095 C 
ATOM      7  C   UNL     1      -3.226   0.717  24.872  0.00  0.00    +0.022 C 
ATOM      8  C   UNL     1      -4.040   0.599  24.810  0.00  0.00    +0.012 C 
ATOM     17  C   UNL     1      -3.131   2.893  24.995  0.00  0.00    +0.327 C 
ATOM     18  O   UNL     1      -3.642   3.540  24.995  0.00  0.00    -0.250 OA
ATOM     19  N   UNL     1      -2.317   3.010  25.058  0.00  0.00    -0.162 NA
ENDROOT
BRANCH  19  20
ATOM     20  C   UNL     1      -2.013   3.775  25.119  0.00  0.00    +0.078 A 
ATOM     21  C   UNL     1      -2.434   4.354  25.531  0.00  0.00    +0.017 A 
ATOM     22  C   UNL     1      -2.130   5.118  25.593  0.00  0.00    +0.004 A 
ATOM     23  C   UNL     1      -1.408   5.304  25.244  0.00  0.00    +0.037 A 
ATOM     24  C   UNL     1      -0.987   4.726  24.833  0.00  0.00    +0.140 A 
ATOM     27  C   UNL     1      -1.290   3.961  24.771  0.00  0.00    +0.054 A 
BRANCH  24  25
ATOM     25  O   UNL     1      -0.263   4.913  24.483  0.00  0.00    -0.471 OA
ATOM     26  C   UNL     1      -0.108   4.681  23.708  0.00  0.00    +0.252 C 
ENDBRANCH  24  25
ENDBRANCH  19  20
BRANCH   3   2
ATOM      1  C   UNL     1      -5.888   1.725  24.977  0.00  0.00    +0.000 C 
ATOM      2  C   UNL     1      -5.366   1.129  24.747  0.00  0.00    +0.002 C 
ENDBRANCH   3   2
BRANCH   8   9
ATOM      9  C   UNL     1      -4.344  -0.166  24.748  0.00  0.00    +0.085 C 
BRANCH   9  10
ATOM     10  C   UNL     1      -3.934  -0.801  25.081  0.00  0.00    +0.226 C 
ATOM     11  O   UNL     1      -3.562  -0.713  25.813  0.00  0.00    -0.275 OA
ATOM     12  N   UNL     1      -3.897  -1.522  24.683  0.00  0.00    -0.265 N 
ATOM     13  C   UNL     1      -4.268  -1.609  23.951  0.00  0.00    +0.116 C 
BRANCH  12  14
ATOM     14  C   UNL     1      -3.487  -2.155  25.016  0.00  0.00    +0.200 C 
BRANCH  14  15
ATOM     15  C   UNL     1      -3.476  -2.887  24.632  0.00  0.00    +0.095 C 
ATOM     16  N   UNL     1      -3.465  -3.617  24.250  0.00  0.00    -0.194 NA
ENDBRANCH  14  15
ENDBRANCH  12  14
ENDBRANCH   9  10
ENDBRANCH   8   9
TORSDOF 7
ENDMDL
MODEL 3
REMARK VINA RESULT:      -8.7      2.791      4.695
REMARK  Name = 
REMARK  7 active torsions:
REMARK  status: ('A' for Active; 'I' for Inactive)
REMARK    1  A    between atoms: C_2  and  C_3
REMARK    2  A    between atoms: C_8  and  C_9
REMARK    3  A    between atoms: C_9  and  C_10
REMARK    4  A    between atoms: N_12  and  C_14
REMARK    5  A    between atoms: C_14  and  C_15
REMARK    6  A    between atoms: N_19  and  C_20
REMARK    7  A    between atoms: C_24  and  O_25
REMARK                            x       y       z     vdW  Elec       q    Type
REMARK                         _______ _______ _______ _____ _____    ______ ____
ROOT
ATOM      3  C   UNL     1      -1.627  -0.485  24.694  0.00  0.00    +0.020 C 
ATOM      4  C   UNL     1      -2.382  -0.239  24.917  0.00  0.00    +0.095 C 
ATOM      5  N   UNL     1      -2.665   0.497  24.673  0.00  0.00    -0.263 N 
ATOM      6  C   UNL     1      -2.192   0.987  24.208  0.00  0.00    +0.095 C 
ATOM      7  C   UNL     1      -1.437   0.741  23.985  0.00  0.00    +0.022 C 
ATOM      8  C   UNL     1      -1.155   0.005  24.228  0.00  0.00    +0.012 C 
ATOM     17  C   UNL     1      -3.420   0.743  24.896  0.00  0.00    +0.327 C 
ATOM     18  O   UNL     1      -3.893   0.253  25.362  0.00  0.00    -0.250 OA
ATOM     19  N   UNL     1      -3.703   1.479  24.653  0.00  0.00    -0.162 NA
ENDROOT
BRANCH  19  20
ATOM     20  C   UNL     1      -4.458   1.725  24.875  0.00  0.00    +0.078 A 
ATOM     21  C   UNL     1      -5.120   1.301  24.624  0.00  0.00    +0.017 A 
ATOM     22  C   UNL     1      -5.876   1.548  24.846  0.00  0.00    +0.004 A 
ATOM     23  C   UNL     1      -5.969   2.216  25.319  0.00  0.00    +0.037 A 
ATOM     24  C   UNL     1      -5.307   2.640  25.570  0.00  0.00    +0.140 A 
ATOM     27  C   UNL     1      -4.551   2.394  25.348  0.00  0.00    +0.054 A 
BRANCH  24  25
ATOM     25  O   UNL     1      -5.401   3.309  26.043  0.00  0.00    -0.471 OA
ATOM     26  C   UNL     1      -5.543   4.043  25.695  0.00  0.00    +0.252 C 
ENDBRANCH  24  25
ENDBRANCH  19  20
BRANCH   3   2
ATOM      1  C   UNL     1      -1.862  -1.858  25.013  0.00  0.00    +0.000 C 
ATOM      2  C   UNL     1      -1.344  -1.221  24.938  0.00  0.00    +0.002 C 
ENDBRANCH   3   2
BRANCH   8   9
ATOM      9  C   UNL     1      -0.399  -0.241  24.005  0.00  0.00    +0.085 C 
BRANCH   9  10
ATOM     10  C   UNL     1       0.188   0.319  23.849  0.00  0.00    +0.226 C 
ATOM     11  O   UNL     1       0.148   1.066  24.196  0.00  0.00    -0.275 OA
ATOM     12  N   UNL     1       0.815   0.129  23.347  0.00  0.00    -0.265 N 
ATOM     13  C   UNL     1       0.855  -0.619  23.001  0.00  0.00    +0.116 C 
BRANCH  12  14
ATOM     14  C   UNL     1       1.401   0.688  23.192  0.00  0.00    +0.200 C 
BRANCH  14  15
ATOM     15  C   UNL     1       2.103   0.458  22.824  0.00  0.00    +0.095 C 
ATOM     16  N   UNL     1       2.805   0.227  22.458  0.00  0.00    -0.194 NA
ENDBRANCH  14  15
ENDBRANCH  12  14
ENDBRANCH   9  10
ENDBRANCH   8   9
TORSDOF 7
ENDMDL
MODEL 4
REMARK VINA RESULT:      -8.6      2.961      4.877
REMARK  Name = 
REMARK  7 active torsions:
REMARK  status: ('A' for Active; 'I' for Inactive)
REMARK    1  A    between atoms: C_2  and  C_3
REMARK    2  A    between atoms: C_8  and  C_9
REMARK    3  A    between atoms: C_9  and  C_10
REMARK    4  A    between atoms: N_12  and  C_14
REMARK    5  A    between atoms: C_14  and  C_15
REMARK    6  A    between atoms: N_19  and  C_20
REMARK    7  A    between atoms: C_24  and  O_25
REMARK                            x       y       z     vdW  Elec       q    Type
REMARK                         _______ _______ _______ _____ _____    ______ ____
ROOT
ATOM      3  C   UNL     1      -0.543   2.176  25.248  0.00  0.00    +0.020 C 
ATOM      4  C   UNL     1      -1.280   2.461  25.483  0.00  0.00    +0.095 C 
ATOM      5  N   UNL     1      -1.938   2.357  24.996  0.00  0.00    -0.263 N 
ATOM      6  C   UNL     1      -1.858   1.969  24.273  0.00  0.00    +0.095 C 
ATOM      7  C   UNL     1      -1.122   1.684  24.037  0.00  0.00    +0.022 C 
ATOM      8  C   UNL     1      -0.464   1.787  24.524  0.00  0.00    +0.012 C 
ATOM     17  C   UNL     1      -2.675   2.643  25.233  0.00  0.00    +0.327 C 
ATOM     18  O   UNL     1      -2.754   3.031  25.956  0.00  0.00    -0.250 OA
ATOM     19  N   UNL     1      -3.333   2.540  24.746  0.00  0.00    -0.162 NA
ENDROOT
BRANCH  19  20
ATOM     20  C   UNL     1      -4.070   2.824  24.982  0.00  0.00    +0.078 A 
ATOM     21  C   UNL     1      -4.219   3.637  24.977  0.00  0.00    +0.017 A 
ATOM     22  C   UNL     1      -4.956   3.922  25.212  0.00  0.00    +0.004 A 
ATOM     23  C   UNL     1      -5.544   3.396  25.453  0.00  0.00    +0.037 A 
ATOM     24  C   UNL     1      -5.396   2.585  25.458  0.00  0.00    +0.140 A 
ATOM     27  C   UNL     1      -4.658   2.299  25.222  0.00  0.00    +0.054 A 
BRANCH  24  25
ATOM     25  O   UNL     1      -5.984   2.059  25.698  0.00  0.00    -0.471 OA
ATOM     26  C   UNL     1      -6.444   1.670  25.136  0.00  0.00    +0.252 C 
ENDBRANCH  24  25
ENDBRANCH  19  20
BRANCH   3   2
ATOM      1  C   UNL     1       0.028   2.623  26.479  0.00  0.00    +0.000 C 
ATOM      2  C   UNL     1       0.115   2.279  25.735  0.00  0.00    +0.002 C 
ENDBRANCH   3   2
BRANCH   8   9
ATOM      9  C   UNL     1       0.274   1.502  24.288  0.00  0.00    +0.085 C 
BRANCH   9  10
ATOM     10  C   UNL     1       0.323   0.826  23.816  0.00  0.00    +0.226 C 
ATOM     11  O   UNL     1      -0.313   0.302  23.778  0.00  0.00    -0.275 OA
ATOM     12  N   UNL     1       1.009   0.675  23.383  0.00  0.00    -0.265 N 
ATOM     13  C   UNL     1       1.645   1.199  23.421  0.00  0.00    +0.116 C 
BRANCH  12  14
ATOM     14  C   UNL     1       1.057  -0.000  22.912  0.00  0.00    +0.200 C 
BRANCH  14  15
ATOM     15  C   UNL     1       1.703  -0.106  22.409  0.00  0.00    +0.095 C 
ATOM     16  N   UNL     1       2.348  -0.211  21.906  0.00  0.00    -0.194 NA
ENDBRANCH  14  15
ENDBRANCH  12  14
ENDBRANCH   9  10
ENDBRANCH   8   9
TORSDOF 7
ENDMDL
MODEL 5
REMARK VINA RESULT:      -8.3      1.882      2.723
REMARK  Name = 
REMARK  7 active torsions:
REMARK  status: ('A' for Active; 'I' for Inactive)
REMARK    1  A    between atoms: C_2  and  C_3
REMARK    2  A    between atoms: C_8  and  C_9
REMARK    3  A    between atoms: C_9  and  C_10
REMARK    4  A    between atoms: N_12  and  C_14
REMARK    5  A    between atoms: C_14  and  C_15
REMARK    6  A    between atoms: N_19  and  C_20
REMARK    7  A    between atoms: C_24  and  O_25
REMARK                            x       y       z     vdW  Elec       q    Type
REMARK                         _______ _______ _______ _____ _____    ______ ____
ROOT
ATOM      3  C   UNL     1      -0.451   1.248  24.482  0.00  0.00    +0.020 C 
ATOM      4  C   UNL     1      -0.799   0.501  24.442  0.00  0.00    +0.095 C 
ATOM      5  N   UNL     1      -1.572   0.391  24.707  0.00  0.00    -0.263 N 
ATOM      6  C   UNL     1      -1.998   1.027  25.012  0.00  0.00    +0.095 C 
ATOM      7  C   UNL     1      -1.652   1.774  25.052  0.00  0.00    +0.022 C 
ATOM      8  C   UNL     1      -0.878   1.884  24.787  0.00  0.00    +0.012 C 
ATOM     17  C   UNL     1      -1.919  -0.357  24.667  0.00  0.00    +0.327 C 
ATOM     18  O   UNL     1      -1.493  -0.994  24.362  0.00  0.00    -0.250 OA
ATOM     19  N   UNL     1      -2.693  -0.468  24.932  0.00  0.00    -0.162 NA
ENDROOT
BRANCH  19  20
ATOM     20  C   UNL     1      -3.040  -1.215  24.892  0.00  0.00    +0.078 A 
ATOM     21  C   UNL     1      -2.861  -1.783  25.463  0.00  0.00    +0.017 A 
ATOM     22  C   UNL     1      -3.208  -2.530  25.423  0.00  0.00    +0.004 A 
ATOM     23  C   UNL     1      -3.734  -2.709  24.815  0.00  0.00    +0.037 A 
ATOM     24  C   UNL     1      -3.914  -2.141  24.244  0.00  0.00    +0.140 A 
ATOM     27  C   UNL     1      -3.566  -1.393  24.284  0.00  0.00    +0.054 A 
BRANCH  24  25
ATOM     25  O   UNL     1      -4.440  -2.319  23.635  0.00  0.00    -0.471 OA
ATOM     26  C   UNL     1      -4.458  -3.079  23.315  0.00  0.00    +0.252 C 
ENDBRANCH  24  25
ENDBRANCH  19  20
BRANCH   3   2
ATOM      1  C   UNL     1       0.662   0.815  23.698  0.00  0.00    +0.000 C 
ATOM      2  C   UNL     1       0.322   1.358  24.217  0.00  0.00    +0.002 C 
ENDBRANCH   3   2
BRANCH   8   9
ATOM      9  C   UNL     1      -0.531   2.632  24.827  0.00  0.00    +0.085 C 
BRANCH   9  10
ATOM     10  C   UNL     1      -0.877   3.224  25.288  0.00  0.00    +0.226 C 
ATOM     11  O   UNL     1      -1.197   3.039  26.025  0.00  0.00    -0.275 OA
ATOM     12  N   UNL     1      -0.902   4.000  25.009  0.00  0.00    -0.265 N 
ATOM     13  C   UNL     1      -0.582   4.185  24.272  0.00  0.00    +0.116 C 
BRANCH  12  14
ATOM     14  C   UNL     1      -1.248   4.591  25.469  0.00  0.00    +0.200 C 
BRANCH  14  15
ATOM     15  C   UNL     1      -1.400   5.333  25.141  0.00  0.00    +0.095 C 
ATOM     16  N   UNL     1      -1.551   6.074  24.813  0.00  0.00    -0.194 NA
ENDBRANCH  14  15
ENDBRANCH  12  14
ENDBRANCH   9  10
ENDBRANCH   8   9
TORSDOF 7
ENDMDL
MODEL 6
REMARK VINA RESULT:      -8.1      3.499      4.547
REMARK  Name = 
REMARK  7 active torsions:
REMARK  status: ('A' for Active; 'I' for Inactive)
REMARK    1  A    between atoms: C_2  and  C_3
REMARK    2  A    between atoms: C_8  and  C_9
REMARK    3  A    between atoms: C_9  and  C_10
REMARK    4  A    between atoms: N_12  and  C_14
REMARK    5  A    between atoms: C_14  and  C_15
REMARK    6  A    between atoms: N_19  and  C_20
REMARK    7  A    between atoms: C_24  and  O_25
REMARK                            x       y       z     vdW  Elec       q    Type
REMARK                         _______ _______ _______ _____ _____    ______ ____
ROOT
ATOM      3  C   UNL     1      -2.130   0.130  24.856  0.00  0.00    +0.020 C 
ATOM      4  C   UNL     1      -1.389  -0.103  24.577  0.00  0.00    +0.095 C 
ATOM      5  N   UNL     1      -0.960   0.396  24.080  0.00  0.00    -0.263 N 
ATOM      6  C   UNL     1      -1.271   1.128  23.862  0.00  0.00    +0.095 C 
ATOM      7  C   UNL     1      -2.011   1.361  24.140  0.00  0.00    +0.022 C 
ATOM      8  C   UNL     1      -2.440   0.862  24.637  0.00  0.00    +0.012 C 
ATOM     17  C   UNL     1      -0.219   0.162  23.801  0.00  0.00    +0.327 C 
ATOM     18  O   UNL     1       0.092  -0.570  24.019  0.00  0.00    -0.250 OA
ATOM     19  N   UNL     1       0.210   0.661  23.304  0.00  0.00    -0.162 NA
ENDROOT
BRANCH  19  20
ATOM     20  C   UNL     1       0.951   0.428  23.025  0.00  0.00    +0.078 A 
ATOM     21  C   UNL     1       1.012  -0.200  22.493  0.00  0.00    +0.017 A 
ATOM     22  C   UNL     1       1.752  -0.433  22.214  0.00  0.00    +0.004 A 
ATOM     23  C   UNL     1       2.431  -0.039  22.465  0.00  0.00    +0.037 A 
ATOM     24  C   UNL     1       2.370   0.589  22.997  0.00  0.00    +0.140 A 
ATOM     27  C   UNL     1       1.629   0.822  23.277  0.00  0.00    +0.054 A 
BRANCH  24  25
ATOM     25  O   UNL     1       3.049   0.983  23.249  0.00  0.00    -0.471 OA
ATOM     26  C   UNL     1       3.762   0.875  22.849  0.00  0.00    +0.252 C 
ENDBRANCH  24  25
ENDBRANCH  19  20
BRANCH   3   2
ATOM      1  C   UNL     1      -2.428  -1.183  25.335  0.00  0.00    +0.000 C 
ATOM      2  C   UNL     1      -2.559  -0.369  25.353  0.00  0.00    +0.002 C 
ENDBRANCH   3   2
BRANCH   8   9
ATOM      9  C   UNL     1      -3.182   1.095  24.916  0.00  0.00    +0.085 C 
BRANCH   9  10
ATOM     10  C   UNL     1      -3.345   1.896  25.033  0.00  0.00    +0.226 C 
ATOM     11  O   UNL     1      -2.727   2.435  25.122  0.00  0.00    -0.275 OA
ATOM     12  N   UNL     1      -4.127   2.157  25.059  0.00  0.00    -0.265 N 
ATOM     13  C   UNL     1      -4.746   1.619  24.970  0.00  0.00    +0.116 C 
BRANCH  12  14
ATOM     14  C   UNL     1      -4.290   2.957  25.176  0.00  0.00    +0.200 C 
BRANCH  14  15
ATOM     15  C   UNL     1      -5.022   3.189  25.480  0.00  0.00    +0.095 C 
ATOM     16  N   UNL     1      -5.752   3.420  25.785  0.00  0.00    -0.194 NA
ENDBRANCH  14  15
ENDBRANCH  12  14
ENDBRANCH   9  10
ENDBRANCH   8   9
TORSDOF 7
ENDMDL
MODEL 7
REMARK VINA RESULT:      -7.8      2.748      3.897
REMARK  Name = 
REMARK  7 active torsions:
REMARK  status: ('A' for Active; 'I' for Inactive)
REMARK    1  A    between atoms: C_2  and  C_3
REMARK    2  A    between atoms: C_8  and  C_9
REMARK    3  A    between atoms: C_9  and  C_10
REMARK    4  A    between atoms: N_12  and  C_14
REMARK    5  A    between atoms: C_14  and  C_15
REMARK    6  A    between atoms: N_19  and  C_20
REMARK    7  A    between atoms: C_24  and  O_25
REMARK                            x       y       z     vdW  Elec       q    Type
REMARK                         _______ _______ _______ _____ _____    ______ ____
ROOT
ATOM      3  C   UNL     1      -1.752   3.409  25.022  0.00  0.00    +0.020 C 
ATOM      4  C   UNL     1      -1.147   2.875  24.851  0.00  0.00    +0.095 C 
ATOM      5  N   UNL     1      -1.327   2.140  24.522  0.00  0.00    -0.263 N 
ATOM      6  C   UNL     1      -2.111   1.939  24.364  0.00  0.00    +0.095 C 
ATOM      7  C   UNL     1      -2.715   2.473  24.535  0.00  0.00    +0.022 C 
ATOM      8  C   UNL     1      -2.536   3.208  24.864  0.00  0.00    +0.012 C 
ATOM     17  C   UNL     1      -0.721   1.606  24.350  0.00  0.00    +0.327 C 
ATOM     18  O   UNL     1       0.063   1.806  24.508  0.00  0.00    -0.250 OA
ATOM     19  N   UNL     1      -0.901   0.871  24.021  0.00  0.00    -0.162 NA
ENDROOT
BRANCH  19  20
ATOM     20  C   UNL     1      -0.296   0.337  23.850  0.00  0.00    +0.078 A 
ATOM     21  C   UNL     1      -0.196  -0.336  24.318  0.00  0.00    +0.017 A 
ATOM     22  C   UNL     1       0.409  -0.870  24.147  0.00  0.00    +0.004 A 
ATOM     23  C   UNL     1       0.912  -0.733  23.508  0.00  0.00    +0.037 A 
ATOM     24  C   UNL     1       0.811  -0.062  23.040  0.00  0.00    +0.140 A 
ATOM     27  C   UNL     1       0.206   0.473  23.211  0.00  0.00    +0.054 A 
BRANCH  24  25
ATOM     25  O   UNL     1       1.315   0.075  22.401  0.00  0.00    -0.471 OA
ATOM     26  C   UNL     1       2.131   0.005  22.497  0.00  0.00    +0.252 C 
ENDBRANCH  24  25
ENDBRANCH  19  20
BRANCH   3   2
ATOM      1  C   UNL     1      -0.915   4.566  25.085  0.00  0.00    +0.000 C 
ATOM      2  C   UNL     1      -1.572   4.144  25.351  0.00  0.00    +0.002 C 
ENDBRANCH   3   2
BRANCH   8   9
ATOM      9  C   UNL     1      -3.141   3.743  25.036  0.00  0.00    +0.085 C 
BRANCH   9  10
ATOM     10  C   UNL     1      -3.924   3.550  24.859  0.00  0.00    +0.226 C 
ATOM     11  O   UNL     1      -4.124   3.286  24.103  0.00  0.00    -0.275 OA
ATOM     12  N   UNL     1      -4.507   3.621  25.439  0.00  0.00    -0.265 N 
ATOM     13  C   UNL     1      -4.307   3.884  26.195  0.00  0.00    +0.116 C 
BRANCH  12  14
ATOM     14  C   UNL     1      -5.289   3.428  25.262  0.00  0.00    +0.200 C 
BRANCH  14  15
ATOM     15  C   UNL     1      -5.746   3.015  25.812  0.00  0.00    +0.095 C 
ATOM     16  N   UNL     1      -6.203   2.604  26.362  0.00  0.00    -0.194 NA
ENDBRANCH  14  15
ENDBRANCH  12  14
ENDBRANCH   9  10
ENDBRANCH   8   9
TORSDOF 7
ENDMDL
MODEL 8
REMARK VINA RESULT:      -7.4      2.049      6.106
REMARK  Name = 
REMARK  7 active torsions:
REMARK  status: ('A' for Active; 'I' for Inactive)
REMARK    1  A    between atoms: C_2  and  C_3
REMARK    2  A    between atoms: C_8  and  C_9
REMARK    3  A    between atoms: C_9  and  C_10
REMARK    4  A    between atoms: N_12  and  C_14
REMARK    5  A    between atoms: C_14  and  C_15
REMARK    6  A    between atoms: N_19  and  C_20
REMARK    7  A    between atoms: C_24  and  O_25
REMARK                            x       y       z     vdW  Elec       q    Type
REMARK                         _______ _______ _______ _____ _____    ______ ____
ROOT
ATOM      3  C   UNL     1      -0.561  -0.099  24.388  0.00  0.00    +0.020 C 
ATOM      4  C   UNL     1      -0.442   0.717  24.389  0.00  0.00    +0.095 C 
ATOM      5  N   UNL     1      -1.012   1.217  24.714  0.00  0.00    -0.263 N 
ATOM      6  C   UNL     1      -1.701   0.901  25.037  0.00  0.00    +0.095 C 
ATOM      7  C   UNL     1      -1.821   0.085  25.036  0.00  0.00    +0.022 C 
ATOM      8  C   UNL     1      -1.251  -0.415  24.712  0.00  0.00    +0.012 C 
ATOM     17  C   UNL     1      -0.892   2.033  24.714  0.00  0.00    +0.327 C 
ATOM     18  O   UNL     1      -0.203   2.349  24.391  0.00  0.00    -0.250 OA
ATOM     19  N   UNL     1      -1.462   2.534  25.039  0.00  0.00    -0.162 NA
ENDROOT
BRANCH  19  20
ATOM     20  C   UNL     1      -1.343   3.350  25.040  0.00  0.00    +0.078 A 
ATOM     21  C   UNL     1      -0.662   3.667  24.697  0.00  0.00    +0.017 A 
ATOM     22  C   UNL     1      -0.543   4.484  24.698  0.00  0.00    +0.004 A 
ATOM     23  C   UNL     1      -1.103   4.982  25.041  0.00  0.00    +0.037 A 
ATOM     24  C   UNL     1      -1.783   4.665  25.384  0.00  0.00    +0.140 A 
ATOM     27  C   UNL     1      -1.903   3.848  25.383  0.00  0.00    +0.054 A 
BRANCH  24  25
ATOM     25  O   UNL     1      -2.343   5.164  25.728  0.00  0.00    -0.471 OA
ATOM     26  C   UNL     1      -3.038   4.849  26.041  0.00  0.00    +0.252 C 
ENDBRANCH  24  25
ENDBRANCH  19  20
BRANCH   3   2
ATOM      1  C   UNL     1       0.573  -0.299  23.541  0.00  0.00    +0.000 C 
ATOM      2  C   UNL     1       0.009  -0.599  24.063  0.00  0.00    +0.002 C 
ENDBRANCH   3   2
BRANCH   8   9
ATOM      9  C   UNL     1      -1.371  -1.232  24.711  0.00  0.00    +0.085 C 
BRANCH   9  10
ATOM     10  C   UNL     1      -2.074  -1.546  25.008  0.00  0.00    +0.226 C 
ATOM     11  O   UNL     1      -2.463  -1.171  25.632  0.00  0.00    -0.275 OA
ATOM     12  N   UNL     1      -2.387  -2.236  24.681  0.00  0.00    -0.265 N 
ATOM     13  C   UNL     1      -1.998  -2.611  24.058  0.00  0.00    +0.116 C 
BRANCH  12  14
ATOM     14  C   UNL     1      -3.090  -2.549  24.979  0.00  0.00    +0.200 C 
BRANCH  14  15
ATOM     15  C   UNL     1      -3.686  -2.790  24.460  0.00  0.00    +0.095 C 
ATOM     16  N   UNL     1      -4.281  -3.030  23.943  0.00  0.00    -0.194 NA
ENDBRANCH  14  15
ENDBRANCH  12  14
ENDBRANCH   9  10
ENDBRANCH   8   9
TORSDOF 7
ENDMDL
