REMARK  Name = 
REMARK  5 active torsions:
REMARK  status: ('A' for Active; 'I' for Inactive)
REMARK    1  A    between atoms: O_2  and  C_3
REMARK    2  A    between atoms: C_3  and  C_4
REMARK    3  A    between atoms: N_6  and  C_7
REMARK    4  A    between atoms: C_11  and  N_15
REMARK    5  A    between atoms: C_18  and  C_22
REMARK                            x       y       z     vdW  Elec       q    Type
REMARK                         _______ _______ _______ _____ _____    ______ ____
ROOT
ATOM     15  N   UNL     1       3.499  -1.365   0.000  0.00  0.00    -0.200 NA
ATOM     16  C   UNL     1       3.499  -0.540   0.000  0.00  0.00    +0.237 A 
ATOM     17  N   UNL     1       2.784  -0.127   0.000  0.00  0.00    -0.212 NA
ATOM     18  C   UNL     1       2.784   0.698   0.000  0.00  0.00    +0.086 A 
ATOM     19  C   UNL     1       3.499   1.110   0.000  0.00  0.00    +0.040 A 
ATOM     20  C   UNL     1       4.213   0.698   0.000  0.00  0.00    +0.103 A 
ATOM     21  N   UNL     1       4.213  -0.127   0.000  0.00  0.00    -0.211 NA
ENDROOT
BRANCH  18  22
ATOM     22  C   UNL     1       2.070   1.110   0.000  0.00  0.00    +0.021 A 
ATOM     23  C   UNL     1       1.356   0.698   0.000  0.00  0.00    +0.042 A 
ATOM     24  C   UNL     1       0.641   1.110   0.000  0.00  0.00    +0.176 A 
ATOM     25  C   UNL     1       0.641   1.935   0.000  0.00  0.00    +0.176 A 
ATOM     26  O   UNL     1      -0.143   2.190   0.000  0.00  0.00    -0.435 OA
ATOM     27  C   UNL     1      -0.628   1.523   0.000  0.00  0.00    +0.429 C 
ATOM     28  O   UNL     1      -0.143   0.856   0.000  0.00  0.00    -0.435 OA
ATOM     29  C   UNL     1       1.356   2.348   0.000  0.00  0.00    +0.040 A 
ATOM     30  C   UNL     1       2.070   1.935   0.000  0.00  0.00    +0.005 A 
ENDBRANCH  18  22
BRANCH  15  11
ATOM      7  C   UNL     1       5.193  -3.590   0.000  0.00  0.00    +0.154 C 
ATOM      8  C   UNL     1       4.439  -3.925   0.000  0.00  0.00    +0.166 C 
ATOM      9  O   UNL     1       3.887  -3.312   0.000  0.00  0.00    -0.350 OA
ATOM     10  C   UNL     1       4.300  -2.598   0.000  0.00  0.00    +0.166 C 
ATOM     11  C   UNL     1       4.213  -1.777   0.000  0.00  0.00    +0.154 C 
ATOM     12  C   UNL     1       4.967  -1.442   0.000  0.00  0.00    +0.166 C 
ATOM     13  O   UNL     1       5.519  -2.055   0.000  0.00  0.00    -0.350 OA
ATOM     14  C   UNL     1       5.107  -2.769   0.000  0.00  0.00    +0.166 C 
BRANCH   7   6
ATOM      4  C   UNL     1       5.907  -4.827   0.000  0.00  0.00    +0.272 C 
ATOM      5  O   UNL     1       5.193  -5.239   0.000  0.00  0.00    -0.271 OA
ATOM      6  N   UNL     1       5.907  -4.002   0.000  0.00  0.00    -0.200 NA
BRANCH   4   3
ATOM      3  C   UNL     1       6.622  -5.239   0.000  0.00  0.00    +0.229 C 
BRANCH   3   2
ATOM      1  C   UNL     1       7.336  -6.477   0.000  0.00  0.00    +0.175 C 
ATOM      2  O   UNL     1       6.622  -6.064   0.000  0.00  0.00    -0.342 OA
ENDBRANCH   3   2
ENDBRANCH   4   3
ENDBRANCH   7   6
ENDBRANCH  15  11
TORSDOF 5
