MODEL 1
REMARK VINA RESULT:     -12.2      0.000      0.000
REMARK  Name = 
REMARK  5 active torsions:
REMARK  status: ('A' for Active; 'I' for Inactive)
REMARK    1  A    between atoms: C_4  and  C_5
REMARK    2  A    between atoms: C_5  and  C_6
REMARK    3  A    between atoms: C_9  and  C_11
REMARK    4  A    between atoms: C_18  and  N_19
REMARK    5  A    between atoms: N_19  and  S_20
REMARK                            x       y       z     vdW  Elec       q    Type
REMARK                         _______ _______ _______ _____ _____    ______ ____
ROOT
ATOM      5  C   UNL     1      -4.861   1.575  24.773  0.00  0.00    +0.049 C 
ENDROOT
BRANCH   5   4
ATOM      1  C   UNL     1      -5.487   2.755  25.279  0.00  0.00    +0.001 C 
ATOM      2  C   UNL     1      -4.698   2.991  25.312  0.00  0.00    +0.017 C 
ATOM      3  C   UNL     1      -4.929   3.723  25.614  0.00  0.00    +0.001 C 
ATOM      4  C   UNL     1      -4.466   2.259  25.010  0.00  0.00    +0.009 C 
ATOM     17  C   UNL     1      -3.676   2.495  25.043  0.00  0.00    +0.020 C 
ATOM     18  C   UNL     1      -3.908   3.228  25.345  0.00  0.00    +0.097 C 
BRANCH  18  19
ATOM     19  N   UNL     1      -3.513   3.912  25.583  0.00  0.00    -0.083 NA
BRANCH  19  20
ATOM     20  S   UNL     1      -2.690   3.950  25.536  0.00  0.00    +0.059 S 
ATOM     21  C   UNL     1      -1.868   3.989  25.489  0.00  0.00    +0.197 C 
ATOM     22  O   UNL     1      -2.747   4.206  24.753  0.00  0.00    -0.156 OA
ATOM     23  O   UNL     1      -2.634   3.695  26.318  0.00  0.00    -0.156 OA
ENDBRANCH  19  20
ENDBRANCH  18  19
ENDBRANCH   5   4
BRANCH   5   6
ATOM      6  C   UNL     1      -4.431   0.923  24.506  0.00  0.00    +0.101 A 
ATOM      7  N   UNL     1      -3.869   0.928  23.901  0.00  0.00    -0.081 NA
ATOM      8  O   UNL     1      -3.578   0.160  23.818  0.00  0.00    -0.354 OA
ATOM      9  C   UNL     1      -3.959  -0.318  24.370  0.00  0.00    +0.177 A 
ATOM     10  C   UNL     1      -4.486   0.153  24.796  0.00  0.00    +0.058 A 
BRANCH   9  11
ATOM     11  C   UNL     1      -3.835  -1.127  24.479  0.00  0.00    +0.037 A 
ATOM     12  C   UNL     1      -3.415  -1.395  25.136  0.00  0.00    +0.003 A 
ATOM     13  C   UNL     1      -3.291  -2.203  25.244  0.00  0.00    +0.000 A 
ATOM     14  C   UNL     1      -3.587  -2.744  24.695  0.00  0.00    +0.000 A 
ATOM     15  C   UNL     1      -4.007  -2.475  24.038  0.00  0.00    +0.000 A 
ATOM     16  C   UNL     1      -4.131  -1.667  23.930  0.00  0.00    +0.003 A 
ENDBRANCH   9  11
ENDBRANCH   5   6
TORSDOF 5
ENDMDL
MODEL 2
REMARK VINA RESULT:     -11.3      1.942      4.625
REMARK  Name = 
REMARK  5 active torsions:
REMARK  status: ('A' for Active; 'I' for Inactive)
REMARK    1  A    between atoms: C_4  and  C_5
REMARK    2  A    between atoms: C_5  and  C_6
REMARK    3  A    between atoms: C_9  and  C_11
REMARK    4  A    between atoms: C_18  and  N_19
REMARK    5  A    between atoms: N_19  and  S_20
REMARK                            x       y       z     vdW  Elec       q    Type
REMARK                         _______ _______ _______ _____ _____    ______ ____
ROOT
ATOM      5  C   UNL     1      -4.188  -0.599  24.321  0.00  0.00    +0.049 C 
ENDROOT
BRANCH   5   4
ATOM      1  C   UNL     1      -4.054  -2.021  24.316  0.00  0.00    +0.001 C 
ATOM      2  C   UNL     1      -3.278  -1.809  24.496  0.00  0.00    +0.017 C 
ATOM      3  C   UNL     1      -3.066  -2.606  24.525  0.00  0.00    +0.001 C 
ATOM      4  C   UNL     1      -3.489  -1.012  24.468  0.00  0.00    +0.009 C 
ATOM     17  C   UNL     1      -2.713  -0.800  24.649  0.00  0.00    +0.020 C 
ATOM     18  C   UNL     1      -2.501  -1.597  24.677  0.00  0.00    +0.097 C 
BRANCH  18  19
ATOM     19  N   UNL     1      -1.803  -2.011  24.824  0.00  0.00    -0.083 NA
BRANCH  19  20
ATOM     20  S   UNL     1      -1.091  -1.601  24.906  0.00  0.00    +0.059 S 
ATOM     21  C   UNL     1      -0.379  -1.192  24.985  0.00  0.00    +0.197 C 
ATOM     22  O   UNL     1      -0.941  -1.704  24.100  0.00  0.00    -0.156 OA
ATOM     23  O   UNL     1      -1.241  -1.500  25.710  0.00  0.00    -0.156 OA
ENDBRANCH  19  20
ENDBRANCH  18  19
ENDBRANCH   5   4
BRANCH   5   6
ATOM      6  C   UNL     1      -4.181   0.226  24.296  0.00  0.00    +0.101 A 
ATOM      7  N   UNL     1      -3.773   0.690  23.748  0.00  0.00    -0.081 NA
ATOM      8  O   UNL     1      -3.920   1.482  23.927  0.00  0.00    -0.354 OA
ATOM      9  C   UNL     1      -4.418   1.507  24.584  0.00  0.00    +0.177 A 
ATOM     10  C   UNL     1      -4.579   0.731  24.812  0.00  0.00    +0.058 A 
BRANCH   9  11
ATOM     11  C   UNL     1      -4.704   2.189  24.949  0.00  0.00    +0.037 A 
ATOM     12  C   UNL     1      -5.479   2.212  25.232  0.00  0.00    +0.003 A 
ATOM     13  C   UNL     1      -5.765   2.894  25.597  0.00  0.00    +0.000 A 
ATOM     14  C   UNL     1      -5.276   3.554  25.680  0.00  0.00    +0.000 A 
ATOM     15  C   UNL     1      -4.502   3.531  25.397  0.00  0.00    +0.000 A 
ATOM     16  C   UNL     1      -4.215   2.849  25.032  0.00  0.00    +0.003 A 
ENDBRANCH   9  11
ENDBRANCH   5   6
TORSDOF 5
ENDMDL
