MODEL 1
REMARK VINA RESULT:      -8.8      0.000      0.000
REMARK  Name = 
REMARK  3 active torsions:
REMARK  status: ('A' for Active; 'I' for Inactive)
REMARK    1  A    between atoms: O_2  and  C_3
REMARK    2  A    between atoms: C_6  and  C_7
REMARK    3  A    between atoms: C_7  and  N_8
REMARK                            x       y       z     vdW  Elec       q    Type
REMARK                         _______ _______ _______ _____ _____    ______ ____
ROOT
ATOM      8  N   UNL     1      -3.986   1.454  24.406  0.00  0.00    -0.266 NA
ATOM      9  C   UNL     1      -4.804   1.456  24.510  0.00  0.00    +0.094 C 
ATOM     10  C   UNL     1      -5.167   2.081  24.907  0.00  0.00    +0.112 C 
ATOM     11  N   UNL     1      -4.712   2.704  25.201  0.00  0.00    -0.260 N 
ATOM     12  C   UNL     1      -3.894   2.701  25.096  0.00  0.00    +0.115 C 
ATOM     13  C   UNL     1      -3.590   3.385  25.442  0.00  0.00    +0.138 C 
ATOM     14  N   UNL     1      -4.221   3.811  25.761  0.00  0.00    -0.187 NA
ATOM     15  C   UNL     1      -4.913   3.389  25.611  0.00  0.00    +0.323 C 
ATOM     16  O   UNL     1      -5.676   3.614  25.834  0.00  0.00    -0.251 OA
ATOM     17  C   UNL     1      -3.530   2.076  24.698  0.00  0.00    +0.094 C 
ENDROOT
BRANCH   8   7
ATOM      7  C   UNL     1      -3.622   0.828  24.008  0.00  0.00    +0.101 C 
BRANCH   7   6
ATOM      3  C   UNL     1      -3.592  -1.431  25.018  0.00  0.00    +0.225 A 
ATOM      4  C   UNL     1      -4.145  -1.247  24.434  0.00  0.00    +0.057 A 
ATOM      5  C   UNL     1      -4.155  -0.494  24.098  0.00  0.00    +0.003 A 
ATOM      6  C   UNL     1      -3.612   0.075  24.345  0.00  0.00    +0.013 A 
ATOM     18  C   UNL     1      -3.058  -0.108  24.929  0.00  0.00    +0.099 A 
ATOM     19  N   UNL     1      -3.048  -0.861  25.265  0.00  0.00    -0.210 NA
BRANCH   3   2
ATOM      1  C   UNL     1      -3.308  -2.828  24.917  0.00  0.00    +0.254 C 
ATOM      2  O   UNL     1      -3.582  -2.184  25.355  0.00  0.00    -0.456 OA
ENDBRANCH   3   2
ENDBRANCH   7   6
ENDBRANCH   8   7
TORSDOF 3
ENDMDL
MODEL 2
REMARK VINA RESULT:      -8.2      2.740      4.096
REMARK  Name = 
REMARK  3 active torsions:
REMARK  status: ('A' for Active; 'I' for Inactive)
REMARK    1  A    between atoms: O_2  and  C_3
REMARK    2  A    between atoms: C_6  and  C_7
REMARK    3  A    between atoms: C_7  and  N_8
REMARK                            x       y       z     vdW  Elec       q    Type
REMARK                         _______ _______ _______ _____ _____    ______ ____
ROOT
ATOM      8  N   UNL     1      -2.201   3.391  24.872  0.00  0.00    -0.266 NA
ATOM      9  C   UNL     1      -1.916   3.631  25.608  0.00  0.00    +0.094 C 
ATOM     10  C   UNL     1      -1.200   3.335  25.890  0.00  0.00    +0.112 C 
ATOM     11  N   UNL     1      -0.768   2.799  25.436  0.00  0.00    -0.260 N 
ATOM     12  C   UNL     1      -1.052   2.558  24.699  0.00  0.00    +0.115 C 
ATOM     13  C   UNL     1      -0.510   2.027  24.377  0.00  0.00    +0.138 C 
ATOM     14  N   UNL     1       0.110   1.939  24.914  0.00  0.00    -0.187 NA
ATOM     15  C   UNL     1      -0.050   2.416  25.567  0.00  0.00    +0.323 C 
ATOM     16  O   UNL     1       0.426   2.496  26.237  0.00  0.00    -0.251 OA
ATOM     17  C   UNL     1      -1.770   2.854  24.417  0.00  0.00    +0.094 C 
ENDROOT
BRANCH   8   7
ATOM      7  C   UNL     1      -2.918   3.687  24.590  0.00  0.00    +0.101 C 
BRANCH   7   6
ATOM      3  C   UNL     1      -5.051   2.655  25.306  0.00  0.00    +0.225 A 
ATOM      4  C   UNL     1      -4.684   2.404  24.612  0.00  0.00    +0.057 A 
ATOM      5  C   UNL     1      -3.973   2.748  24.373  0.00  0.00    +0.003 A 
ATOM      6  C   UNL     1      -3.629   3.343  24.829  0.00  0.00    +0.013 A 
ATOM     18  C   UNL     1      -3.996   3.595  25.524  0.00  0.00    +0.099 A 
ATOM     19  N   UNL     1      -4.707   3.251  25.763  0.00  0.00    -0.210 NA
BRANCH   3   2
ATOM      1  C   UNL     1      -6.171   1.812  25.031  0.00  0.00    +0.254 C 
ATOM      2  O   UNL     1      -5.762   2.311  25.545  0.00  0.00    -0.456 OA
ENDBRANCH   3   2
ENDBRANCH   7   6
ENDBRANCH   8   7
TORSDOF 3
ENDMDL
MODEL 3
REMARK VINA RESULT:      -8.2      2.561      3.626
REMARK  Name = 
REMARK  3 active torsions:
REMARK  status: ('A' for Active; 'I' for Inactive)
REMARK    1  A    between atoms: O_2  and  C_3
REMARK    2  A    between atoms: C_6  and  C_7
REMARK    3  A    between atoms: C_7  and  N_8
REMARK                            x       y       z     vdW  Elec       q    Type
REMARK                         _______ _______ _______ _____ _____    ______ ____
ROOT
ATOM      8  N   UNL     1      -3.722   3.321  24.758  0.00  0.00    -0.266 NA
ATOM      9  C   UNL     1      -4.026   3.743  25.399  0.00  0.00    +0.094 C 
ATOM     10  C   UNL     1      -4.698   3.469  25.791  0.00  0.00    +0.112 C 
ATOM     11  N   UNL     1      -5.066   2.774  25.544  0.00  0.00    -0.260 N 
ATOM     12  C   UNL     1      -4.762   2.352  24.903  0.00  0.00    +0.115 C 
ATOM     13  C   UNL     1      -5.239   1.690  24.785  0.00  0.00    +0.138 C 
ATOM     14  N   UNL     1      -5.838   1.702  25.352  0.00  0.00    -0.187 NA
ATOM     15  C   UNL     1      -5.730   2.372  25.820  0.00  0.00    +0.323 C 
ATOM     16  O   UNL     1      -6.205   2.600  26.456  0.00  0.00    -0.251 OA
ATOM     17  C   UNL     1      -4.090   2.625  24.510  0.00  0.00    +0.094 C 
ENDROOT
BRANCH   8   7
ATOM      7  C   UNL     1      -3.050   3.595  24.365  0.00  0.00    +0.101 C 
BRANCH   7   6
ATOM      3  C   UNL     1      -0.802   3.159  25.306  0.00  0.00    +0.225 A 
ATOM      4  C   UNL     1      -1.185   3.872  25.464  0.00  0.00    +0.057 A 
ATOM      5  C   UNL     1      -1.934   4.017  25.151  0.00  0.00    +0.003 A 
ATOM      6  C   UNL     1      -2.301   3.449  24.679  0.00  0.00    +0.013 A 
ATOM     18  C   UNL     1      -1.919   2.735  24.519  0.00  0.00    +0.099 A 
ATOM     19  N   UNL     1      -1.169   2.590  24.833  0.00  0.00    -0.210 NA
BRANCH   3   2
ATOM      1  C   UNL     1       0.043   2.445  26.210  0.00  0.00    +0.254 C 
ATOM      2  O   UNL     1      -0.053   3.013  25.619  0.00  0.00    -0.456 OA
ENDBRANCH   3   2
ENDBRANCH   7   6
ENDBRANCH   8   7
TORSDOF 3
ENDMDL
MODEL 4
REMARK VINA RESULT:      -8.1      1.482      4.072
REMARK  Name = 
REMARK  3 active torsions:
REMARK  status: ('A' for Active; 'I' for Inactive)
REMARK    1  A    between atoms: O_2  and  C_3
REMARK    2  A    between atoms: C_6  and  C_7
REMARK    3  A    between atoms: C_7  and  N_8
REMARK                            x       y       z     vdW  Elec       q    Type
REMARK                         _______ _______ _______ _____ _____    ______ ____
ROOT
ATOM      8  N   UNL     1      -2.938   0.400  24.194  0.00  0.00    -0.266 NA
ATOM      9  C   UNL     1      -3.043  -0.298  24.622  0.00  0.00    +0.094 C 
ATOM     10  C   UNL     1      -2.389  -0.694  24.931  0.00  0.00    +0.112 C 
ATOM     11  N   UNL     1      -1.630  -0.393  24.812  0.00  0.00    -0.260 N 
ATOM     12  C   UNL     1      -1.525   0.304  24.384  0.00  0.00    +0.115 C 
ATOM     13  C   UNL     1      -0.718   0.468  24.357  0.00  0.00    +0.138 C 
ATOM     14  N   UNL     1      -0.323  -0.129  24.767  0.00  0.00    -0.187 NA
ATOM     15  C   UNL     1      -0.887  -0.660  25.049  0.00  0.00    +0.323 C 
ATOM     16  O   UNL     1      -0.735  -1.341  25.490  0.00  0.00    -0.251 OA
ATOM     17  C   UNL     1      -2.180   0.701  24.075  0.00  0.00    +0.094 C 
ENDROOT
BRANCH   8   7
ATOM      7  C   UNL     1      -3.593   0.796  23.884  0.00  0.00    +0.101 C 
BRANCH   7   6
ATOM      3  C   UNL     1      -4.908   2.324  25.320  0.00  0.00    +0.225 A 
ATOM      4  C   UNL     1      -5.129   1.533  25.247  0.00  0.00    +0.057 A 
ATOM      5  C   UNL     1      -4.691   1.024  24.769  0.00  0.00    +0.003 A 
ATOM      6  C   UNL     1      -4.031   1.306  24.363  0.00  0.00    +0.013 A 
ATOM     18  C   UNL     1      -3.809   2.097  24.435  0.00  0.00    +0.099 A 
ATOM     19  N   UNL     1      -4.247   2.606  24.913  0.00  0.00    -0.210 NA
BRANCH   3   2
ATOM      1  C   UNL     1      -5.403   3.634  25.606  0.00  0.00    +0.254 C 
ATOM      2  O   UNL     1      -5.346   2.834  25.799  0.00  0.00    -0.456 OA
ENDBRANCH   3   2
ENDBRANCH   7   6
ENDBRANCH   8   7
TORSDOF 3
ENDMDL
MODEL 5
REMARK VINA RESULT:      -8.1      0.861      4.248
REMARK  Name = 
REMARK  3 active torsions:
REMARK  status: ('A' for Active; 'I' for Inactive)
REMARK    1  A    between atoms: O_2  and  C_3
REMARK    2  A    between atoms: C_6  and  C_7
REMARK    3  A    between atoms: C_7  and  N_8
REMARK                            x       y       z     vdW  Elec       q    Type
REMARK                         _______ _______ _______ _____ _____    ______ ____
ROOT
ATOM      8  N   UNL     1      -3.181   0.296  24.190  0.00  0.00    -0.266 NA
ATOM      9  C   UNL     1      -2.706   0.029  24.810  0.00  0.00    +0.094 C 
ATOM     10  C   UNL     1      -2.772  -0.748  25.075  0.00  0.00    +0.112 C 
ATOM     11  N   UNL     1      -3.314  -1.261  24.721  0.00  0.00    -0.260 N 
ATOM     12  C   UNL     1      -3.789  -0.994  24.102  0.00  0.00    +0.115 C 
ATOM     13  C   UNL     1      -4.270  -1.620  23.862  0.00  0.00    +0.138 C 
ATOM     14  N   UNL     1      -4.092  -2.273  24.333  0.00  0.00    -0.187 NA
ATOM     15  C   UNL     1      -3.501  -2.051  24.863  0.00  0.00    +0.323 C 
ATOM     16  O   UNL     1      -3.157  -2.534  25.437  0.00  0.00    -0.251 OA
ATOM     17  C   UNL     1      -3.723  -0.215  23.836  0.00  0.00    +0.094 C 
ENDROOT
BRANCH   8   7
ATOM      7  C   UNL     1      -3.115   1.075  23.924  0.00  0.00    +0.101 C 
BRANCH   7   6
ATOM      3  C   UNL     1      -4.268   2.899  25.137  0.00  0.00    +0.225 A 
ATOM      4  C   UNL     1      -4.677   2.452  24.577  0.00  0.00    +0.057 A 
ATOM      5  C   UNL     1      -4.293   1.844  24.173  0.00  0.00    +0.003 A 
ATOM      6  C   UNL     1      -3.500   1.683  24.329  0.00  0.00    +0.013 A 
ATOM     18  C   UNL     1      -3.089   2.129  24.888  0.00  0.00    +0.099 A 
ATOM     19  N   UNL     1      -3.474   2.737  25.292  0.00  0.00    -0.210 NA
BRANCH   3   2
ATOM      1  C   UNL     1      -5.473   3.487  25.631  0.00  0.00    +0.254 C 
ATOM      2  O   UNL     1      -4.653   3.507  25.541  0.00  0.00    -0.456 OA
ENDBRANCH   3   2
ENDBRANCH   7   6
ENDBRANCH   8   7
TORSDOF 3
ENDMDL
