MODEL 1
REMARK VINA RESULT:     -11.2      0.000      0.000
REMARK  Name = 
REMARK  6 active torsions:
REMARK  status: ('A' for Active; 'I' for Inactive)
REMARK    1  A    between atoms: O_2  and  C_3
REMARK    2  A    between atoms: C_9  and  C_10
REMARK    3  A    between atoms: C_10  and  C_11
REMARK    4  A    between atoms: C_16  and  C_17
REMARK    5  A    between atoms: C_17  and  C_18
REMARK    6  A    between atoms: C_21  and  C_23
REMARK                            x       y       z     vdW  Elec       q    Type
REMARK                         _______ _______ _______ _____ _____    ______ ____
ROOT
ATOM     11  C   UNL     1      -3.802   1.373  23.999  0.00  0.00    +0.026 C 
ATOM     12  C   UNL     1      -4.422   1.624  24.479  0.00  0.00    +0.094 C 
ATOM     13  N   UNL     1      -4.562   2.431  24.585  0.00  0.00    -0.280 N 
ATOM     14  C   UNL     1      -4.080   2.985  24.210  0.00  0.00    +0.093 C 
ATOM     15  C   UNL     1      -3.459   2.734  23.730  0.00  0.00    +0.022 C 
ATOM     16  C   UNL     1      -3.319   1.928  23.624  0.00  0.00    +0.015 C 
ATOM     21  C   UNL     1      -5.184   2.683  25.066  0.00  0.00    +0.225 C 
ATOM     22  O   UNL     1      -5.323   3.488  25.171  0.00  0.00    -0.275 OA
ENDROOT
BRANCH  21  23
ATOM     23  C   UNL     1      -5.665   2.127  25.441  0.00  0.00    +0.069 C 
ATOM     24  C   UNL     1      -6.146   1.573  25.816  0.00  0.00    +0.009 C 
ATOM     25  C   UNL     1      -5.255   2.249  26.147  0.00  0.00    +0.009 C 
ATOM     26  C   UNL     1      -6.075   2.006  24.736  0.00  0.00    +0.009 C 
ENDBRANCH  21  23
BRANCH  11  10
ATOM     10  C   UNL     1      -3.662   0.567  23.893  0.00  0.00    +0.047 C 
BRANCH  10   9
ATOM      3  C   UNL     1      -3.781  -2.315  24.622  0.00  0.00    +0.138 A 
ATOM      4  C   UNL     1      -3.316  -1.952  25.198  0.00  0.00    +0.033 A 
ATOM      5  C   UNL     1      -3.169  -1.141  25.161  0.00  0.00    -0.016 A 
ATOM      6  C   UNL     1      -3.489  -0.692  24.546  0.00  0.00    +0.009 A 
ATOM      7  C   UNL     1      -3.954  -1.055  23.969  0.00  0.00    +0.004 A 
ATOM      8  C   UNL     1      -4.100  -1.866  24.006  0.00  0.00    +0.037 A 
ATOM      9  C   UNL     1      -3.343   0.119  24.508  0.00  0.00    +0.053 C 
ATOM     27  N   UNL     1      -2.878   0.481  25.084  0.00  0.00    -0.274 NA
ATOM     28  C   UNL     1      -2.559   0.033  25.700  0.00  0.00    +0.130 C 
ATOM     29  C   UNL     1      -2.705  -0.778  25.737  0.00  0.00    +0.053 C 
BRANCH   3   2
ATOM      1  C   UNL     1      -3.580  -3.633  24.110  0.00  0.00    +0.252 C 
ATOM      2  O   UNL     1      -3.927  -3.126  24.659  0.00  0.00    -0.471 OA
ENDBRANCH   3   2
ENDBRANCH  10   9
ENDBRANCH  11  10
BRANCH  16  17
ATOM     17  C   UNL     1      -2.698   1.676  23.143  0.00  0.00    +0.114 C 
BRANCH  17  18
ATOM     18  C   UNL     1      -2.347   2.202  22.614  0.00  0.00    +0.365 C 
ATOM     19  O   UNL     1      -1.703   2.661  22.852  0.00  0.00    -0.246 OA
ATOM     20  O   UNL     1      -2.640   2.271  21.845  0.00  0.00    -0.246 OA
ENDBRANCH  17  18
ENDBRANCH  16  17
TORSDOF 6
ENDMDL
MODEL 2
REMARK VINA RESULT:     -11.2      1.482      4.627
REMARK  Name = 
REMARK  6 active torsions:
REMARK  status: ('A' for Active; 'I' for Inactive)
REMARK    1  A    between atoms: O_2  and  C_3
REMARK    2  A    between atoms: C_9  and  C_10
REMARK    3  A    between atoms: C_10  and  C_11
REMARK    4  A    between atoms: C_16  and  C_17
REMARK    5  A    between atoms: C_17  and  C_18
REMARK    6  A    between atoms: C_21  and  C_23
REMARK                            x       y       z     vdW  Elec       q    Type
REMARK                         _______ _______ _______ _____ _____    ______ ____
ROOT
ATOM     11  C   UNL     1      -3.035  -0.293  24.598  0.00  0.00    +0.026 C 
ATOM     12  C   UNL     1      -2.272  -0.080  24.826  0.00  0.00    +0.094 C 
ATOM     13  N   UNL     1      -1.668  -0.642  24.823  0.00  0.00    -0.280 N 
ATOM     14  C   UNL     1      -1.828  -1.417  24.591  0.00  0.00    +0.093 C 
ATOM     15  C   UNL     1      -2.590  -1.630  24.363  0.00  0.00    +0.022 C 
ATOM     16  C   UNL     1      -3.195  -1.069  24.366  0.00  0.00    +0.015 C 
ATOM     21  C   UNL     1      -0.904  -0.429  25.052  0.00  0.00    +0.225 C 
ATOM     22  O   UNL     1      -0.301  -0.990  25.049  0.00  0.00    -0.275 OA
ENDROOT
BRANCH  21  23
ATOM     23  C   UNL     1      -0.746   0.347  25.284  0.00  0.00    +0.069 C 
ATOM     24  C   UNL     1      -0.586   1.123  25.515  0.00  0.00    +0.009 C 
ATOM     25  C   UNL     1      -0.443   0.509  24.533  0.00  0.00    +0.009 C 
ATOM     26  C   UNL     1      -1.048   0.186  26.034  0.00  0.00    +0.009 C 
ENDBRANCH  21  23
BRANCH  11  10
ATOM     10  C   UNL     1      -3.639   0.269  24.601  0.00  0.00    +0.047 C 
BRANCH  10   9
ATOM      3  C   UNL     1      -4.533   3.092  24.893  0.00  0.00    +0.138 A 
ATOM      4  C   UNL     1      -4.159   3.044  24.159  0.00  0.00    +0.033 A 
ATOM      5  C   UNL     1      -3.842   2.327  23.901  0.00  0.00    -0.016 A 
ATOM      6  C   UNL     1      -3.899   1.656  24.380  0.00  0.00    +0.009 A 
ATOM      7  C   UNL     1      -4.272   1.703  25.114  0.00  0.00    +0.004 A 
ATOM      8  C   UNL     1      -4.589   2.421  25.371  0.00  0.00    +0.037 A 
ATOM      9  C   UNL     1      -3.582   0.939  24.123  0.00  0.00    +0.053 C 
ATOM     27  N   UNL     1      -3.209   0.892  23.390  0.00  0.00    -0.274 NA
ATOM     28  C   UNL     1      -3.152   1.563  22.911  0.00  0.00    +0.130 C 
ATOM     29  C   UNL     1      -3.469   2.280  23.168  0.00  0.00    +0.053 C 
BRANCH   3   2
ATOM      1  C   UNL     1      -5.504   3.814  25.651  0.00  0.00    +0.252 C 
ATOM      2  O   UNL     1      -4.849   3.808  25.149  0.00  0.00    -0.471 OA
ENDBRANCH   3   2
ENDBRANCH  10   9
ENDBRANCH  11  10
BRANCH  16  17
ATOM     17  C   UNL     1      -3.958  -1.282  24.137  0.00  0.00    +0.114 C 
BRANCH  17  18
ATOM     18  C   UNL     1      -4.148  -2.077  24.028  0.00  0.00    +0.365 C 
ATOM     19  O   UNL     1      -4.197  -2.583  24.678  0.00  0.00    -0.246 OA
ATOM     20  O   UNL     1      -4.291  -2.367  23.268  0.00  0.00    -0.246 OA
ENDBRANCH  17  18
ENDBRANCH  16  17
TORSDOF 6
ENDMDL
MODEL 3
REMARK VINA RESULT:     -11.2      0.885      2.634
REMARK  Name = 
REMARK  6 active torsions:
REMARK  status: ('A' for Active; 'I' for Inactive)
REMARK    1  A    between atoms: O_2  and  C_3
REMARK    2  A    between atoms: C_9  and  C_10
REMARK    3  A    between atoms: C_10  and  C_11
REMARK    4  A    between atoms: C_16  and  C_17
REMARK    5  A    between atoms: C_17  and  C_18
REMARK    6  A    between atoms: C_21  and  C_23
REMARK                            x       y       z     vdW  Elec       q    Type
REMARK                         _______ _______ _______ _____ _____    ______ ____
ROOT
ATOM     11  C   UNL     1      -4.148   1.230  24.635  0.00  0.00    +0.026 C 
ATOM     12  C   UNL     1      -3.448   1.455  24.262  0.00  0.00    +0.094 C 
ATOM     13  N   UNL     1      -3.213   2.246  24.269  0.00  0.00    -0.280 N 
ATOM     14  C   UNL     1      -3.679   2.811  24.648  0.00  0.00    +0.093 C 
ATOM     15  C   UNL     1      -4.379   2.586  25.021  0.00  0.00    +0.022 C 
ATOM     16  C   UNL     1      -4.614   1.796  25.015  0.00  0.00    +0.015 C 
ATOM     21  C   UNL     1      -2.512   2.471  23.896  0.00  0.00    +0.225 C 
ATOM     22  O   UNL     1      -2.278   3.262  23.902  0.00  0.00    -0.275 OA
ENDROOT
BRANCH  21  23
ATOM     23  C   UNL     1      -2.047   1.905  23.517  0.00  0.00    +0.069 C 
ATOM     24  C   UNL     1      -1.581   1.339  23.139  0.00  0.00    +0.009 C 
ATOM     25  C   UNL     1      -1.552   1.872  24.176  0.00  0.00    +0.009 C 
ATOM     26  C   UNL     1      -2.542   1.939  22.858  0.00  0.00    +0.009 C 
ENDBRANCH  21  23
BRANCH  11  10
ATOM     10  C   UNL     1      -4.383   0.439  24.629  0.00  0.00    +0.047 C 
BRANCH  10   9
ATOM      3  C   UNL     1      -3.836  -2.457  24.222  0.00  0.00    +0.138 A 
ATOM      4  C   UNL     1      -3.438  -2.243  24.912  0.00  0.00    +0.033 A 
ATOM      5  C   UNL     1      -3.475  -1.466  25.187  0.00  0.00    -0.016 A 
ATOM      6  C   UNL     1      -3.911  -0.901  24.771  0.00  0.00    +0.009 A 
ATOM      7  C   UNL     1      -4.309  -1.115  24.080  0.00  0.00    +0.004 A 
ATOM      8  C   UNL     1      -4.272  -1.892  23.805  0.00  0.00    +0.037 A 
ATOM      9  C   UNL     1      -3.948  -0.125  25.045  0.00  0.00    +0.053 C 
ATOM     27  N   UNL     1      -3.550   0.089  25.734  0.00  0.00    -0.274 NA
ATOM     28  C   UNL     1      -3.114  -0.476  26.151  0.00  0.00    +0.130 C 
ATOM     29  C   UNL     1      -3.077  -1.252  25.877  0.00  0.00    +0.053 C 
BRANCH   3   2
ATOM      1  C   UNL     1      -3.068  -3.596  23.831  0.00  0.00    +0.252 C 
ATOM      2  O   UNL     1      -3.799  -3.234  23.947  0.00  0.00    -0.471 OA
ENDBRANCH   3   2
ENDBRANCH  10   9
ENDBRANCH  11  10
BRANCH  16  17
ATOM     17  C   UNL     1      -5.315   1.570  25.387  0.00  0.00    +0.114 C 
BRANCH  17  18
ATOM     18  C   UNL     1      -5.890   2.135  25.560  0.00  0.00    +0.365 C 
ATOM     19  O   UNL     1      -5.870   2.539  26.280  0.00  0.00    -0.246 OA
ATOM     20  O   UNL     1      -6.486   2.298  25.012  0.00  0.00    -0.246 OA
ENDBRANCH  17  18
ENDBRANCH  16  17
TORSDOF 6
ENDMDL
MODEL 4
REMARK VINA RESULT:     -11.1      1.736      4.333
REMARK  Name = 
REMARK  6 active torsions:
REMARK  status: ('A' for Active; 'I' for Inactive)
REMARK    1  A    between atoms: O_2  and  C_3
REMARK    2  A    between atoms: C_9  and  C_10
REMARK    3  A    between atoms: C_10  and  C_11
REMARK    4  A    between atoms: C_16  and  C_17
REMARK    5  A    between atoms: C_17  and  C_18
REMARK    6  A    between atoms: C_21  and  C_23
REMARK                            x       y       z     vdW  Elec       q    Type
REMARK                         _______ _______ _______ _____ _____    ______ ____
ROOT
ATOM     11  C   UNL     1      -1.623   1.078  24.711  0.00  0.00    +0.026 C 
ATOM     12  C   UNL     1      -2.048   0.382  24.830  0.00  0.00    +0.094 C 
ATOM     13  N   UNL     1      -1.673  -0.350  24.750  0.00  0.00    -0.280 N 
ATOM     14  C   UNL     1      -0.873  -0.382  24.551  0.00  0.00    +0.093 C 
ATOM     15  C   UNL     1      -0.449   0.314  24.431  0.00  0.00    +0.022 C 
ATOM     16  C   UNL     1      -0.823   1.044  24.511  0.00  0.00    +0.015 C 
ATOM     21  C   UNL     1      -2.098  -1.046  24.870  0.00  0.00    +0.225 C 
ATOM     22  O   UNL     1      -1.723  -1.776  24.790  0.00  0.00    -0.275 OA
ENDROOT
BRANCH  21  23
ATOM     23  C   UNL     1      -2.898  -1.012  25.070  0.00  0.00    +0.069 C 
ATOM     24  C   UNL     1      -3.698  -0.978  25.268  0.00  0.00    +0.009 C 
ATOM     25  C   UNL     1      -3.099  -1.136  24.279  0.00  0.00    +0.009 C 
ATOM     26  C   UNL     1      -2.696  -0.888  25.859  0.00  0.00    +0.009 C 
ENDBRANCH  21  23
BRANCH  11  10
ATOM     10  C   UNL     1      -1.998   1.809  24.791  0.00  0.00    +0.047 C 
BRANCH  10   9
ATOM      3  C   UNL     1      -4.506   3.401  24.952  0.00  0.00    +0.138 A 
ATOM      4  C   UNL     1      -4.420   3.188  24.159  0.00  0.00    +0.033 A 
ATOM      5  C   UNL     1      -3.771   2.737  23.920  0.00  0.00    -0.016 A 
ATOM      6  C   UNL     1      -3.208   2.498  24.475  0.00  0.00    +0.009 A 
ATOM      7  C   UNL     1      -3.294   2.711  25.268  0.00  0.00    +0.004 A 
ATOM      8  C   UNL     1      -3.943   3.162  25.507  0.00  0.00    +0.037 A 
ATOM      9  C   UNL     1      -2.560   2.047  24.237  0.00  0.00    +0.053 C 
ATOM     27  N   UNL     1      -2.474   1.835  23.445  0.00  0.00    -0.274 NA
ATOM     28  C   UNL     1      -3.038   2.074  22.890  0.00  0.00    +0.130 C 
ATOM     29  C   UNL     1      -3.685   2.525  23.128  0.00  0.00    +0.053 C 
BRANCH   3   2
ATOM      1  C   UNL     1      -5.704   3.536  25.717  0.00  0.00    +0.252 C 
ATOM      2  O   UNL     1      -5.154   3.851  25.190  0.00  0.00    -0.471 OA
ENDBRANCH   3   2
ENDBRANCH  10   9
ENDBRANCH  11  10
BRANCH  16  17
ATOM     17  C   UNL     1      -0.398   1.741  24.392  0.00  0.00    +0.114 C 
BRANCH  17  18
ATOM     18  C   UNL     1       0.414   1.758  24.533  0.00  0.00    +0.365 C 
ATOM     19  O   UNL     1       0.700   1.960  25.280  0.00  0.00    -0.246 OA
ATOM     20  O   UNL     1       0.943   1.573  23.925  0.00  0.00    -0.246 OA
ENDBRANCH  17  18
ENDBRANCH  16  17
TORSDOF 6
ENDMDL
MODEL 5
REMARK VINA RESULT:     -11.0      1.676      3.150
REMARK  Name = 
REMARK  6 active torsions:
REMARK  status: ('A' for Active; 'I' for Inactive)
REMARK    1  A    between atoms: O_2  and  C_3
REMARK    2  A    between atoms: C_9  and  C_10
REMARK    3  A    between atoms: C_10  and  C_11
REMARK    4  A    between atoms: C_16  and  C_17
REMARK    5  A    between atoms: C_17  and  C_18
REMARK    6  A    between atoms: C_21  and  C_23
REMARK                            x       y       z     vdW  Elec       q    Type
REMARK                         _______ _______ _______ _____ _____    ______ ____
ROOT
ATOM     11  C   UNL     1      -3.372   2.431  25.237  0.00  0.00    +0.026 C 
ATOM     12  C   UNL     1      -2.557   2.546  25.259  0.00  0.00    +0.094 C 
ATOM     13  N   UNL     1      -2.248   3.311  25.284  0.00  0.00    -0.280 N 
ATOM     14  C   UNL     1      -2.757   3.961  25.287  0.00  0.00    +0.093 C 
ATOM     15  C   UNL     1      -3.572   3.846  25.265  0.00  0.00    +0.022 C 
ATOM     16  C   UNL     1      -3.881   3.081  25.240  0.00  0.00    +0.015 C 
ATOM     21  C   UNL     1      -1.431   3.427  25.306  0.00  0.00    +0.225 C 
ATOM     22  O   UNL     1      -1.123   4.191  25.330  0.00  0.00    -0.275 OA
ENDROOT
BRANCH  21  23
ATOM     23  C   UNL     1      -0.923   2.776  25.303  0.00  0.00    +0.069 C 
ATOM     24  C   UNL     1      -0.415   2.126  25.299  0.00  0.00    +0.009 C 
ATOM     25  C   UNL     1      -0.813   2.867  24.490  0.00  0.00    +0.009 C 
ATOM     26  C   UNL     1      -1.034   2.686  26.115  0.00  0.00    +0.009 C 
ENDBRANCH  21  23
BRANCH  11  10
ATOM     10  C   UNL     1      -3.681   1.667  25.213  0.00  0.00    +0.047 C 
BRANCH  10   9
ATOM      3  C   UNL     1      -3.760  -1.260  24.685  0.00  0.00    +0.138 A 
ATOM      4  C   UNL     1      -3.608  -0.900  23.958  0.00  0.00    +0.033 A 
ATOM      5  C   UNL     1      -3.551  -0.078  23.907  0.00  0.00    -0.016 A 
ATOM      6  C   UNL     1      -3.645   0.384  24.585  0.00  0.00    +0.009 A 
ATOM      7  C   UNL     1      -3.797   0.024  25.312  0.00  0.00    +0.004 A 
ATOM      8  C   UNL     1      -3.854  -0.798  25.362  0.00  0.00    +0.037 A 
ATOM      9  C   UNL     1      -3.587   1.205  24.536  0.00  0.00    +0.053 C 
ATOM     27  N   UNL     1      -3.435   1.564  23.809  0.00  0.00    -0.274 NA
ATOM     28  C   UNL     1      -3.341   1.102  23.132  0.00  0.00    +0.130 C 
ATOM     29  C   UNL     1      -3.399   0.281  23.181  0.00  0.00    +0.053 C 
BRANCH   3   2
ATOM      1  C   UNL     1      -3.251  -2.510  25.151  0.00  0.00    +0.252 C 
ATOM      2  O   UNL     1      -3.818  -2.081  24.734  0.00  0.00    -0.471 OA
ENDBRANCH   3   2
ENDBRANCH  10   9
ENDBRANCH  11  10
BRANCH  16  17
ATOM     17  C   UNL     1      -4.698   2.966  25.218  0.00  0.00    +0.114 C 
BRANCH  17  18
ATOM     18  C   UNL     1      -5.197   3.479  25.627  0.00  0.00    +0.365 C 
ATOM     19  O   UNL     1      -5.461   4.173  25.268  0.00  0.00    -0.246 OA
ATOM     20  O   UNL     1      -5.434   3.297  26.398  0.00  0.00    -0.246 OA
ENDBRANCH  17  18
ENDBRANCH  16  17
TORSDOF 6
ENDMDL
MODEL 6
REMARK VINA RESULT:     -10.9      1.303      1.743
REMARK  Name = 
REMARK  6 active torsions:
REMARK  status: ('A' for Active; 'I' for Inactive)
REMARK    1  A    between atoms: O_2  and  C_3
REMARK    2  A    between atoms: C_9  and  C_10
REMARK    3  A    between atoms: C_10  and  C_11
REMARK    4  A    between atoms: C_16  and  C_17
REMARK    5  A    between atoms: C_17  and  C_18
REMARK    6  A    between atoms: C_21  and  C_23
REMARK                            x       y       z     vdW  Elec       q    Type
REMARK                         _______ _______ _______ _____ _____    ______ ____
ROOT
ATOM     11  C   UNL     1      -3.116   2.045  25.200  0.00  0.00    +0.026 C 
ATOM     12  C   UNL     1      -3.918   2.222  25.271  0.00  0.00    +0.094 C 
ATOM     13  N   UNL     1      -4.168   3.009  25.272  0.00  0.00    -0.280 N 
ATOM     14  C   UNL     1      -3.616   3.617  25.202  0.00  0.00    +0.093 C 
ATOM     15  C   UNL     1      -2.814   3.440  25.130  0.00  0.00    +0.022 C 
ATOM     16  C   UNL     1      -2.563   2.655  25.130  0.00  0.00    +0.015 C 
ATOM     21  C   UNL     1      -4.971   3.186  25.343  0.00  0.00    +0.225 C 
ATOM     22  O   UNL     1      -5.221   3.971  25.344  0.00  0.00    -0.275 OA
ENDROOT
BRANCH  21  23
ATOM     23  C   UNL     1      -5.523   2.576  25.414  0.00  0.00    +0.069 C 
ATOM     24  C   UNL     1      -6.074   1.967  25.483  0.00  0.00    +0.009 C 
ATOM     25  C   UNL     1      -5.640   2.589  24.596  0.00  0.00    +0.009 C 
ATOM     26  C   UNL     1      -5.406   2.564  26.229  0.00  0.00    +0.009 C 
ENDBRANCH  21  23
BRANCH  11  10
ATOM     10  C   UNL     1      -2.865   1.260  25.199  0.00  0.00    +0.047 C 
BRANCH  10   9
ATOM      3  C   UNL     1      -3.569  -1.628  25.073  0.00  0.00    +0.138 A 
ATOM      4  C   UNL     1      -3.641  -1.341  24.302  0.00  0.00    +0.033 A 
ATOM      5  C   UNL     1      -3.483  -0.547  24.141  0.00  0.00    -0.016 A 
ATOM      6  C   UNL     1      -3.252  -0.040  24.751  0.00  0.00    +0.009 A 
ATOM      7  C   UNL     1      -3.181  -0.327  25.521  0.00  0.00    +0.004 A 
ATOM      8  C   UNL     1      -3.339  -1.121  25.683  0.00  0.00    +0.037 A 
ATOM      9  C   UNL     1      -3.094   0.753  24.590  0.00  0.00    +0.053 C 
ATOM     27  N   UNL     1      -3.166   1.040  23.821  0.00  0.00    -0.274 NA
ATOM     28  C   UNL     1      -3.396   0.533  23.211  0.00  0.00    +0.130 C 
ATOM     29  C   UNL     1      -3.554  -0.260  23.371  0.00  0.00    +0.053 C 
BRANCH   3   2
ATOM      1  C   UNL     1      -3.285  -3.013  24.866  0.00  0.00    +0.252 C 
ATOM      2  O   UNL     1      -3.727  -2.421  25.233  0.00  0.00    -0.471 OA
ENDBRANCH   3   2
ENDBRANCH  10   9
ENDBRANCH  11  10
BRANCH  16  17
ATOM     17  C   UNL     1      -1.761   2.478  25.059  0.00  0.00    +0.114 C 
BRANCH  17  18
ATOM     18  C   UNL     1      -1.196   3.062  25.197  0.00  0.00    +0.365 C 
ATOM     19  O   UNL     1      -0.925   3.202  25.964  0.00  0.00    -0.246 OA
ATOM     20  O   UNL     1      -0.901   3.508  24.567  0.00  0.00    -0.246 OA
ENDBRANCH  17  18
ENDBRANCH  16  17
TORSDOF 6
ENDMDL
MODEL 7
REMARK VINA RESULT:     -10.7      1.742      3.692
REMARK  Name = 
REMARK  6 active torsions:
REMARK  status: ('A' for Active; 'I' for Inactive)
REMARK    1  A    between atoms: O_2  and  C_3
REMARK    2  A    between atoms: C_9  and  C_10
REMARK    3  A    between atoms: C_10  and  C_11
REMARK    4  A    between atoms: C_16  and  C_17
REMARK    5  A    between atoms: C_17  and  C_18
REMARK    6  A    between atoms: C_21  and  C_23
REMARK                            x       y       z     vdW  Elec       q    Type
REMARK                         _______ _______ _______ _____ _____    ______ ____
ROOT
ATOM     11  C   UNL     1      -3.523   0.534  24.787  0.00  0.00    +0.026 C 
ATOM     12  C   UNL     1      -3.975   1.213  24.904  0.00  0.00    +0.094 C 
ATOM     13  N   UNL     1      -4.791   1.193  24.779  0.00  0.00    -0.280 N 
ATOM     14  C   UNL     1      -5.153   0.492  24.538  0.00  0.00    +0.093 C 
ATOM     15  C   UNL     1      -4.701  -0.187  24.421  0.00  0.00    +0.022 C 
ATOM     16  C   UNL     1      -3.886  -0.167  24.545  0.00  0.00    +0.015 C 
ATOM     21  C   UNL     1      -5.243   1.872  24.896  0.00  0.00    +0.225 C 
ATOM     22  O   UNL     1      -6.058   1.852  24.771  0.00  0.00    -0.275 OA
ENDROOT
BRANCH  21  23
ATOM     23  C   UNL     1      -4.880   2.573  25.137  0.00  0.00    +0.069 C 
ATOM     24  C   UNL     1      -4.516   3.273  25.377  0.00  0.00    +0.009 C 
ATOM     25  C   UNL     1      -4.816   2.810  24.349  0.00  0.00    +0.009 C 
ATOM     26  C   UNL     1      -4.944   2.336  25.924  0.00  0.00    +0.009 C 
ENDBRANCH  21  23
BRANCH  11  10
ATOM     10  C   UNL     1      -2.708   0.554  24.911  0.00  0.00    +0.047 C 
BRANCH  10   9
ATOM      3  C   UNL     1      -0.223   2.119  25.388  0.00  0.00    +0.138 A 
ATOM      4  C   UNL     1      -0.412   2.226  24.593  0.00  0.00    +0.033 A 
ATOM      5  C   UNL     1      -1.081   1.862  24.274  0.00  0.00    -0.016 A 
ATOM      6  C   UNL     1      -1.561   1.390  24.752  0.00  0.00    +0.009 A 
ATOM      7  C   UNL     1      -1.371   1.282  25.548  0.00  0.00    +0.004 A 
ATOM      8  C   UNL     1      -0.702   1.646  25.867  0.00  0.00    +0.037 A 
ATOM      9  C   UNL     1      -2.229   1.026  24.434  0.00  0.00    +0.053 C 
ATOM     27  N   UNL     1      -2.418   1.134  23.639  0.00  0.00    -0.274 NA
ATOM     28  C   UNL     1      -1.938   1.606  23.161  0.00  0.00    +0.130 C 
ATOM     29  C   UNL     1      -1.270   1.970  23.479  0.00  0.00    +0.053 C 
BRANCH   3   2
ATOM      1  C   UNL     1       0.477   2.654  26.512  0.00  0.00    +0.252 C 
ATOM      2  O   UNL     1       0.445   2.482  25.707  0.00  0.00    -0.471 OA
ENDBRANCH   3   2
ENDBRANCH  10   9
ENDBRANCH  11  10
BRANCH  16  17
ATOM     17  C   UNL     1      -3.434  -0.847  24.429  0.00  0.00    +0.114 C 
BRANCH  17  18
ATOM     18  C   UNL     1      -3.794  -1.589  24.440  0.00  0.00    +0.365 C 
ATOM     19  O   UNL     1      -3.818  -2.026  25.139  0.00  0.00    -0.246 OA
ATOM     20  O   UNL     1      -4.130  -1.894  23.750  0.00  0.00    -0.246 OA
ENDBRANCH  17  18
ENDBRANCH  16  17
TORSDOF 6
ENDMDL
MODEL 8
REMARK VINA RESULT:     -10.5      2.072      4.440
REMARK  Name = 
REMARK  6 active torsions:
REMARK  status: ('A' for Active; 'I' for Inactive)
REMARK    1  A    between atoms: O_2  and  C_3
REMARK    2  A    between atoms: C_9  and  C_10
REMARK    3  A    between atoms: C_10  and  C_11
REMARK    4  A    between atoms: C_16  and  C_17
REMARK    5  A    between atoms: C_17  and  C_18
REMARK    6  A    between atoms: C_21  and  C_23
REMARK                            x       y       z     vdW  Elec       q    Type
REMARK                         _______ _______ _______ _____ _____    ______ ____
ROOT
ATOM     11  C   UNL     1      -1.806   0.820  24.881  0.00  0.00    +0.026 C 
ATOM     12  C   UNL     1      -1.358   1.490  25.052  0.00  0.00    +0.094 C 
ATOM     13  N   UNL     1      -0.534   1.441  25.073  0.00  0.00    -0.280 N 
ATOM     14  C   UNL     1      -0.160   0.721  24.922  0.00  0.00    +0.093 C 
ATOM     15  C   UNL     1      -0.608   0.051  24.751  0.00  0.00    +0.022 C 
ATOM     16  C   UNL     1      -1.431   0.100  24.731  0.00  0.00    +0.015 C 
ATOM     21  C   UNL     1      -0.085   2.112  25.244  0.00  0.00    +0.225 C 
ATOM     22  O   UNL     1       0.738   2.063  25.265  0.00  0.00    -0.275 OA
ENDROOT
BRANCH  21  23
ATOM     23  C   UNL     1      -0.460   2.831  25.395  0.00  0.00    +0.069 C 
ATOM     24  C   UNL     1      -0.835   3.551  25.544  0.00  0.00    +0.009 C 
ATOM     25  C   UNL     1      -0.342   3.056  24.609  0.00  0.00    +0.009 C 
ATOM     26  C   UNL     1      -0.577   2.606  26.179  0.00  0.00    +0.009 C 
ENDBRANCH  21  23
BRANCH  11  10
ATOM     10  C   UNL     1      -2.629   0.868  24.861  0.00  0.00    +0.047 C 
BRANCH  10   9
ATOM      3  C   UNL     1      -5.045   2.603  24.927  0.00  0.00    +0.138 A 
ATOM      4  C   UNL     1      -4.735   2.671  24.165  0.00  0.00    +0.033 A 
ATOM      5  C   UNL     1      -4.053   2.254  23.958  0.00  0.00    -0.016 A 
ATOM      6  C   UNL     1      -3.681   1.769  24.513  0.00  0.00    +0.009 A 
ATOM      7  C   UNL     1      -3.992   1.701  25.275  0.00  0.00    +0.004 A 
ATOM      8  C   UNL     1      -4.673   2.118  25.482  0.00  0.00    +0.037 A 
ATOM      9  C   UNL     1      -3.001   1.353  24.306  0.00  0.00    +0.053 C 
ATOM     27  N   UNL     1      -2.691   1.421  23.545  0.00  0.00    -0.274 NA
ATOM     28  C   UNL     1      -3.063   1.906  22.990  0.00  0.00    +0.130 C 
ATOM     29  C   UNL     1      -3.744   2.322  23.197  0.00  0.00    +0.053 C 
BRANCH   3   2
ATOM      1  C   UNL     1      -5.680   3.648  25.665  0.00  0.00    +0.252 C 
ATOM      2  O   UNL     1      -5.726   3.019  25.134  0.00  0.00    -0.471 OA
ENDBRANCH   3   2
ENDBRANCH  10   9
ENDBRANCH  11  10
BRANCH  16  17
ATOM     17  C   UNL     1      -1.880  -0.571  24.559  0.00  0.00    +0.114 C 
BRANCH  17  18
ATOM     18  C   UNL     1      -1.553  -1.322  24.657  0.00  0.00    +0.365 C 
ATOM     19  O   UNL     1      -1.188  -1.699  24.021  0.00  0.00    -0.246 OA
ATOM     20  O   UNL     1      -1.592  -1.696  25.392  0.00  0.00    -0.246 OA
ENDBRANCH  17  18
ENDBRANCH  16  17
TORSDOF 6
ENDMDL
MODEL 9
REMARK VINA RESULT:     -10.3      1.629      4.570
REMARK  Name = 
REMARK  6 active torsions:
REMARK  status: ('A' for Active; 'I' for Inactive)
REMARK    1  A    between atoms: O_2  and  C_3
REMARK    2  A    between atoms: C_9  and  C_10
REMARK    3  A    between atoms: C_10  and  C_11
REMARK    4  A    between atoms: C_16  and  C_17
REMARK    5  A    between atoms: C_17  and  C_18
REMARK    6  A    between atoms: C_21  and  C_23
REMARK                            x       y       z     vdW  Elec       q    Type
REMARK                         _______ _______ _______ _____ _____    ______ ____
ROOT
ATOM     11  C   UNL     1      -3.833   1.065  25.004  0.00  0.00    +0.026 C 
ATOM     12  C   UNL     1      -3.395   0.372  25.093  0.00  0.00    +0.094 C 
ATOM     13  N   UNL     1      -3.775  -0.360  25.092  0.00  0.00    -0.280 N 
ATOM     14  C   UNL     1      -4.594  -0.399  25.002  0.00  0.00    +0.093 C 
ATOM     15  C   UNL     1      -5.033   0.293  24.913  0.00  0.00    +0.022 C 
ATOM     16  C   UNL     1      -4.653   1.026  24.914  0.00  0.00    +0.015 C 
ATOM     21  C   UNL     1      -3.337  -1.053  25.182  0.00  0.00    +0.225 C 
ATOM     22  O   UNL     1      -3.717  -1.785  25.181  0.00  0.00    -0.275 OA
ENDROOT
BRANCH  21  23
ATOM     23  C   UNL     1      -2.517  -1.013  25.272  0.00  0.00    +0.069 C 
ATOM     24  C   UNL     1      -1.698  -0.974  25.360  0.00  0.00    +0.009 C 
ATOM     25  C   UNL     1      -2.422  -1.189  24.470  0.00  0.00    +0.009 C 
ATOM     26  C   UNL     1      -2.613  -0.838  26.071  0.00  0.00    +0.009 C 
ENDBRANCH  21  23
BRANCH  11  10
ATOM     10  C   UNL     1      -3.453   1.797  25.004  0.00  0.00    +0.047 C 
BRANCH  10   9
ATOM      3  C   UNL     1      -1.072   3.569  24.797  0.00  0.00    +0.138 A 
ATOM      4  C   UNL     1      -1.183   3.244  24.046  0.00  0.00    +0.033 A 
ATOM      5  C   UNL     1      -1.805   2.720  23.910  0.00  0.00    -0.016 A 
ATOM      6  C   UNL     1      -2.319   2.520  24.525  0.00  0.00    +0.009 A 
ATOM      7  C   UNL     1      -2.208   2.845  25.276  0.00  0.00    +0.004 A 
ATOM      8  C   UNL     1      -1.585   3.369  25.412  0.00  0.00    +0.037 A 
ATOM      9  C   UNL     1      -2.941   1.997  24.389  0.00  0.00    +0.053 C 
ATOM     27  N   UNL     1      -3.051   1.673  23.639  0.00  0.00    -0.274 NA
ATOM     28  C   UNL     1      -2.538   1.873  23.024  0.00  0.00    +0.130 C 
ATOM     29  C   UNL     1      -1.916   2.396  23.160  0.00  0.00    +0.053 C 
BRANCH   3   2
ATOM      1  C   UNL     1      -0.591   4.904  24.953  0.00  0.00    +0.252 C 
ATOM      2  O   UNL     1      -0.450   4.092  24.933  0.00  0.00    -0.471 OA
ENDBRANCH   3   2
ENDBRANCH  10   9
ENDBRANCH  11  10
BRANCH  16  17
ATOM     17  C   UNL     1      -5.092   1.719  24.824  0.00  0.00    +0.114 C 
BRANCH  17  18
ATOM     18  C   UNL     1      -5.859   1.761  25.121  0.00  0.00    +0.365 C 
ATOM     19  O   UNL     1      -6.503   1.625  24.624  0.00  0.00    -0.246 OA
ATOM     20  O   UNL     1      -5.984   1.941  25.918  0.00  0.00    -0.246 OA
ENDBRANCH  17  18
ENDBRANCH  16  17
TORSDOF 6
ENDMDL
