MODEL 1
REMARK VINA RESULT:     -11.8      0.000      0.000
REMARK  Name = 
REMARK  7 active torsions:
REMARK  status: ('A' for Active; 'I' for Inactive)
REMARK    1  A    between atoms: O_2  and  C_3
REMARK    2  A    between atoms: C_3  and  C_4
REMARK    3  A    between atoms: C_9  and  C_11
REMARK    4  A    between atoms: C_11  and  C_12
REMARK    5  A    between atoms: C_14  and  C_15
REMARK    6  A    between atoms: C_15  and  N_16
REMARK    7  A    between atoms: N_19  and  C_20
REMARK                            x       y       z     vdW  Elec       q    Type
REMARK                         _______ _______ _______ _____ _____    ______ ____
ROOT
ATOM     12  C   UNL     1      -4.052   3.283  25.302  0.00  0.00    +0.157 C 
ATOM     13  O   UNL     1      -3.957   2.481  25.133  0.00  0.00    -0.351 OA
ATOM     14  C   UNL     1      -4.701   2.126  25.154  0.00  0.00    +0.170 C 
ATOM     27  C   UNL     1      -5.257   2.709  25.336  0.00  0.00    +0.213 C 
ATOM     28  O   UNL     1      -6.071   2.596  25.413  0.00  0.00    -0.218 OA
ATOM     29  C   UNL     1      -4.855   3.424  25.428  0.00  0.00    +0.212 C 
ATOM     30  O   UNL     1      -5.197   4.151  25.612  0.00  0.00    -0.218 OA
ENDROOT
BRANCH  12  11
ATOM     11  C   UNL     1      -3.449   3.846  25.340  0.00  0.00    +0.117 C 
BRANCH  11   9
ATOM      4  C   UNL     1      -1.245   3.952  25.407  0.00  0.00    +0.105 C 
ATOM      5  C   UNL     1      -0.815   4.604  25.140  0.00  0.00    +0.024 C 
ATOM      6  C   UNL     1      -1.351   5.166  24.862  0.00  0.00    +0.023 C 
ATOM      7  C   UNL     1      -2.112   4.862  24.958  0.00  0.00    +0.093 C 
ATOM      8  N   UNL     1      -2.046   4.112  25.294  0.00  0.00    -0.279 N 
ATOM      9  C   UNL     1      -2.673   3.610  25.485  0.00  0.00    +0.228 C 
ATOM     10  O   UNL     1      -2.522   2.872  25.820  0.00  0.00    -0.275 OA
BRANCH   4   3
ATOM      3  C   UNL     1      -0.929   3.261  25.730  0.00  0.00    +0.162 C 
BRANCH   3   2
ATOM      1  C   UNL     1       0.204   2.452  26.053  0.00  0.00    +0.174 C 
ATOM      2  O   UNL     1      -0.112   3.147  25.740  0.00  0.00    -0.349 OA
ENDBRANCH   3   2
ENDBRANCH   4   3
ENDBRANCH  11   9
ENDBRANCH  12  11
BRANCH  14  15
ATOM     15  C   UNL     1      -4.863   1.328  25.017  0.00  0.00    +0.149 C 
BRANCH  15  16
ATOM     16  N   UNL     1      -4.369   0.887  24.525  0.00  0.00    -0.184 NA
ATOM     17  C   UNL     1      -4.291   0.074  24.642  0.00  0.00    +0.344 C 
ATOM     18  O   UNL     1      -4.706  -0.297  25.250  0.00  0.00    -0.249 OA
ATOM     19  N   UNL     1      -3.797  -0.368  24.149  0.00  0.00    -0.161 NA
BRANCH  19  20
ATOM     20  C   UNL     1      -3.720  -1.181  24.267  0.00  0.00    +0.077 A 
ATOM     21  C   UNL     1      -3.166  -1.468  24.807  0.00  0.00    +0.017 A 
ATOM     22  C   UNL     1      -3.088  -2.281  24.924  0.00  0.00    +0.004 A 
ATOM     23  C   UNL     1      -3.563  -2.806  24.502  0.00  0.00    +0.030 A 
ATOM     24  C   UNL     1      -4.116  -2.519  23.962  0.00  0.00    +0.141 A 
ATOM     25  F   UNL     1      -4.591  -3.045  23.540  0.00  0.00    -0.204 F 
ATOM     26  C   UNL     1      -4.194  -1.706  23.845  0.00  0.00    +0.046 A 
ENDBRANCH  19  20
ENDBRANCH  15  16
ENDBRANCH  14  15
TORSDOF 7
ENDMDL
MODEL 2
REMARK VINA RESULT:     -10.6      1.581      3.249
REMARK  Name = 
REMARK  7 active torsions:
REMARK  status: ('A' for Active; 'I' for Inactive)
REMARK    1  A    between atoms: O_2  and  C_3
REMARK    2  A    between atoms: C_3  and  C_4
REMARK    3  A    between atoms: C_9  and  C_11
REMARK    4  A    between atoms: C_11  and  C_12
REMARK    5  A    between atoms: C_14  and  C_15
REMARK    6  A    between atoms: C_15  and  N_16
REMARK    7  A    between atoms: N_19  and  C_20
REMARK                            x       y       z     vdW  Elec       q    Type
REMARK                         _______ _______ _______ _____ _____    ______ ____
ROOT
ATOM     12  C   UNL     1      -0.241   2.061  24.813  0.00  0.00    +0.157 C 
ATOM     13  O   UNL     1      -0.768   1.432  24.905  0.00  0.00    -0.351 OA
ATOM     14  C   UNL     1      -0.468   0.785  24.493  0.00  0.00    +0.170 C 
ATOM     27  C   UNL     1       0.245   1.012  24.144  0.00  0.00    +0.213 C 
ATOM     28  O   UNL     1       0.732   0.535  23.680  0.00  0.00    -0.218 OA
ATOM     29  C   UNL     1       0.385   1.802  24.343  0.00  0.00    +0.212 C 
ATOM     30  O   UNL     1       1.036   2.251  24.111  0.00  0.00    -0.218 OA
ENDROOT
BRANCH  12  11
ATOM     11  C   UNL     1      -0.326   2.816  25.135  0.00  0.00    +0.117 C 
BRANCH  11   9
ATOM      4  C   UNL     1      -1.980   4.238  25.477  0.00  0.00    +0.105 C 
ATOM      5  C   UNL     1      -1.927   5.043  25.304  0.00  0.00    +0.024 C 
ATOM      6  C   UNL     1      -1.175   5.189  24.998  0.00  0.00    +0.023 C 
ATOM      7  C   UNL     1      -0.763   4.475  24.981  0.00  0.00    +0.093 C 
ATOM      8  N   UNL     1      -1.261   3.887  25.277  0.00  0.00    -0.279 N 
ATOM      9  C   UNL     1      -1.071   3.088  25.359  0.00  0.00    +0.228 C 
ATOM     10  O   UNL     1      -1.628   2.562  25.665  0.00  0.00    -0.275 OA
BRANCH   4   3
ATOM      3  C   UNL     1      -2.637   3.851  25.793  0.00  0.00    +0.162 C 
BRANCH   3   2
ATOM      1  C   UNL     1      -4.047   3.825  26.022  0.00  0.00    +0.174 C 
ATOM      2  O   UNL     1      -3.359   4.247  25.854  0.00  0.00    -0.349 OA
ENDBRANCH   3   2
ENDBRANCH   4   3
ENDBRANCH  11   9
ENDBRANCH  12  11
BRANCH  14  15
ATOM     15  C   UNL     1      -0.818   0.039  24.437  0.00  0.00    +0.149 C 
BRANCH  15  16
ATOM     16  N   UNL     1      -1.570  -0.087  24.753  0.00  0.00    -0.184 NA
ATOM     17  C   UNL     1      -1.982  -0.777  24.570  0.00  0.00    +0.344 C 
ATOM     18  O   UNL     1      -1.643  -1.341  24.073  0.00  0.00    -0.249 OA
ATOM     19  N   UNL     1      -2.734  -0.904  24.886  0.00  0.00    -0.161 NA
BRANCH  19  20
ATOM     20  C   UNL     1      -3.147  -1.595  24.704  0.00  0.00    +0.077 A 
ATOM     21  C   UNL     1      -2.984  -2.292  25.114  0.00  0.00    +0.017 A 
ATOM     22  C   UNL     1      -3.396  -2.983  24.932  0.00  0.00    +0.004 A 
ATOM     23  C   UNL     1      -3.970  -2.978  24.341  0.00  0.00    +0.030 A 
ATOM     24  C   UNL     1      -4.133  -2.281  23.930  0.00  0.00    +0.141 A 
ATOM     25  F   UNL     1      -4.707  -2.275  23.338  0.00  0.00    -0.204 F 
ATOM     26  C   UNL     1      -3.720  -1.589  24.112  0.00  0.00    +0.046 A 
ENDBRANCH  19  20
ENDBRANCH  15  16
ENDBRANCH  14  15
TORSDOF 7
ENDMDL
MODEL 3
REMARK VINA RESULT:     -10.3      2.149      5.324
REMARK  Name = 
REMARK  7 active torsions:
REMARK  status: ('A' for Active; 'I' for Inactive)
REMARK    1  A    between atoms: O_2  and  C_3
REMARK    2  A    between atoms: C_3  and  C_4
REMARK    3  A    between atoms: C_9  and  C_11
REMARK    4  A    between atoms: C_11  and  C_12
REMARK    5  A    between atoms: C_14  and  C_15
REMARK    6  A    between atoms: C_15  and  N_16
REMARK    7  A    between atoms: N_19  and  C_20
REMARK                            x       y       z     vdW  Elec       q    Type
REMARK                         _______ _______ _______ _____ _____    ______ ____
ROOT
ATOM     12  C   UNL     1      -4.813   0.794  24.836  0.00  0.00    +0.157 C 
ATOM     13  O   UNL     1      -4.228   1.357  24.691  0.00  0.00    -0.351 OA
ATOM     14  C   UNL     1      -4.551   2.103  24.833  0.00  0.00    +0.170 C 
ATOM     27  C   UNL     1      -5.336   2.000  25.067  0.00  0.00    +0.213 C 
ATOM     28  O   UNL     1      -5.865   2.602  25.263  0.00  0.00    -0.218 OA
ATOM     29  C   UNL     1      -5.498   1.191  25.068  0.00  0.00    +0.212 C 
ATOM     30  O   UNL     1      -6.218   0.842  25.267  0.00  0.00    -0.218 OA
ENDROOT
BRANCH  12  11
ATOM     11  C   UNL     1      -4.729  -0.024  24.762  0.00  0.00    +0.117 C 
BRANCH  11   9
ATOM      4  C   UNL     1      -3.129  -1.542  24.645  0.00  0.00    +0.105 C 
ATOM      5  C   UNL     1      -3.217  -2.262  24.251  0.00  0.00    +0.024 C 
ATOM      6  C   UNL     1      -3.978  -2.287  23.934  0.00  0.00    +0.023 C 
ATOM      7  C   UNL     1      -4.361  -1.584  24.131  0.00  0.00    +0.093 C 
ATOM      8  N   UNL     1      -3.836  -1.124  24.571  0.00  0.00    -0.279 N 
ATOM      9  C   UNL     1      -3.992  -0.375  24.882  0.00  0.00    +0.228 C 
ATOM     10  O   UNL     1      -3.411   0.021  25.312  0.00  0.00    -0.275 OA
BRANCH   4   3
ATOM      3  C   UNL     1      -2.454  -1.286  25.044  0.00  0.00    +0.162 C 
BRANCH   3   2
ATOM      1  C   UNL     1      -1.061  -1.430  25.332  0.00  0.00    +0.174 C 
ATOM      2  O   UNL     1      -1.754  -1.721  24.992  0.00  0.00    -0.349 OA
ENDBRANCH   3   2
ENDBRANCH   4   3
ENDBRANCH  11   9
ENDBRANCH  12  11
BRANCH  14  15
ATOM     15  C   UNL     1      -4.158   2.825  24.756  0.00  0.00    +0.149 C 
BRANCH  15  16
ATOM     16  N   UNL     1      -3.540   3.014  25.269  0.00  0.00    -0.184 NA
ATOM     17  C   UNL     1      -2.927   3.501  25.012  0.00  0.00    +0.344 C 
ATOM     18  O   UNL     1      -2.931   3.799  24.243  0.00  0.00    -0.249 OA
ATOM     19  N   UNL     1      -2.308   3.691  25.525  0.00  0.00    -0.161 NA
BRANCH  19  20
ATOM     20  C   UNL     1      -1.695   4.179  25.267  0.00  0.00    +0.077 A 
ATOM     21  C   UNL     1      -0.987   3.846  25.002  0.00  0.00    +0.017 A 
ATOM     22  C   UNL     1      -0.374   4.333  24.744  0.00  0.00    +0.004 A 
ATOM     23  C   UNL     1      -0.467   5.152  24.752  0.00  0.00    +0.030 A 
ATOM     24  C   UNL     1      -1.173   5.485  25.017  0.00  0.00    +0.141 A 
ATOM     25  F   UNL     1      -1.266   6.305  25.025  0.00  0.00    -0.204 F 
ATOM     26  C   UNL     1      -1.787   4.998  25.275  0.00  0.00    +0.046 A 
ENDBRANCH  19  20
ENDBRANCH  15  16
ENDBRANCH  14  15
TORSDOF 7
ENDMDL
MODEL 4
REMARK VINA RESULT:      -9.5      2.392      4.563
REMARK  Name = 
REMARK  7 active torsions:
REMARK  status: ('A' for Active; 'I' for Inactive)
REMARK    1  A    between atoms: O_2  and  C_3
REMARK    2  A    between atoms: C_3  and  C_4
REMARK    3  A    between atoms: C_9  and  C_11
REMARK    4  A    between atoms: C_11  and  C_12
REMARK    5  A    between atoms: C_14  and  C_15
REMARK    6  A    between atoms: C_15  and  N_16
REMARK    7  A    between atoms: N_19  and  C_20
REMARK                            x       y       z     vdW  Elec       q    Type
REMARK                         _______ _______ _______ _____ _____    ______ ____
ROOT
ATOM     12  C   UNL     1      -1.838  -1.343  24.606  0.00  0.00    +0.157 C 
ATOM     13  O   UNL     1      -2.441  -0.784  24.676  0.00  0.00    -0.351 OA
ATOM     14  C   UNL     1      -3.155  -1.189  24.761  0.00  0.00    +0.170 C 
ATOM     27  C   UNL     1      -2.993  -1.998  24.744  0.00  0.00    +0.213 C 
ATOM     28  O   UNL     1      -3.548  -2.605  24.812  0.00  0.00    -0.218 OA
ATOM     29  C   UNL     1      -2.178  -2.093  24.648  0.00  0.00    +0.212 C 
ATOM     30  O   UNL     1      -1.777  -2.812  24.603  0.00  0.00    -0.218 OA
ENDROOT
BRANCH  12  11
ATOM     11  C   UNL     1      -1.034  -1.180  24.510  0.00  0.00    +0.117 C 
BRANCH  11   9
ATOM      4  C   UNL     1       0.149   0.662  24.226  0.00  0.00    +0.105 C 
ATOM      5  C   UNL     1       0.679   0.768  23.601  0.00  0.00    +0.024 C 
ATOM      6  C   UNL     1       0.670   0.083  23.141  0.00  0.00    +0.023 C 
ATOM      7  C   UNL     1       0.135  -0.445  23.480  0.00  0.00    +0.093 C 
ATOM      8  N   UNL     1      -0.187  -0.087  24.150  0.00  0.00    -0.279 N 
ATOM      9  C   UNL     1      -0.747  -0.421  24.656  0.00  0.00    +0.228 C 
ATOM     10  O   UNL     1      -1.019   0.005  25.308  0.00  0.00    -0.275 OA
BRANCH   4   3
ATOM      3  C   UNL     1      -0.016   1.210  24.820  0.00  0.00    +0.162 C 
BRANCH   3   2
ATOM      1  C   UNL     1       0.130   2.523  25.367  0.00  0.00    +0.174 C 
ATOM      2  O   UNL     1       0.329   1.960  24.797  0.00  0.00    -0.349 OA
ENDBRANCH   3   2
ENDBRANCH   4   3
ENDBRANCH  11   9
ENDBRANCH  12  11
BRANCH  14  15
ATOM     15  C   UNL     1      -3.900  -0.845  24.849  0.00  0.00    +0.149 C 
BRANCH  15  16
ATOM     16  N   UNL     1      -4.075  -0.137  24.463  0.00  0.00    -0.184 NA
ATOM     17  C   UNL     1      -4.477   0.461  24.864  0.00  0.00    +0.344 C 
ATOM     18  O   UNL     1      -4.704   0.352  25.649  0.00  0.00    -0.249 OA
ATOM     19  N   UNL     1      -4.652   1.170  24.479  0.00  0.00    -0.161 NA
BRANCH  19  20
ATOM     20  C   UNL     1      -5.054   1.768  24.880  0.00  0.00    +0.077 A 
ATOM     21  C   UNL     1      -5.872   1.719  24.981  0.00  0.00    +0.017 A 
ATOM     22  C   UNL     1      -6.274   2.317  25.382  0.00  0.00    +0.004 A 
ATOM     23  C   UNL     1      -5.860   2.964  25.681  0.00  0.00    +0.030 A 
ATOM     24  C   UNL     1      -5.043   3.013  25.580  0.00  0.00    +0.141 A 
ATOM     25  F   UNL     1      -4.628   3.660  25.880  0.00  0.00    -0.204 F 
ATOM     26  C   UNL     1      -4.640   2.415  25.179  0.00  0.00    +0.046 A 
ENDBRANCH  19  20
ENDBRANCH  15  16
ENDBRANCH  14  15
TORSDOF 7
ENDMDL
MODEL 5
REMARK VINA RESULT:      -9.3      2.591      6.195
REMARK  Name = 
REMARK  7 active torsions:
REMARK  status: ('A' for Active; 'I' for Inactive)
REMARK    1  A    between atoms: O_2  and  C_3
REMARK    2  A    between atoms: C_3  and  C_4
REMARK    3  A    between atoms: C_9  and  C_11
REMARK    4  A    between atoms: C_11  and  C_12
REMARK    5  A    between atoms: C_14  and  C_15
REMARK    6  A    between atoms: C_15  and  N_16
REMARK    7  A    between atoms: N_19  and  C_20
REMARK                            x       y       z     vdW  Elec       q    Type
REMARK                         _______ _______ _______ _____ _____    ______ ____
ROOT
ATOM     12  C   UNL     1      -0.626  -0.466  24.322  0.00  0.00    +0.157 C 
ATOM     13  O   UNL     1      -0.746   0.348  24.392  0.00  0.00    -0.351 OA
ATOM     14  C   UNL     1      -0.137   0.732  23.991  0.00  0.00    +0.170 C 
ATOM     27  C   UNL     1       0.361   0.156  23.671  0.00  0.00    +0.213 C 
ATOM     28  O   UNL     1       1.041   0.297  23.226  0.00  0.00    -0.218 OA
ATOM     29  C   UNL     1       0.058  -0.584  23.876  0.00  0.00    +0.212 C 
ATOM     30  O   UNL     1       0.384  -1.314  23.670  0.00  0.00    -0.218 OA
ENDROOT
BRANCH  12  11
ATOM     11  C   UNL     1      -1.105  -1.057  24.640  0.00  0.00    +0.117 C 
BRANCH  11   9
ATOM      4  C   UNL     1      -3.262  -1.378  24.989  0.00  0.00    +0.105 C 
ATOM      5  C   UNL     1      -3.642  -2.096  24.842  0.00  0.00    +0.024 C 
ATOM      6  C   UNL     1      -3.080  -2.628  24.557  0.00  0.00    +0.023 C 
ATOM      7  C   UNL     1      -2.352  -2.240  24.528  0.00  0.00    +0.093 C 
ATOM      8  N   UNL     1      -2.465  -1.468  24.795  0.00  0.00    -0.279 N 
ATOM      9  C   UNL     1      -1.882  -0.887  24.856  0.00  0.00    +0.228 C 
ATOM     10  O   UNL     1      -2.078  -0.135  25.134  0.00  0.00    -0.275 OA
BRANCH   4   3
ATOM      3  C   UNL     1      -3.616  -0.692  25.280  0.00  0.00    +0.162 C 
BRANCH   3   2
ATOM      1  C   UNL     1      -4.735   0.196  25.280  0.00  0.00    +0.174 C 
ATOM      2  O   UNL     1      -4.418  -0.553  25.145  0.00  0.00    -0.349 OA
ENDBRANCH   3   2
ENDBRANCH   4   3
ENDBRANCH  11   9
ENDBRANCH  12  11
BRANCH  14  15
ATOM     15  C   UNL     1      -0.042   1.549  23.920  0.00  0.00    +0.149 C 
BRANCH  15  16
ATOM     16  N   UNL     1      -0.065   2.025  24.593  0.00  0.00    -0.184 NA
ATOM     17  C   UNL     1      -0.480   2.738  24.578  0.00  0.00    +0.344 C 
ATOM     18  O   UNL     1      -0.870   2.974  23.892  0.00  0.00    -0.249 OA
ATOM     19  N   UNL     1      -0.504   3.216  25.251  0.00  0.00    -0.161 NA
BRANCH  19  20
ATOM     20  C   UNL     1      -0.918   3.928  25.236  0.00  0.00    +0.077 A 
ATOM     21  C   UNL     1      -0.571   4.600  24.906  0.00  0.00    +0.017 A 
ATOM     22  C   UNL     1      -0.986   5.313  24.890  0.00  0.00    +0.004 A 
ATOM     23  C   UNL     1      -1.746   5.355  25.205  0.00  0.00    +0.030 A 
ATOM     24  C   UNL     1      -2.094   4.684  25.535  0.00  0.00    +0.141 A 
ATOM     25  F   UNL     1      -2.855   4.726  25.850  0.00  0.00    -0.204 F 
ATOM     26  C   UNL     1      -1.679   3.970  25.551  0.00  0.00    +0.046 A 
ENDBRANCH  19  20
ENDBRANCH  15  16
ENDBRANCH  14  15
TORSDOF 7
ENDMDL
MODEL 6
REMARK VINA RESULT:      -8.7      2.128      5.194
REMARK  Name = 
REMARK  7 active torsions:
REMARK  status: ('A' for Active; 'I' for Inactive)
REMARK    1  A    between atoms: O_2  and  C_3
REMARK    2  A    between atoms: C_3  and  C_4
REMARK    3  A    between atoms: C_9  and  C_11
REMARK    4  A    between atoms: C_11  and  C_12
REMARK    5  A    between atoms: C_14  and  C_15
REMARK    6  A    between atoms: C_15  and  N_16
REMARK    7  A    between atoms: N_19  and  C_20
REMARK                            x       y       z     vdW  Elec       q    Type
REMARK                         _______ _______ _______ _____ _____    ______ ____
ROOT
ATOM     12  C   UNL     1      -0.561   0.999  24.438  0.00  0.00    +0.157 C 
ATOM     13  O   UNL     1      -1.263   1.360  24.678  0.00  0.00    -0.351 OA
ATOM     14  C   UNL     1      -1.158   2.177  24.635  0.00  0.00    +0.170 C 
ATOM     27  C   UNL     1      -0.390   2.322  24.369  0.00  0.00    +0.213 C 
ATOM     28  O   UNL     1      -0.052   3.064  24.246  0.00  0.00    -0.218 OA
ATOM     29  C   UNL     1      -0.021   1.593  24.246  0.00  0.00    +0.212 C 
ATOM     30  O   UNL     1       0.751   1.481  23.980  0.00  0.00    -0.218 OA
ENDROOT
BRANCH  12  11
ATOM     11  C   UNL     1      -0.422   0.187  24.396  0.00  0.00    +0.117 C 
BRANCH  11   9
ATOM      4  C   UNL     1      -1.564  -1.673  24.731  0.00  0.00    +0.105 C 
ATOM      5  C   UNL     1      -1.251  -2.333  25.115  0.00  0.00    +0.024 C 
ATOM      6  C   UNL     1      -0.474  -2.158  25.330  0.00  0.00    +0.023 C 
ATOM      7  C   UNL     1      -0.306  -1.390  25.080  0.00  0.00    +0.093 C 
ATOM      8  N   UNL     1      -0.980  -1.091  24.709  0.00  0.00    -0.279 N 
ATOM      9  C   UNL     1      -1.056  -0.340  24.376  0.00  0.00    +0.228 C 
ATOM     10  O   UNL     1      -1.767  -0.116  24.022  0.00  0.00    -0.275 OA
BRANCH   4   3
ATOM      3  C   UNL     1      -2.326  -1.608  24.422  0.00  0.00    +0.162 C 
BRANCH   3   2
ATOM      1  C   UNL     1      -3.628  -2.159  24.217  0.00  0.00    +0.174 C 
ATOM      2  O   UNL     1      -2.881  -2.202  24.564  0.00  0.00    -0.349 OA
ENDBRANCH   3   2
ENDBRANCH   4   3
ENDBRANCH  11   9
ENDBRANCH  12  11
BRANCH  14  15
ATOM     15  C   UNL     1      -1.721   2.749  24.826  0.00  0.00    +0.149 C 
BRANCH  15  16
ATOM     16  N   UNL     1      -2.444   2.764  24.429  0.00  0.00    -0.184 NA
ATOM     17  C   UNL     1      -3.144   2.874  24.852  0.00  0.00    +0.344 C 
ATOM     18  O   UNL     1      -3.121   2.969  25.670  0.00  0.00    -0.249 OA
ATOM     19  N   UNL     1      -3.867   2.889  24.454  0.00  0.00    -0.161 NA
BRANCH  19  20
ATOM     20  C   UNL     1      -4.567   2.999  24.877  0.00  0.00    +0.077 A 
ATOM     21  C   UNL     1      -4.776   3.753  25.139  0.00  0.00    +0.017 A 
ATOM     22  C   UNL     1      -5.475   3.863  25.562  0.00  0.00    +0.004 A 
ATOM     23  C   UNL     1      -5.966   3.221  25.723  0.00  0.00    +0.030 A 
ATOM     24  C   UNL     1      -5.757   2.467  25.461  0.00  0.00    +0.141 A 
ATOM     25  F   UNL     1      -6.248   1.823  25.623  0.00  0.00    -0.204 F 
ATOM     26  C   UNL     1      -5.057   2.356  25.038  0.00  0.00    +0.046 A 
ENDBRANCH  19  20
ENDBRANCH  15  16
ENDBRANCH  14  15
TORSDOF 7
ENDMDL
MODEL 7
REMARK VINA RESULT:      -8.4     16.247     19.136
REMARK  Name = 
REMARK  7 active torsions:
REMARK  status: ('A' for Active; 'I' for Inactive)
REMARK    1  A    between atoms: O_2  and  C_3
REMARK    2  A    between atoms: C_3  and  C_4
REMARK    3  A    between atoms: C_9  and  C_11
REMARK    4  A    between atoms: C_11  and  C_12
REMARK    5  A    between atoms: C_14  and  C_15
REMARK    6  A    between atoms: C_15  and  N_16
REMARK    7  A    between atoms: N_19  and  C_20
REMARK                            x       y       z     vdW  Elec       q    Type
REMARK                         _______ _______ _______ _____ _____    ______ ____
ROOT
ATOM     12  C   UNL     1      14.441   7.173  18.236  0.00  0.00    +0.157 C 
ATOM     13  O   UNL     1      13.922   7.192  18.876  0.00  0.00    -0.351 OA
ATOM     14  C   UNL     1      13.180   7.421  18.597  0.00  0.00    +0.170 C 
ATOM     27  C   UNL     1      13.241   7.543  17.783  0.00  0.00    +0.213 C 
ATOM     28  O   UNL     1      12.629   7.777  17.281  0.00  0.00    -0.218 OA
ATOM     29  C   UNL     1      14.021   7.390  17.560  0.00  0.00    +0.212 C 
ATOM     30  O   UNL     1      14.325   7.445  16.795  0.00  0.00    -0.218 OA
ENDROOT
BRANCH  12  11
ATOM     11  C   UNL     1      15.241   6.973  18.265  0.00  0.00    +0.117 C 
BRANCH  11   9
ATOM      4  C   UNL     1      16.842   6.884  19.783  0.00  0.00    +0.105 C 
ATOM      5  C   UNL     1      17.399   6.276  19.818  0.00  0.00    +0.024 C 
ATOM      6  C   UNL     1      17.237   5.747  19.206  0.00  0.00    +0.023 C 
ATOM      7  C   UNL     1      16.581   6.028  18.792  0.00  0.00    +0.093 C 
ATOM      8  N   UNL     1      16.337   6.730  19.149  0.00  0.00    -0.279 N 
ATOM      9  C   UNL     1      15.699   7.198  18.913  0.00  0.00    +0.228 C 
ATOM     10  O   UNL     1      15.520   7.889  19.325  0.00  0.00    -0.275 OA
BRANCH   4   3
ATOM      3  C   UNL     1      16.798   7.532  20.292  0.00  0.00    +0.162 C 
BRANCH   3   2
ATOM      1  C   UNL     1      17.325   8.277  21.393  0.00  0.00    +0.174 C 
ATOM      2  O   UNL     1      17.335   7.604  20.915  0.00  0.00    -0.349 OA
ENDBRANCH   3   2
ENDBRANCH   4   3
ENDBRANCH  11   9
ENDBRANCH  12  11
BRANCH  14  15
ATOM     15  C   UNL     1      12.497   7.511  19.051  0.00  0.00    +0.149 C 
BRANCH  15  16
ATOM     16  N   UNL     1      12.484   7.246  19.832  0.00  0.00    -0.184 NA
ATOM     17  C   UNL     1      11.930   7.551  20.361  0.00  0.00    +0.344 C 
ATOM     18  O   UNL     1      11.390   8.121  20.110  0.00  0.00    -0.249 OA
ATOM     19  N   UNL     1      11.916   7.286  21.143  0.00  0.00    -0.161 NA
BRANCH  19  20
ATOM     20  C   UNL     1      11.362   7.592  21.672  0.00  0.00    +0.077 A 
ATOM     21  C   UNL     1      11.527   8.288  22.085  0.00  0.00    +0.017 A 
ATOM     22  C   UNL     1      10.973   8.594  22.614  0.00  0.00    +0.004 A 
ATOM     23  C   UNL     1      10.255   8.205  22.731  0.00  0.00    +0.030 A 
ATOM     24  C   UNL     1      10.090   7.510  22.318  0.00  0.00    +0.141 A 
ATOM     25  F   UNL     1       9.372   7.121  22.435  0.00  0.00    -0.204 F 
ATOM     26  C   UNL     1      10.645   7.204  21.789  0.00  0.00    +0.046 A 
ENDBRANCH  19  20
ENDBRANCH  15  16
ENDBRANCH  14  15
TORSDOF 7
ENDMDL
MODEL 8
REMARK VINA RESULT:      -8.3      2.954      4.783
REMARK  Name = 
REMARK  7 active torsions:
REMARK  status: ('A' for Active; 'I' for Inactive)
REMARK    1  A    between atoms: O_2  and  C_3
REMARK    2  A    between atoms: C_3  and  C_4
REMARK    3  A    between atoms: C_9  and  C_11
REMARK    4  A    between atoms: C_11  and  C_12
REMARK    5  A    between atoms: C_14  and  C_15
REMARK    6  A    between atoms: C_15  and  N_16
REMARK    7  A    between atoms: N_19  and  C_20
REMARK                            x       y       z     vdW  Elec       q    Type
REMARK                         _______ _______ _______ _____ _____    ______ ____
ROOT
ATOM     12  C   UNL     1      -3.226  -0.188  24.973  0.00  0.00    +0.157 C 
ATOM     13  O   UNL     1      -2.506  -0.039  24.598  0.00  0.00    -0.351 OA
ATOM     14  C   UNL     1      -1.995  -0.662  24.772  0.00  0.00    +0.170 C 
ATOM     27  C   UNL     1      -2.398  -1.197  25.255  0.00  0.00    +0.213 C 
ATOM     28  O   UNL     1      -2.093  -1.900  25.560  0.00  0.00    -0.218 OA
ATOM     29  C   UNL     1      -3.160  -0.903  25.379  0.00  0.00    +0.212 C 
ATOM     30  O   UNL     1      -3.749  -1.262  25.829  0.00  0.00    -0.218 OA
ENDROOT
BRANCH  12  11
ATOM     11  C   UNL     1      -3.896   0.294  24.946  0.00  0.00    +0.117 C 
BRANCH  11   9
ATOM      4  C   UNL     1      -4.499   2.413  25.098  0.00  0.00    +0.105 C 
ATOM      5  C   UNL     1      -5.287   2.660  25.088  0.00  0.00    +0.024 C 
ATOM      6  C   UNL     1      -5.763   1.991  25.013  0.00  0.00    +0.023 C 
ATOM      7  C   UNL     1      -5.272   1.330  24.978  0.00  0.00    +0.093 C 
ATOM      8  N   UNL     1      -4.491   1.590  25.030  0.00  0.00    -0.279 N 
ATOM      9  C   UNL     1      -3.818   1.112  25.017  0.00  0.00    +0.228 C 
ATOM     10  O   UNL     1      -3.069   1.452  25.076  0.00  0.00    -0.275 OA
BRANCH   4   3
ATOM      3  C   UNL     1      -3.838   2.901  25.165  0.00  0.00    +0.162 C 
BRANCH   3   2
ATOM      1  C   UNL     1      -3.273   4.207  25.295  0.00  0.00    +0.174 C 
ATOM      2  O   UNL     1      -3.931   3.721  25.189  0.00  0.00    -0.349 OA
ENDBRANCH   3   2
ENDBRANCH   4   3
ENDBRANCH  11   9
ENDBRANCH  12  11
BRANCH  14  15
ATOM     15  C   UNL     1      -1.215  -0.738  24.510  0.00  0.00    +0.149 C 
BRANCH  15  16
ATOM     16  N   UNL     1      -0.845  -0.106  24.132  0.00  0.00    -0.184 NA
ATOM     17  C   UNL     1      -0.104  -0.211  23.784  0.00  0.00    +0.344 C 
ATOM     18  O   UNL     1       0.265  -0.948  23.814  0.00  0.00    -0.249 OA
ATOM     19  N   UNL     1       0.267   0.421  23.404  0.00  0.00    -0.161 NA
BRANCH  19  20
ATOM     20  C   UNL     1       1.007   0.315  23.056  0.00  0.00    +0.077 A 
ATOM     21  C   UNL     1       1.688   0.561  23.454  0.00  0.00    +0.017 A 
ATOM     22  C   UNL     1       2.428   0.455  23.106  0.00  0.00    +0.004 A 
ATOM     23  C   UNL     1       2.489   0.105  22.362  0.00  0.00    +0.030 A 
ATOM     24  C   UNL     1       1.809  -0.140  21.965  0.00  0.00    +0.141 A 
ATOM     25  F   UNL     1       1.869  -0.491  21.221  0.00  0.00    -0.204 F 
ATOM     26  C   UNL     1       1.067  -0.035  22.313  0.00  0.00    +0.046 A 
ENDBRANCH  19  20
ENDBRANCH  15  16
ENDBRANCH  14  15
TORSDOF 7
ENDMDL
MODEL 9
REMARK VINA RESULT:      -8.2     15.972     18.900
REMARK  Name = 
REMARK  7 active torsions:
REMARK  status: ('A' for Active; 'I' for Inactive)
REMARK    1  A    between atoms: O_2  and  C_3
REMARK    2  A    between atoms: C_3  and  C_4
REMARK    3  A    between atoms: C_9  and  C_11
REMARK    4  A    between atoms: C_11  and  C_12
REMARK    5  A    between atoms: C_14  and  C_15
REMARK    6  A    between atoms: C_15  and  N_16
REMARK    7  A    between atoms: N_19  and  C_20
REMARK                            x       y       z     vdW  Elec       q    Type
REMARK                         _______ _______ _______ _____ _____    ______ ____
ROOT
ATOM     12  C   UNL     1      12.094   8.535  18.810  0.00  0.00    +0.157 C 
ATOM     13  O   UNL     1      12.877   8.336  18.977  0.00  0.00    -0.351 OA
ATOM     14  C   UNL     1      13.279   8.262  18.261  0.00  0.00    +0.170 C 
ATOM     27  C   UNL     1      12.745   8.415  17.650  0.00  0.00    +0.213 C 
ATOM     28  O   UNL     1      12.915   8.401  16.843  0.00  0.00    -0.218 OA
ATOM     29  C   UNL     1      12.012   8.583  17.990  0.00  0.00    +0.212 C 
ATOM     30  O   UNL     1      11.320   8.767  17.581  0.00  0.00    -0.218 OA
ENDROOT
BRANCH  12  11
ATOM     11  C   UNL     1      11.496   8.662  19.364  0.00  0.00    +0.117 C 
BRANCH  11   9
ATOM      4  C   UNL     1      10.861   7.762  21.278  0.00  0.00    +0.105 C 
ATOM      5  C   UNL     1      10.647   8.208  21.939  0.00  0.00    +0.024 C 
ATOM      6  C   UNL     1      10.718   9.006  21.741  0.00  0.00    +0.023 C 
ATOM      7  C   UNL     1      10.975   9.054  20.959  0.00  0.00    +0.093 C 
ATOM      8  N   UNL     1      11.063   8.285  20.673  0.00  0.00    -0.279 N 
ATOM      9  C   UNL     1      11.311   8.076  19.914  0.00  0.00    +0.228 C 
ATOM     10  O   UNL     1      11.374   7.280  19.706  0.00  0.00    -0.275 OA
BRANCH   4   3
ATOM      3  C   UNL     1      10.871   6.938  21.231  0.00  0.00    +0.162 C 
BRANCH   3   2
ATOM      1  C   UNL     1      10.765   5.679  21.898  0.00  0.00    +0.174 C 
ATOM      2  O   UNL     1      10.933   6.486  21.919  0.00  0.00    -0.349 OA
ENDBRANCH   3   2
ENDBRANCH   4   3
ENDBRANCH  11   9
ENDBRANCH  12  11
BRANCH  14  15
ATOM     15  C   UNL     1      14.077   8.069  18.170  0.00  0.00    +0.149 C 
BRANCH  15  16
ATOM     16  N   UNL     1      14.345   7.318  18.381  0.00  0.00    -0.184 NA
ATOM     17  C   UNL     1      15.036   7.238  18.825  0.00  0.00    +0.344 C 
ATOM     18  O   UNL     1      15.458   7.907  19.057  0.00  0.00    -0.249 OA
ATOM     19  N   UNL     1      15.306   6.487  19.036  0.00  0.00    -0.161 NA
BRANCH  19  20
ATOM     20  C   UNL     1      15.996   6.407  19.480  0.00  0.00    +0.077 A 
ATOM     21  C   UNL     1      16.714   6.255  19.101  0.00  0.00    +0.017 A 
ATOM     22  C   UNL     1      17.405   6.175  19.544  0.00  0.00    +0.004 A 
ATOM     23  C   UNL     1      17.379   6.246  20.365  0.00  0.00    +0.030 A 
ATOM     24  C   UNL     1      16.662   6.397  20.744  0.00  0.00    +0.141 A 
ATOM     25  F   UNL     1      16.637   6.468  21.565  0.00  0.00    -0.204 F 
ATOM     26  C   UNL     1      15.971   6.478  20.300  0.00  0.00    +0.046 A 
ENDBRANCH  19  20
ENDBRANCH  15  16
ENDBRANCH  14  15
TORSDOF 7
ENDMDL
