MODEL 1
REMARK VINA RESULT:      -8.9      0.000      0.000
REMARK  Name = 
REMARK  9 active torsions:
REMARK  status: ('A' for Active; 'I' for Inactive)
REMARK    1  A    between atoms: O_2  and  C_3
REMARK    2  A    between atoms: C_3  and  C_4
REMARK    3  A    between atoms: C_4  and  N_5
REMARK    4  A    between atoms: N_5  and  C_6
REMARK    5  A    between atoms: C_9  and  C_12
REMARK    6  A    between atoms: C_15  and  C_17
REMARK    7  A    between atoms: N_21  and  C_22
REMARK    8  A    between atoms: C_22  and  C_23
REMARK    9  A    between atoms: C_26  and  C_29
REMARK                            x       y       z     vdW  Elec       q    Type
REMARK                         _______ _______ _______ _____ _____    ______ ____
ROOT
ATOM     12  C   UNL     1      -0.967   0.044  24.555  0.00  0.00    +0.205 A 
ATOM     13  N   UNL     1      -0.978   0.074  25.380  0.00  0.00    -0.056 NA
ATOM     14  O   UNL     1      -1.764   0.034  25.626  0.00  0.00    -0.336 OA
ATOM     15  C   UNL     1      -2.239  -0.022  24.954  0.00  0.00    +0.251 A 
ATOM     16  N   UNL     1      -1.746  -0.016  24.292  0.00  0.00    -0.190 NA
ENDROOT
BRANCH  12   9
ATOM      6  C   UNL     1       1.051   0.117  23.124  0.00  0.00    +0.148 A 
ATOM      7  C   UNL     1       0.690   0.819  23.365  0.00  0.00    +0.036 A 
ATOM      8  C   UNL     1       0.017   0.795  23.842  0.00  0.00    +0.008 A 
ATOM      9  C   UNL     1      -0.294   0.068  24.078  0.00  0.00    +0.058 A 
ATOM     10  C   UNL     1       0.066  -0.633  23.838  0.00  0.00    +0.103 A 
ATOM     11  N   UNL     1       0.738  -0.609  23.360  0.00  0.00    -0.228 NA
BRANCH   6   5
ATOM      5  N   UNL     1       1.723   0.142  22.647  0.00  0.00    -0.218 NA
BRANCH   5   4
ATOM      4  C   UNL     1       2.428   0.451  22.943  0.00  0.00    +0.146 C 
BRANCH   4   3
ATOM      3  C   UNL     1       3.131   0.351  22.523  0.00  0.00    +0.166 C 
BRANCH   3   2
ATOM      1  C   UNL     1       4.522   0.431  22.842  0.00  0.00    +0.174 C 
ATOM      2  O   UNL     1       3.795   0.801  22.717  0.00  0.00    -0.349 OA
ENDBRANCH   3   2
ENDBRANCH   4   3
ENDBRANCH   5   4
ENDBRANCH   6   5
ENDBRANCH  12   9
BRANCH  15  17
ATOM     17  C   UNL     1      -3.062  -0.075  24.945  0.00  0.00    +0.138 C 
ATOM     18  C   UNL     1      -3.506  -0.761  25.062  0.00  0.00    +0.027 C 
ATOM     19  C   UNL     1      -4.305  -0.561  25.006  0.00  0.00    +0.019 C 
ATOM     20  C   UNL     1      -4.355   0.249  24.855  0.00  0.00    +0.073 C 
ATOM     21  N   UNL     1      -3.587   0.549  24.817  0.00  0.00    -0.263 NA
BRANCH  21  22
ATOM     22  C   UNL     1      -3.381   1.335  24.676  0.00  0.00    +0.099 C 
BRANCH  22  23
ATOM     23  C   UNL     1      -3.904   1.941  24.874  0.00  0.00    -0.006 A 
ATOM     24  C   UNL     1      -4.564   2.088  24.400  0.00  0.00    -0.002 A 
ATOM     25  C   UNL     1      -5.087   2.693  24.598  0.00  0.00    +0.010 A 
ATOM     26  C   UNL     1      -4.951   3.153  25.269  0.00  0.00    +0.068 A 
ATOM     27  C   UNL     1      -4.292   3.007  25.743  0.00  0.00    +0.010 A 
ATOM     28  C   UNL     1      -3.768   2.401  25.545  0.00  0.00    -0.002 A 
BRANCH  26  29
ATOM     29  C   UNL     1      -5.475   3.759  25.467  0.00  0.00    +0.100 C 
ATOM     30  N   UNL     1      -5.998   4.365  25.666  0.00  0.00    -0.191 NA
ENDBRANCH  26  29
ENDBRANCH  22  23
ENDBRANCH  21  22
ENDBRANCH  15  17
TORSDOF 9
ENDMDL
MODEL 2
REMARK VINA RESULT:      -8.2      2.308      3.857
REMARK  Name = 
REMARK  9 active torsions:
REMARK  status: ('A' for Active; 'I' for Inactive)
REMARK    1  A    between atoms: O_2  and  C_3
REMARK    2  A    between atoms: C_3  and  C_4
REMARK    3  A    between atoms: C_4  and  N_5
REMARK    4  A    between atoms: N_5  and  C_6
REMARK    5  A    between atoms: C_9  and  C_12
REMARK    6  A    between atoms: C_15  and  C_17
REMARK    7  A    between atoms: N_21  and  C_22
REMARK    8  A    between atoms: C_22  and  C_23
REMARK    9  A    between atoms: C_26  and  C_29
REMARK                            x       y       z     vdW  Elec       q    Type
REMARK                         _______ _______ _______ _____ _____    ______ ____
ROOT
ATOM     12  C   UNL     1      -0.373   1.633  25.138  0.00  0.00    +0.205 A 
ATOM     13  N   UNL     1       0.326   1.953  25.437  0.00  0.00    -0.056 NA
ATOM     14  O   UNL     1       0.239   2.773  25.467  0.00  0.00    -0.336 OA
ATOM     15  C   UNL     1      -0.514   2.960  25.188  0.00  0.00    +0.251 A 
ATOM     16  N   UNL     1      -0.892   2.256  24.984  0.00  0.00    -0.190 NA
ENDROOT
BRANCH  12   9
ATOM      6  C   UNL     1      -0.833  -0.770  24.768  0.00  0.00    +0.148 A 
ATOM      7  C   UNL     1      -1.036  -0.417  25.486  0.00  0.00    +0.036 A 
ATOM      8  C   UNL     1      -0.883   0.385  25.609  0.00  0.00    +0.008 A 
ATOM      9  C   UNL     1      -0.527   0.832  25.014  0.00  0.00    +0.058 A 
ATOM     10  C   UNL     1      -0.323   0.479  24.298  0.00  0.00    +0.103 A 
ATOM     11  N   UNL     1      -0.476  -0.322  24.174  0.00  0.00    -0.228 NA
BRANCH   6   5
ATOM      5  N   UNL     1      -0.986  -1.572  24.645  0.00  0.00    -0.218 NA
BRANCH   5   4
ATOM      4  C   UNL     1      -1.725  -1.813  24.371  0.00  0.00    +0.146 C 
BRANCH   4   3
ATOM      3  C   UNL     1      -1.974  -2.591  24.486  0.00  0.00    +0.166 C 
BRANCH   3   2
ATOM      1  C   UNL     1      -3.353  -2.965  24.491  0.00  0.00    +0.174 C 
ATOM      2  O   UNL     1      -2.639  -2.875  24.088  0.00  0.00    -0.349 OA
ENDBRANCH   3   2
ENDBRANCH   4   3
ENDBRANCH   5   4
ENDBRANCH   6   5
ENDBRANCH  12   9
BRANCH  15  17
ATOM     17  C   UNL     1      -0.833   3.718  25.123  0.00  0.00    +0.138 C 
ATOM     18  C   UNL     1      -0.486   4.359  24.735  0.00  0.00    +0.027 C 
ATOM     19  C   UNL     1      -0.994   5.005  24.806  0.00  0.00    +0.019 C 
ATOM     20  C   UNL     1      -1.654   4.764  25.238  0.00  0.00    +0.073 C 
ATOM     21  N   UNL     1      -1.555   3.969  25.434  0.00  0.00    -0.263 NA
BRANCH  21  22
ATOM     22  C   UNL     1      -2.084   3.506  25.865  0.00  0.00    +0.099 C 
BRANCH  22  23
ATOM     23  C   UNL     1      -2.895   3.642  25.804  0.00  0.00    -0.006 A 
ATOM     24  C   UNL     1      -3.283   4.090  26.378  0.00  0.00    -0.002 A 
ATOM     25  C   UNL     1      -4.094   4.226  26.317  0.00  0.00    +0.010 A 
ATOM     26  C   UNL     1      -4.518   3.914  25.682  0.00  0.00    +0.068 A 
ATOM     27  C   UNL     1      -4.131   3.466  25.108  0.00  0.00    +0.010 A 
ATOM     28  C   UNL     1      -3.319   3.330  25.169  0.00  0.00    -0.002 A 
BRANCH  26  29
ATOM     29  C   UNL     1      -5.330   4.050  25.621  0.00  0.00    +0.100 C 
ATOM     30  N   UNL     1      -6.141   4.185  25.560  0.00  0.00    -0.191 NA
ENDBRANCH  26  29
ENDBRANCH  22  23
ENDBRANCH  21  22
ENDBRANCH  15  17
TORSDOF 9
ENDMDL
MODEL 3
REMARK VINA RESULT:      -7.8      1.373      2.037
REMARK  Name = 
REMARK  9 active torsions:
REMARK  status: ('A' for Active; 'I' for Inactive)
REMARK    1  A    between atoms: O_2  and  C_3
REMARK    2  A    between atoms: C_3  and  C_4
REMARK    3  A    between atoms: C_4  and  N_5
REMARK    4  A    between atoms: N_5  and  C_6
REMARK    5  A    between atoms: C_9  and  C_12
REMARK    6  A    between atoms: C_15  and  C_17
REMARK    7  A    between atoms: N_21  and  C_22
REMARK    8  A    between atoms: C_22  and  C_23
REMARK    9  A    between atoms: C_26  and  C_29
REMARK                            x       y       z     vdW  Elec       q    Type
REMARK                         _______ _______ _______ _____ _____    ______ ____
ROOT
ATOM     12  C   UNL     1      -0.221   1.234  24.569  0.00  0.00    +0.205 A 
ATOM     13  N   UNL     1      -0.588   0.773  25.147  0.00  0.00    -0.056 NA
ATOM     14  O   UNL     1      -1.189   1.223  25.488  0.00  0.00    -0.336 OA
ATOM     15  C   UNL     1      -1.195   1.962  25.121  0.00  0.00    +0.251 A 
ATOM     16  N   UNL     1      -0.596   1.968  24.553  0.00  0.00    -0.190 NA
ENDROOT
BRANCH  12   9
ATOM      6  C   UNL     1       1.671   0.534  23.135  0.00  0.00    +0.148 A 
ATOM      7  C   UNL     1       0.999   0.058  23.193  0.00  0.00    +0.036 A 
ATOM      8  C   UNL     1       0.368   0.292  23.671  0.00  0.00    +0.008 A 
ATOM      9  C   UNL     1       0.410   1.001  24.091  0.00  0.00    +0.058 A 
ATOM     10  C   UNL     1       1.081   1.476  24.033  0.00  0.00    +0.103 A 
ATOM     11  N   UNL     1       1.711   1.243  23.555  0.00  0.00    -0.228 NA
BRANCH   6   5
ATOM      5  N   UNL     1       2.302   0.301  22.657  0.00  0.00    -0.218 NA
BRANCH   5   4
ATOM      4  C   UNL     1       3.052   0.619  22.781  0.00  0.00    +0.146 C 
BRANCH   4   3
ATOM      3  C   UNL     1       3.723   0.178  22.592  0.00  0.00    +0.166 C 
BRANCH   3   2
ATOM      1  C   UNL     1       5.058   0.166  23.104  0.00  0.00    +0.174 C 
ATOM      2  O   UNL     1       4.472   0.522  22.646  0.00  0.00    -0.349 OA
ENDBRANCH   3   2
ENDBRANCH   4   3
ENDBRANCH   5   4
ENDBRANCH   6   5
ENDBRANCH  12   9
BRANCH  15  17
ATOM     17  C   UNL     1      -1.708   2.585  25.291  0.00  0.00    +0.138 C 
ATOM     18  C   UNL     1      -1.524   3.258  25.731  0.00  0.00    +0.027 C 
ATOM     19  C   UNL     1      -2.198   3.734  25.763  0.00  0.00    +0.019 C 
ATOM     20  C   UNL     1      -2.798   3.354  25.344  0.00  0.00    +0.073 C 
ATOM     21  N   UNL     1      -2.495   2.644  25.052  0.00  0.00    -0.263 NA
BRANCH  21  22
ATOM     22  C   UNL     1      -2.908   2.091  24.600  0.00  0.00    +0.099 C 
BRANCH  22  23
ATOM     23  C   UNL     1      -3.726   2.026  24.674  0.00  0.00    -0.006 A 
ATOM     24  C   UNL     1      -4.053   1.420  25.129  0.00  0.00    -0.002 A 
ATOM     25  C   UNL     1      -4.872   1.356  25.203  0.00  0.00    +0.010 A 
ATOM     26  C   UNL     1      -5.365   1.896  24.822  0.00  0.00    +0.068 A 
ATOM     27  C   UNL     1      -5.039   2.502  24.367  0.00  0.00    +0.010 A 
ATOM     28  C   UNL     1      -4.219   2.567  24.293  0.00  0.00    -0.002 A 
BRANCH  26  29
ATOM     29  C   UNL     1      -6.184   1.832  24.896  0.00  0.00    +0.100 C 
ATOM     30  N   UNL     1      -7.003   1.767  24.969  0.00  0.00    -0.191 NA
ENDBRANCH  26  29
ENDBRANCH  22  23
ENDBRANCH  21  22
ENDBRANCH  15  17
TORSDOF 9
ENDMDL
MODEL 4
REMARK VINA RESULT:      -7.5      2.989      4.306
REMARK  Name = 
REMARK  9 active torsions:
REMARK  status: ('A' for Active; 'I' for Inactive)
REMARK    1  A    between atoms: O_2  and  C_3
REMARK    2  A    between atoms: C_3  and  C_4
REMARK    3  A    between atoms: C_4  and  N_5
REMARK    4  A    between atoms: N_5  and  C_6
REMARK    5  A    between atoms: C_9  and  C_12
REMARK    6  A    between atoms: C_15  and  C_17
REMARK    7  A    between atoms: N_21  and  C_22
REMARK    8  A    between atoms: C_22  and  C_23
REMARK    9  A    between atoms: C_26  and  C_29
REMARK                            x       y       z     vdW  Elec       q    Type
REMARK                         _______ _______ _______ _____ _____    ______ ____
ROOT
ATOM     12  C   UNL     1      -4.786   0.543  24.892  0.00  0.00    +0.205 A 
ATOM     13  N   UNL     1      -5.545   0.661  24.590  0.00  0.00    -0.056 NA
ATOM     14  O   UNL     1      -5.755   1.447  24.727  0.00  0.00    -0.336 OA
ATOM     15  C   UNL     1      -5.127   1.815  25.114  0.00  0.00    +0.251 A 
ATOM     16  N   UNL     1      -4.527   1.257  25.216  0.00  0.00    -0.190 NA
ENDROOT
BRANCH  12   9
ATOM      6  C   UNL     1      -3.509  -1.576  24.837  0.00  0.00    +0.148 A 
ATOM      7  C   UNL     1      -3.858  -1.286  24.147  0.00  0.00    +0.036 A 
ATOM      8  C   UNL     1      -4.284  -0.580  24.166  0.00  0.00    +0.008 A 
ATOM      9  C   UNL     1      -4.360  -0.163  24.874  0.00  0.00    +0.058 A 
ATOM     10  C   UNL     1      -4.012  -0.453  25.563  0.00  0.00    +0.103 A 
ATOM     11  N   UNL     1      -3.586  -1.159  25.544  0.00  0.00    -0.228 NA
BRANCH   6   5
ATOM      5  N   UNL     1      -3.084  -2.283  24.818  0.00  0.00    -0.218 NA
BRANCH   5   4
ATOM      4  C   UNL     1      -2.325  -2.299  24.496  0.00  0.00    +0.146 C 
BRANCH   4   3
ATOM      3  C   UNL     1      -1.718  -2.695  24.890  0.00  0.00    +0.166 C 
BRANCH   3   2
ATOM      1  C   UNL     1      -0.377  -2.251  25.108  0.00  0.00    +0.174 C 
ATOM      2  O   UNL     1      -0.938  -2.619  24.629  0.00  0.00    -0.349 OA
ENDBRANCH   3   2
ENDBRANCH   4   3
ENDBRANCH   5   4
ENDBRANCH   6   5
ENDBRANCH  12   9
BRANCH  15  17
ATOM     17  C   UNL     1      -5.101   2.603  25.357  0.00  0.00    +0.138 C 
ATOM     18  C   UNL     1      -5.728   3.032  25.679  0.00  0.00    +0.027 C 
ATOM     19  C   UNL     1      -5.459   3.795  25.841  0.00  0.00    +0.019 C 
ATOM     20  C   UNL     1      -4.666   3.838  25.619  0.00  0.00    +0.073 C 
ATOM     21  N   UNL     1      -4.444   3.101  25.319  0.00  0.00    -0.263 NA
BRANCH  21  22
ATOM     22  C   UNL     1      -3.698   2.899  25.033  0.00  0.00    +0.099 C 
BRANCH  22  23
ATOM     23  C   UNL     1      -3.092   3.457  25.030  0.00  0.00    -0.006 A 
ATOM     24  C   UNL     1      -2.954   3.914  24.356  0.00  0.00    -0.002 A 
ATOM     25  C   UNL     1      -2.347   4.473  24.354  0.00  0.00    +0.010 A 
ATOM     26  C   UNL     1      -1.878   4.576  25.024  0.00  0.00    +0.068 A 
ATOM     27  C   UNL     1      -2.015   4.120  25.698  0.00  0.00    +0.010 A 
ATOM     28  C   UNL     1      -2.622   3.561  25.701  0.00  0.00    -0.002 A 
BRANCH  26  29
ATOM     29  C   UNL     1      -1.271   5.135  25.021  0.00  0.00    +0.100 C 
ATOM     30  N   UNL     1      -0.665   5.694  25.019  0.00  0.00    -0.191 NA
ENDBRANCH  26  29
ENDBRANCH  22  23
ENDBRANCH  21  22
ENDBRANCH  15  17
TORSDOF 9
ENDMDL
MODEL 5
REMARK VINA RESULT:      -7.4      3.031      4.266
REMARK  Name = 
REMARK  9 active torsions:
REMARK  status: ('A' for Active; 'I' for Inactive)
REMARK    1  A    between atoms: O_2  and  C_3
REMARK    2  A    between atoms: C_3  and  C_4
REMARK    3  A    between atoms: C_4  and  N_5
REMARK    4  A    between atoms: N_5  and  C_6
REMARK    5  A    between atoms: C_9  and  C_12
REMARK    6  A    between atoms: C_15  and  C_17
REMARK    7  A    between atoms: N_21  and  C_22
REMARK    8  A    between atoms: C_22  and  C_23
REMARK    9  A    between atoms: C_26  and  C_29
REMARK                            x       y       z     vdW  Elec       q    Type
REMARK                         _______ _______ _______ _____ _____    ______ ____
ROOT
ATOM     12  C   UNL     1      -2.120   2.495  25.143  0.00  0.00    +0.205 A 
ATOM     13  N   UNL     1      -2.353   2.924  24.477  0.00  0.00    -0.056 NA
ATOM     14  O   UNL     1      -3.115   2.680  24.271  0.00  0.00    -0.336 OA
ATOM     15  C   UNL     1      -3.352   2.102  24.810  0.00  0.00    +0.251 A 
ATOM     16  N   UNL     1      -2.737   1.988  25.349  0.00  0.00    -0.190 NA
ENDROOT
BRANCH  12   9
ATOM      6  C   UNL     1       0.049   2.699  26.317  0.00  0.00    +0.148 A 
ATOM      7  C   UNL     1      -0.217   1.959  26.068  0.00  0.00    +0.036 A 
ATOM      8  C   UNL     1      -0.941   1.891  25.676  0.00  0.00    +0.008 A 
ATOM      9  C   UNL     1      -1.397   2.563  25.535  0.00  0.00    +0.058 A 
ATOM     10  C   UNL     1      -1.131   3.303  25.784  0.00  0.00    +0.103 A 
ATOM     11  N   UNL     1      -0.408   3.371  26.175  0.00  0.00    -0.228 NA
BRANCH   6   5
ATOM      5  N   UNL     1       0.772   2.767  26.709  0.00  0.00    -0.218 NA
BRANCH   5   4
ATOM      4  C   UNL     1       0.819   2.614  27.517  0.00  0.00    +0.146 C 
BRANCH   4   3
ATOM      3  C   UNL     1       1.528   2.739  27.920  0.00  0.00    +0.166 C 
BRANCH   3   2
ATOM      1  C   UNL     1       2.284   2.707  29.133  0.00  0.00    +0.174 C 
ATOM      2  O   UNL     1       1.588   2.545  28.720  0.00  0.00    -0.349 OA
ENDBRANCH   3   2
ENDBRANCH   4   3
ENDBRANCH   5   4
ENDBRANCH   6   5
ENDBRANCH  12   9
BRANCH  15  17
ATOM     17  C   UNL     1      -4.076   1.707  24.810  0.00  0.00    +0.138 C 
ATOM     18  C   UNL     1      -4.780   1.986  25.138  0.00  0.00    +0.027 C 
ATOM     19  C   UNL     1      -5.363   1.415  25.013  0.00  0.00    +0.019 C 
ATOM     20  C   UNL     1      -5.019   0.784  24.609  0.00  0.00    +0.073 C 
ATOM     21  N   UNL     1      -4.223   0.964  24.484  0.00  0.00    -0.263 NA
BRANCH  21  22
ATOM     22  C   UNL     1      -3.673   0.485  24.099  0.00  0.00    +0.099 C 
BRANCH  22  23
ATOM     23  C   UNL     1      -3.709  -0.334  24.183  0.00  0.00    -0.006 A 
ATOM     24  C   UNL     1      -4.135  -0.787  23.640  0.00  0.00    -0.002 A 
ATOM     25  C   UNL     1      -4.170  -1.606  23.724  0.00  0.00    +0.010 A 
ATOM     26  C   UNL     1      -3.780  -1.974  24.351  0.00  0.00    +0.068 A 
ATOM     27  C   UNL     1      -3.354  -1.522  24.894  0.00  0.00    +0.010 A 
ATOM     28  C   UNL     1      -3.319  -0.702  24.810  0.00  0.00    -0.002 A 
BRANCH  26  29
ATOM     29  C   UNL     1      -3.816  -2.794  24.435  0.00  0.00    +0.100 C 
ATOM     30  N   UNL     1      -3.852  -3.614  24.520  0.00  0.00    -0.191 NA
ENDBRANCH  26  29
ENDBRANCH  22  23
ENDBRANCH  21  22
ENDBRANCH  15  17
TORSDOF 9
ENDMDL
MODEL 6
REMARK VINA RESULT:      -7.3      1.600      2.946
REMARK  Name = 
REMARK  9 active torsions:
REMARK  status: ('A' for Active; 'I' for Inactive)
REMARK    1  A    between atoms: O_2  and  C_3
REMARK    2  A    between atoms: C_3  and  C_4
REMARK    3  A    between atoms: C_4  and  N_5
REMARK    4  A    between atoms: N_5  and  C_6
REMARK    5  A    between atoms: C_9  and  C_12
REMARK    6  A    between atoms: C_15  and  C_17
REMARK    7  A    between atoms: N_21  and  C_22
REMARK    8  A    between atoms: C_22  and  C_23
REMARK    9  A    between atoms: C_26  and  C_29
REMARK                            x       y       z     vdW  Elec       q    Type
REMARK                         _______ _______ _______ _____ _____    ______ ____
ROOT
ATOM     12  C   UNL     1      -0.235   1.209  24.110  0.00  0.00    +0.205 A 
ATOM     13  N   UNL     1      -0.339   1.473  24.885  0.00  0.00    -0.056 NA
ATOM     14  O   UNL     1      -1.141   1.631  24.996  0.00  0.00    -0.336 OA
ATOM     15  C   UNL     1      -1.533   1.466  24.290  0.00  0.00    +0.251 A 
ATOM     16  N   UNL     1      -0.974   1.205  23.742  0.00  0.00    -0.190 NA
ENDROOT
BRANCH  12   9
ATOM      6  C   UNL     1       1.912   0.549  23.072  0.00  0.00    +0.148 A 
ATOM      7  C   UNL     1       1.261   0.042  23.033  0.00  0.00    +0.036 A 
ATOM      8  C   UNL     1       0.545   0.262  23.378  0.00  0.00    +0.008 A 
ATOM      9  C   UNL     1       0.480   0.989  23.764  0.00  0.00    +0.058 A 
ATOM     10  C   UNL     1       1.130   1.495  23.804  0.00  0.00    +0.103 A 
ATOM     11  N   UNL     1       1.846   1.275  23.458  0.00  0.00    -0.228 NA
BRANCH   6   5
ATOM      5  N   UNL     1       2.628   0.329  22.726  0.00  0.00    -0.218 NA
BRANCH   5   4
ATOM      4  C   UNL     1       3.330   0.689  22.966  0.00  0.00    +0.146 C 
BRANCH   4   3
ATOM      3  C   UNL     1       4.056   0.350  22.769  0.00  0.00    +0.166 C 
BRANCH   3   2
ATOM      1  C   UNL     1       5.373   0.116  23.271  0.00  0.00    +0.174 C 
ATOM      2  O   UNL     1       4.751   0.634  23.113  0.00  0.00    -0.349 OA
ENDBRANCH   3   2
ENDBRANCH   4   3
ENDBRANCH   5   4
ENDBRANCH   6   5
ENDBRANCH  12   9
BRANCH  15  17
ATOM     17  C   UNL     1      -2.343   1.546  24.154  0.00  0.00    +0.138 C 
ATOM     18  C   UNL     1      -2.706   2.157  23.734  0.00  0.00    +0.027 C 
ATOM     19  C   UNL     1      -3.519   2.019  23.735  0.00  0.00    +0.019 C 
ATOM     20  C   UNL     1      -3.659   1.323  24.154  0.00  0.00    +0.073 C 
ATOM     21  N   UNL     1      -2.932   1.031  24.414  0.00  0.00    -0.263 NA
BRANCH  21  22
ATOM     22  C   UNL     1      -2.815   0.343  24.855  0.00  0.00    +0.099 C 
BRANCH  22  23
ATOM     23  C   UNL     1      -3.178  -0.361  24.625  0.00  0.00    -0.006 A 
ATOM     24  C   UNL     1      -3.999  -0.395  24.547  0.00  0.00    -0.002 A 
ATOM     25  C   UNL     1      -4.362  -1.099  24.318  0.00  0.00    +0.010 A 
ATOM     26  C   UNL     1      -3.905  -1.769  24.167  0.00  0.00    +0.068 A 
ATOM     27  C   UNL     1      -3.085  -1.735  24.245  0.00  0.00    +0.010 A 
ATOM     28  C   UNL     1      -2.721  -1.030  24.475  0.00  0.00    -0.002 A 
BRANCH  26  29
ATOM     29  C   UNL     1      -4.268  -2.474  23.938  0.00  0.00    +0.100 C 
ATOM     30  N   UNL     1      -4.631  -3.178  23.708  0.00  0.00    -0.191 NA
ENDBRANCH  26  29
ENDBRANCH  22  23
ENDBRANCH  21  22
ENDBRANCH  15  17
TORSDOF 9
ENDMDL
MODEL 7
REMARK VINA RESULT:      -7.1      1.779      2.182
REMARK  Name = 
REMARK  9 active torsions:
REMARK  status: ('A' for Active; 'I' for Inactive)
REMARK    1  A    between atoms: O_2  and  C_3
REMARK    2  A    between atoms: C_3  and  C_4
REMARK    3  A    between atoms: C_4  and  N_5
REMARK    4  A    between atoms: N_5  and  C_6
REMARK    5  A    between atoms: C_9  and  C_12
REMARK    6  A    between atoms: C_15  and  C_17
REMARK    7  A    between atoms: N_21  and  C_22
REMARK    8  A    between atoms: C_22  and  C_23
REMARK    9  A    between atoms: C_26  and  C_29
REMARK                            x       y       z     vdW  Elec       q    Type
REMARK                         _______ _______ _______ _____ _____    ______ ____
ROOT
ATOM     12  C   UNL     1      -0.224   0.266  23.845  0.00  0.00    +0.205 A 
ATOM     13  N   UNL     1      -0.510  -0.278  24.396  0.00  0.00    -0.056 NA
ATOM     14  O   UNL     1      -1.282  -0.060  24.592  0.00  0.00    -0.336 OA
ATOM     15  C   UNL     1      -1.472   0.618  24.162  0.00  0.00    +0.251 A 
ATOM     16  N   UNL     1      -0.818   0.819  23.700  0.00  0.00    -0.190 NA
ENDROOT
BRANCH  12   9
ATOM      6  C   UNL     1       2.024   0.240  22.809  0.00  0.00    +0.148 A 
ATOM      7  C   UNL     1       1.475  -0.348  22.620  0.00  0.00    +0.036 A 
ATOM      8  C   UNL     1       0.726  -0.339  22.965  0.00  0.00    +0.008 A 
ATOM      9  C   UNL     1       0.526   0.257  23.500  0.00  0.00    +0.058 A 
ATOM     10  C   UNL     1       1.073   0.844  23.689  0.00  0.00    +0.103 A 
ATOM     11  N   UNL     1       1.822   0.835  23.344  0.00  0.00    -0.228 NA
BRANCH   6   5
ATOM      5  N   UNL     1       2.773   0.231  22.464  0.00  0.00    -0.218 NA
BRANCH   5   4
ATOM      4  C   UNL     1       3.435   0.434  22.911  0.00  0.00    +0.146 C 
BRANCH   4   3
ATOM      3  C   UNL     1       4.191   0.346  22.592  0.00  0.00    +0.166 C 
BRANCH   3   2
ATOM      1  C   UNL     1       5.386   0.099  23.337  0.00  0.00    +0.174 C 
ATOM      2  O   UNL     1       4.849   0.629  23.004  0.00  0.00    -0.349 OA
ENDBRANCH   3   2
ENDBRANCH   4   3
ENDBRANCH   5   4
ENDBRANCH   6   5
ENDBRANCH  12   9
BRANCH  15  17
ATOM     17  C   UNL     1      -2.190   1.024  24.188  0.00  0.00    +0.138 C 
ATOM     18  C   UNL     1      -2.876   0.822  23.777  0.00  0.00    +0.027 C 
ATOM     19  C   UNL     1      -3.458   1.377  23.965  0.00  0.00    +0.019 C 
ATOM     20  C   UNL     1      -3.131   1.921  24.492  0.00  0.00    +0.073 C 
ATOM     21  N   UNL     1      -2.347   1.703  24.630  0.00  0.00    -0.263 NA
BRANCH  21  22
ATOM     22  C   UNL     1      -1.815   2.095  25.123  0.00  0.00    +0.099 C 
BRANCH  22  23
ATOM     23  C   UNL     1      -1.806   2.919  25.148  0.00  0.00    -0.006 A 
ATOM     24  C   UNL     1      -1.232   3.339  24.730  0.00  0.00    -0.002 A 
ATOM     25  C   UNL     1      -1.223   4.163  24.755  0.00  0.00    +0.010 A 
ATOM     26  C   UNL     1      -1.788   4.568  25.198  0.00  0.00    +0.068 A 
ATOM     27  C   UNL     1      -2.362   4.150  25.617  0.00  0.00    +0.010 A 
ATOM     28  C   UNL     1      -2.371   3.325  25.591  0.00  0.00    -0.002 A 
BRANCH  26  29
ATOM     29  C   UNL     1      -1.779   5.393  25.223  0.00  0.00    +0.100 C 
ATOM     30  N   UNL     1      -1.770   6.217  25.249  0.00  0.00    -0.191 NA
ENDBRANCH  26  29
ENDBRANCH  22  23
ENDBRANCH  21  22
ENDBRANCH  15  17
TORSDOF 9
ENDMDL
MODEL 8
REMARK VINA RESULT:      -7.1      2.057      5.699
REMARK  Name = 
REMARK  9 active torsions:
REMARK  status: ('A' for Active; 'I' for Inactive)
REMARK    1  A    between atoms: O_2  and  C_3
REMARK    2  A    between atoms: C_3  and  C_4
REMARK    3  A    between atoms: C_4  and  N_5
REMARK    4  A    between atoms: N_5  and  C_6
REMARK    5  A    between atoms: C_9  and  C_12
REMARK    6  A    between atoms: C_15  and  C_17
REMARK    7  A    between atoms: N_21  and  C_22
REMARK    8  A    between atoms: C_22  and  C_23
REMARK    9  A    between atoms: C_26  and  C_29
REMARK                            x       y       z     vdW  Elec       q    Type
REMARK                         _______ _______ _______ _____ _____    ______ ____
ROOT
ATOM     12  C   UNL     1      -0.987   2.292  24.809  0.00  0.00    +0.205 A 
ATOM     13  N   UNL     1      -0.211   2.434  25.052  0.00  0.00    -0.056 NA
ATOM     14  O   UNL     1       0.258   1.810  24.786  0.00  0.00    -0.336 OA
ATOM     15  C   UNL     1      -0.227   1.282  24.378  0.00  0.00    +0.251 A 
ATOM     16  N   UNL     1      -0.997   1.580  24.393  0.00  0.00    -0.190 NA
ENDROOT
BRANCH  12   9
ATOM      6  C   UNL     1      -2.941   3.745  25.253  0.00  0.00    +0.148 A 
ATOM      7  C   UNL     1      -2.389   3.601  25.850  0.00  0.00    +0.036 A 
ATOM      8  C   UNL     1      -1.738   3.117  25.702  0.00  0.00    +0.008 A 
ATOM      9  C   UNL     1      -1.638   2.776  24.957  0.00  0.00    +0.058 A 
ATOM     10  C   UNL     1      -2.189   2.920  24.361  0.00  0.00    +0.103 A 
ATOM     11  N   UNL     1      -2.840   3.404  24.509  0.00  0.00    -0.228 NA
BRANCH   6   5
ATOM      5  N   UNL     1      -3.592   4.230  25.401  0.00  0.00    -0.218 NA
BRANCH   5   4
ATOM      4  C   UNL     1      -4.278   3.910  25.727  0.00  0.00    +0.146 C 
BRANCH   4   3
ATOM      3  C   UNL     1      -5.017   4.171  25.470  0.00  0.00    +0.166 C 
BRANCH   3   2
ATOM      1  C   UNL     1      -6.041   3.194  25.670  0.00  0.00    +0.174 C 
ATOM      2  O   UNL     1      -5.701   3.921  25.859  0.00  0.00    -0.349 OA
ENDBRANCH   3   2
ENDBRANCH   4   3
ENDBRANCH   5   4
ENDBRANCH   6   5
ENDBRANCH  12   9
BRANCH  15  17
ATOM     17  C   UNL     1       0.013   0.580  24.019  0.00  0.00    +0.138 C 
ATOM     18  C   UNL     1       0.514   0.517  23.365  0.00  0.00    +0.027 C 
ATOM     19  C   UNL     1       0.606  -0.285  23.192  0.00  0.00    +0.019 C 
ATOM     20  C   UNL     1       0.163  -0.716  23.738  0.00  0.00    +0.073 C 
ATOM     21  N   UNL     1      -0.203  -0.182  24.249  0.00  0.00    -0.263 NA
BRANCH  21  22
ATOM     22  C   UNL     1      -0.699  -0.376  24.879  0.00  0.00    +0.099 C 
BRANCH  22  23
ATOM     23  C   UNL     1      -1.260  -0.974  24.793  0.00  0.00    -0.006 A 
ATOM     24  C   UNL     1      -1.038  -1.764  24.882  0.00  0.00    -0.002 A 
ATOM     25  C   UNL     1      -1.600  -2.362  24.797  0.00  0.00    +0.010 A 
ATOM     26  C   UNL     1      -2.383  -2.171  24.623  0.00  0.00    +0.068 A 
ATOM     27  C   UNL     1      -2.605  -1.381  24.534  0.00  0.00    +0.010 A 
ATOM     28  C   UNL     1      -2.043  -0.783  24.619  0.00  0.00    -0.002 A 
BRANCH  26  29
ATOM     29  C   UNL     1      -2.945  -2.769  24.537  0.00  0.00    +0.100 C 
ATOM     30  N   UNL     1      -3.507  -3.367  24.451  0.00  0.00    -0.191 NA
ENDBRANCH  26  29
ENDBRANCH  22  23
ENDBRANCH  21  22
ENDBRANCH  15  17
TORSDOF 9
ENDMDL
MODEL 9
REMARK VINA RESULT:      -5.1     14.547     15.746
REMARK  Name = 
REMARK  9 active torsions:
REMARK  status: ('A' for Active; 'I' for Inactive)
REMARK    1  A    between atoms: O_2  and  C_3
REMARK    2  A    between atoms: C_3  and  C_4
REMARK    3  A    between atoms: C_4  and  N_5
REMARK    4  A    between atoms: N_5  and  C_6
REMARK    5  A    between atoms: C_9  and  C_12
REMARK    6  A    between atoms: C_15  and  C_17
REMARK    7  A    between atoms: N_21  and  C_22
REMARK    8  A    between atoms: C_22  and  C_23
REMARK    9  A    between atoms: C_26  and  C_29
REMARK                            x       y       z     vdW  Elec       q    Type
REMARK                         _______ _______ _______ _____ _____    ______ ____
ROOT
ATOM     12  C   UNL     1      -8.147  -9.752  13.759  0.00  0.00    +0.205 A 
ATOM     13  N   UNL     1      -8.782 -10.272  13.844  0.00  0.00    -0.056 NA
ATOM     14  O   UNL     1      -9.136 -10.125  14.574  0.00  0.00    -0.336 OA
ATOM     15  C   UNL     1      -8.721  -9.513  14.941  0.00  0.00    +0.251 A 
ATOM     16  N   UNL     1      -8.109  -9.283  14.437  0.00  0.00    -0.190 NA
ENDROOT
BRANCH  12   9
ATOM      6  C   UNL     1      -6.623  -9.621  11.813  0.00  0.00    +0.148 A 
ATOM      7  C   UNL     1      -6.407 -10.060  12.478  0.00  0.00    +0.036 A 
ATOM      8  C   UNL     1      -6.914 -10.103  13.127  0.00  0.00    +0.008 A 
ATOM      9  C   UNL     1      -7.639  -9.708  13.110  0.00  0.00    +0.058 A 
ATOM     10  C   UNL     1      -7.855  -9.270  12.446  0.00  0.00    +0.103 A 
ATOM     11  N   UNL     1      -7.347  -9.227  11.798  0.00  0.00    -0.228 NA
BRANCH   6   5
ATOM      5  N   UNL     1      -6.115  -9.578  11.164  0.00  0.00    -0.218 NA
BRANCH   5   4
ATOM      4  C   UNL     1      -5.356  -9.270  11.255  0.00  0.00    +0.146 C 
BRANCH   4   3
ATOM      3  C   UNL     1      -4.818  -9.309  10.631  0.00  0.00    +0.166 C 
BRANCH   3   2
ATOM      1  C   UNL     1      -3.519  -9.037  10.098  0.00  0.00    +0.174 C 
ATOM      2  O   UNL     1      -4.049  -9.025  10.731  0.00  0.00    -0.349 OA
ENDBRANCH   3   2
ENDBRANCH   4   3
ENDBRANCH   5   4
ENDBRANCH   6   5
ENDBRANCH  12   9
BRANCH  15  17
ATOM     17  C   UNL     1      -8.887  -9.189  15.681  0.00  0.00    +0.138 C 
ATOM     18  C   UNL     1      -9.395  -8.556  15.830  0.00  0.00    +0.027 C 
ATOM     19  C   UNL     1      -9.396  -8.416  16.643  0.00  0.00    +0.019 C 
ATOM     20  C   UNL     1      -8.890  -8.963  16.997  0.00  0.00    +0.073 C 
ATOM     21  N   UNL     1      -8.575  -9.441  16.402  0.00  0.00    -0.263 NA
BRANCH  21  22
ATOM     22  C   UNL     1      -8.042 -10.061  16.510  0.00  0.00    +0.099 C 
BRANCH  22  23
ATOM     23  C   UNL     1      -7.716 -10.200  17.254  0.00  0.00    -0.006 A 
ATOM     24  C   UNL     1      -8.133 -10.642  17.812  0.00  0.00    -0.002 A 
ATOM     25  C   UNL     1      -7.806 -10.780  18.557  0.00  0.00    +0.010 A 
ATOM     26  C   UNL     1      -7.063 -10.478  18.744  0.00  0.00    +0.068 A 
ATOM     27  C   UNL     1      -6.645 -10.036  18.186  0.00  0.00    +0.010 A 
ATOM     28  C   UNL     1      -6.972  -9.897  17.441  0.00  0.00    -0.002 A 
BRANCH  26  29
ATOM     29  C   UNL     1      -6.735 -10.616  19.489  0.00  0.00    +0.100 C 
ATOM     30  N   UNL     1      -6.409 -10.755  20.233  0.00  0.00    -0.191 NA
ENDBRANCH  26  29
ENDBRANCH  22  23
ENDBRANCH  21  22
ENDBRANCH  15  17
TORSDOF 9
ENDMDL
