MODEL 1
REMARK VINA RESULT:     -10.8      0.000      0.000
REMARK  Name = 
REMARK  9 active torsions:
REMARK  status: ('A' for Active; 'I' for Inactive)
REMARK    1  A    between atoms: C_2  and  O_3
REMARK    2  A    between atoms: O_3  and  C_4
REMARK    3  A    between atoms: C_4  and  C_6
REMARK    4  A    between atoms: C_6  and  C_7
REMARK    5  A    between atoms: C_9  and  C_10
REMARK    6  A    between atoms: C_13  and  C_14
REMARK    7  A    between atoms: C_14  and  N_15
REMARK    8  A    between atoms: N_15  and  S_16
REMARK    9  A    between atoms: S_16  and  C_19
REMARK                            x       y       z     vdW  Elec       q    Type
REMARK                         _______ _______ _______ _____ _____    ______ ____
ROOT
ATOM      7  C   UNL     1      -3.195   3.062  24.896  0.00  0.00    +0.029 C 
ATOM      8  C   UNL     1      -2.483   2.658  24.803  0.00  0.00    +0.005 C 
ATOM      9  C   UNL     1      -2.483   1.838  24.704  0.00  0.00    +0.006 C 
ATOM     13  C   UNL     1      -3.197   1.424  24.700  0.00  0.00    +0.041 C 
ATOM     26  C   UNL     1      -3.909   1.830  24.793  0.00  0.00    -0.033 C 
ATOM     27  C   UNL     1      -3.908   2.648  24.892  0.00  0.00    -0.048 C 
ATOM     28  C   UNL     1      -4.621   3.054  24.985  0.00  0.00    +0.026 C 
ENDROOT
BRANCH   9  10
ATOM     10  C   UNL     1      -1.771   1.433  24.611  0.00  0.00    +0.000 C 
ATOM     11  C   UNL     1      -1.456   1.321  23.857  0.00  0.00    +0.000 C 
ATOM     12  C   UNL     1      -1.374   1.140  25.271  0.00  0.00    +0.000 C 
ENDBRANCH   9  10
BRANCH   7   6
ATOM      6  C   UNL     1      -3.195   3.882  24.995  0.00  0.00    +0.114 C 
BRANCH   6   4
ATOM      4  C   UNL     1      -2.575   4.249  25.396  0.00  0.00    +0.317 C 
ATOM      5  O   UNL     1      -2.582   4.286  26.220  0.00  0.00    -0.250 OA
BRANCH   4   3
ATOM      3  O   UNL     1      -1.949   4.581  24.974  0.00  0.00    -0.448 OA
BRANCH   3   2
ATOM      1  C   UNL     1      -0.948   5.590  24.837  0.00  0.00    +0.051 C 
ATOM      2  C   UNL     1      -1.602   5.283  25.233  0.00  0.00    +0.209 C 
ENDBRANCH   3   2
ENDBRANCH   4   3
ENDBRANCH   6   4
ENDBRANCH   7   6
BRANCH  13  14
ATOM     14  C   UNL     1      -3.198   0.606  24.601  0.00  0.00    +0.120 C 
BRANCH  14  15
ATOM     15  N   UNL     1      -3.908   0.186  24.632  0.00  0.00    -0.077 NA
BRANCH  15  16
ATOM     16  S   UNL     1      -3.907  -0.634  24.546  0.00  0.00    +0.077 S 
ATOM     17  O   UNL     1      -3.884  -0.548  23.726  0.00  0.00    -0.152 OA
ATOM     18  O   UNL     1      -3.930  -0.721  25.366  0.00  0.00    -0.152 OA
BRANCH  16  19
ATOM     19  C   UNL     1      -3.907  -1.455  24.459  0.00  0.00    +0.126 A 
ATOM     20  C   UNL     1      -3.543  -1.929  25.028  0.00  0.00    +0.050 A 
ATOM     21  C   UNL     1      -3.542  -2.750  24.941  0.00  0.00    +0.141 A 
ATOM     22  F   UNL     1      -3.179  -3.224  25.510  0.00  0.00    -0.204 F 
ATOM     23  C   UNL     1      -3.905  -3.096  24.286  0.00  0.00    +0.030 A 
ATOM     24  C   UNL     1      -4.269  -2.620  23.718  0.00  0.00    +0.004 A 
ATOM     25  C   UNL     1      -4.269  -1.801  23.804  0.00  0.00    +0.020 A 
ENDBRANCH  16  19
ENDBRANCH  15  16
ENDBRANCH  14  15
ENDBRANCH  13  14
TORSDOF 9
ENDMDL
MODEL 2
REMARK VINA RESULT:     -10.1      2.269      5.703
REMARK  Name = 
REMARK  9 active torsions:
REMARK  status: ('A' for Active; 'I' for Inactive)
REMARK    1  A    between atoms: C_2  and  O_3
REMARK    2  A    between atoms: O_3  and  C_4
REMARK    3  A    between atoms: C_4  and  C_6
REMARK    4  A    between atoms: C_6  and  C_7
REMARK    5  A    between atoms: C_9  and  C_10
REMARK    6  A    between atoms: C_13  and  C_14
REMARK    7  A    between atoms: C_14  and  N_15
REMARK    8  A    between atoms: N_15  and  S_16
REMARK    9  A    between atoms: S_16  and  C_19
REMARK                            x       y       z     vdW  Elec       q    Type
REMARK                         _______ _______ _______ _____ _____    ______ ____
ROOT
ATOM      7  C   UNL     1      -2.312  -0.743  25.025  0.00  0.00    +0.029 C 
ATOM      8  C   UNL     1      -2.968  -0.323  24.753  0.00  0.00    +0.005 C 
ATOM      9  C   UNL     1      -2.948   0.501  24.725  0.00  0.00    +0.006 C 
ATOM     13  C   UNL     1      -2.271   0.906  24.969  0.00  0.00    +0.041 C 
ATOM     26  C   UNL     1      -1.615   0.485  25.240  0.00  0.00    -0.033 C 
ATOM     27  C   UNL     1      -1.636  -0.339  25.268  0.00  0.00    -0.048 C 
ATOM     28  C   UNL     1      -0.980  -0.760  25.540  0.00  0.00    +0.026 C 
ENDROOT
BRANCH   9  10
ATOM     10  C   UNL     1      -3.603   0.921  24.453  0.00  0.00    +0.000 C 
ATOM     11  C   UNL     1      -4.202   1.137  24.978  0.00  0.00    +0.000 C 
ATOM     12  C   UNL     1      -3.660   1.126  23.656  0.00  0.00    +0.000 C 
ENDBRANCH   9  10
BRANCH   7   6
ATOM      6  C   UNL     1      -2.332  -1.568  25.053  0.00  0.00    +0.114 C 
BRANCH   6   4
ATOM      4  C   UNL     1      -3.054  -1.964  25.021  0.00  0.00    +0.317 C 
ATOM      5  O   UNL     1      -3.510  -2.046  25.704  0.00  0.00    -0.250 OA
BRANCH   4   3
ATOM      3  O   UNL     1      -3.321  -2.280  24.307  0.00  0.00    -0.448 OA
BRANCH   3   2
ATOM      1  C   UNL     1      -4.192  -3.168  23.605  0.00  0.00    +0.051 C 
ATOM      2  C   UNL     1      -3.834  -2.926  24.307  0.00  0.00    +0.209 C 
ENDBRANCH   3   2
ENDBRANCH   4   3
ENDBRANCH   6   4
ENDBRANCH   7   6
BRANCH  13  14
ATOM     14  C   UNL     1      -2.251   1.729  24.941  0.00  0.00    +0.120 C 
BRANCH  14  15
ATOM     15  N   UNL     1      -1.566   2.133  25.163  0.00  0.00    -0.077 NA
BRANCH  15  16
ATOM     16  S   UNL     1      -1.552   2.958  25.154  0.00  0.00    +0.077 S 
ATOM     17  O   UNL     1      -1.679   2.969  25.969  0.00  0.00    -0.152 OA
ATOM     18  O   UNL     1      -1.426   2.948  24.339  0.00  0.00    -0.152 OA
BRANCH  16  19
ATOM     19  C   UNL     1      -1.539   3.783  25.145  0.00  0.00    +0.126 A 
ATOM     20  C   UNL     1      -0.863   4.181  24.890  0.00  0.00    +0.050 A 
ATOM     21  C   UNL     1      -0.849   5.007  24.881  0.00  0.00    +0.141 A 
ATOM     22  F   UNL     1      -0.173   5.404  24.625  0.00  0.00    -0.204 F 
ATOM     23  C   UNL     1      -1.511   5.433  25.128  0.00  0.00    +0.030 A 
ATOM     24  C   UNL     1      -2.186   5.034  25.384  0.00  0.00    +0.004 A 
ATOM     25  C   UNL     1      -2.200   4.209  25.393  0.00  0.00    +0.020 A 
ENDBRANCH  16  19
ENDBRANCH  15  16
ENDBRANCH  14  15
ENDBRANCH  13  14
TORSDOF 9
ENDMDL
MODEL 3
REMARK VINA RESULT:      -8.6      2.572      4.422
REMARK  Name = 
REMARK  9 active torsions:
REMARK  status: ('A' for Active; 'I' for Inactive)
REMARK    1  A    between atoms: C_2  and  O_3
REMARK    2  A    between atoms: O_3  and  C_4
REMARK    3  A    between atoms: C_4  and  C_6
REMARK    4  A    between atoms: C_6  and  C_7
REMARK    5  A    between atoms: C_9  and  C_10
REMARK    6  A    between atoms: C_13  and  C_14
REMARK    7  A    between atoms: C_14  and  N_15
REMARK    8  A    between atoms: N_15  and  S_16
REMARK    9  A    between atoms: S_16  and  C_19
REMARK                            x       y       z     vdW  Elec       q    Type
REMARK                         _______ _______ _______ _____ _____    ______ ____
ROOT
ATOM      7  C   UNL     1      -0.206   0.178  23.994  0.00  0.00    +0.029 C 
ATOM      8  C   UNL     1      -0.187   1.001  24.022  0.00  0.00    +0.005 C 
ATOM      9  C   UNL     1      -0.870   1.425  24.210  0.00  0.00    +0.006 C 
ATOM     13  C   UNL     1      -1.572   1.023  24.371  0.00  0.00    +0.041 C 
ATOM     26  C   UNL     1      -1.591   0.198  24.343  0.00  0.00    -0.033 C 
ATOM     27  C   UNL     1      -0.909  -0.224  24.155  0.00  0.00    -0.048 C 
ATOM     28  C   UNL     1      -0.927  -1.048  24.128  0.00  0.00    +0.026 C 
ENDROOT
BRANCH   9  10
ATOM     10  C   UNL     1      -0.851   2.248  24.237  0.00  0.00    +0.000 C 
ATOM     11  C   UNL     1      -1.032   2.689  23.563  0.00  0.00    +0.000 C 
ATOM     12  C   UNL     1      -0.650   2.633  24.939  0.00  0.00    +0.000 C 
ENDBRANCH   9  10
BRANCH   7   6
ATOM      6  C   UNL     1       0.477  -0.245  23.806  0.00  0.00    +0.114 C 
BRANCH   6   4
ATOM      4  C   UNL     1       0.902  -0.060  23.124  0.00  0.00    +0.317 C 
ATOM      5  O   UNL     1       0.574  -0.205  22.381  0.00  0.00    -0.250 OA
BRANCH   4   3
ATOM      3  O   UNL     1       1.657   0.269  23.185  0.00  0.00    -0.448 OA
BRANCH   3   2
ATOM      1  C   UNL     1       2.988   0.411  22.688  0.00  0.00    +0.051 C 
ATOM      2  C   UNL     1       2.242   0.063  22.642  0.00  0.00    +0.209 C 
ENDBRANCH   3   2
ENDBRANCH   4   3
ENDBRANCH   6   4
ENDBRANCH   7   6
BRANCH  13  14
ATOM     14  C   UNL     1      -2.255   1.445  24.559  0.00  0.00    +0.120 C 
BRANCH  14  15
ATOM     15  N   UNL     1      -2.986   1.063  24.576  0.00  0.00    -0.077 NA
BRANCH  15  16
ATOM     16  S   UNL     1      -3.669   1.486  24.764  0.00  0.00    +0.077 S 
ATOM     17  O   UNL     1      -3.526   1.360  25.567  0.00  0.00    -0.152 OA
ATOM     18  O   UNL     1      -3.812   1.612  23.961  0.00  0.00    -0.152 OA
BRANCH  16  19
ATOM     19  C   UNL     1      -4.352   1.909  24.952  0.00  0.00    +0.126 A 
ATOM     20  C   UNL     1      -5.093   1.558  24.858  0.00  0.00    +0.050 A 
ATOM     21  C   UNL     1      -5.776   1.981  25.046  0.00  0.00    +0.141 A 
ATOM     22  F   UNL     1      -6.517   1.630  24.952  0.00  0.00    -0.204 F 
ATOM     23  C   UNL     1      -5.718   2.754  25.328  0.00  0.00    +0.030 A 
ATOM     24  C   UNL     1      -4.977   3.104  25.422  0.00  0.00    +0.004 A 
ATOM     25  C   UNL     1      -4.294   2.682  25.234  0.00  0.00    +0.020 A 
ENDBRANCH  16  19
ENDBRANCH  15  16
ENDBRANCH  14  15
ENDBRANCH  13  14
TORSDOF 9
ENDMDL
