MODEL 1
REMARK VINA RESULT:      -9.7      0.000      0.000
REMARK  Name = 
REMARK  7 active torsions:
REMARK  status: ('A' for Active; 'I' for Inactive)
REMARK    1  A    between atoms: N_2  and  C_4
REMARK    2  A    between atoms: C_8  and  O_9
REMARK    3  A    between atoms: O_9  and  C_10
REMARK    4  A    between atoms: N_14  and  C_15
REMARK    5  A    between atoms: C_19  and  N_23
REMARK    6  A    between atoms: N_26  and  C_27
REMARK    7  A    between atoms: C_30  and  C_33
REMARK                            x       y       z     vdW  Elec       q    Type
REMARK                         _______ _______ _______ _____ _____    ______ ____
ROOT
ATOM     15  C   UNL     1      -1.165   0.311  24.627  0.00  0.00    +0.170 C 
ATOM     16  C   UNL     1      -0.983   1.105  24.501  0.00  0.00    +0.169 C 
ATOM     17  O   UNL     1      -0.353   1.140  23.969  0.00  0.00    -0.350 OA
ATOM     18  C   UNL     1      -0.146   0.369  23.766  0.00  0.00    +0.167 C 
ATOM     19  C   UNL     1       0.371  -0.087  23.313  0.00  0.00    +0.156 C 
ATOM     20  C   UNL     1       0.189  -0.882  23.439  0.00  0.00    +0.166 C 
ATOM     21  O   UNL     1      -0.441  -0.917  23.971  0.00  0.00    -0.350 OA
ATOM     22  C   UNL     1      -0.648  -0.144  24.173  0.00  0.00    +0.169 C 
ENDROOT
BRANCH  15  14
ATOM     10  C   UNL     1      -2.566   0.183  25.054  0.00  0.00    +0.343 A 
ATOM     11  N   UNL     1      -2.957  -0.218  25.660  0.00  0.00    -0.071 NA
ATOM     12  N   UNL     1      -2.392  -0.628  26.101  0.00  0.00    -0.020 NA
ATOM     13  N   UNL     1      -1.652  -0.480  25.767  0.00  0.00    -0.040 NA
ATOM     14  N   UNL     1      -1.760   0.022  25.120  0.00  0.00    -0.180 N 
BRANCH  10   9
ATOM      9  O   UNL     1      -2.919   0.662  24.482  0.00  0.00    -0.421 OA
BRANCH   9   8
ATOM      4  C   UNL     1      -4.537   2.053  24.937  0.00  0.00    +0.051 A 
ATOM      5  C   UNL     1      -5.194   1.561  24.857  0.00  0.00    +0.015 A 
ATOM      6  C   UNL     1      -5.093   0.768  24.652  0.00  0.00    +0.004 A 
ATOM      7  C   UNL     1      -4.334   0.469  24.527  0.00  0.00    +0.038 A 
ATOM      8  C   UNL     1      -3.678   0.961  24.607  0.00  0.00    +0.150 A 
ATOM     36  C   UNL     1      -3.779   1.754  24.812  0.00  0.00    +0.052 A 
BRANCH   4   2
ATOM      1  C   UNL     1      -5.117   3.048  25.784  0.00  0.00    +0.112 C 
ATOM      2  N   UNL     1      -4.639   2.847  25.143  0.00  0.00    -0.304 N 
ATOM      3  C   UNL     1      -4.262   3.437  24.707  0.00  0.00    +0.112 C 
ENDBRANCH   4   2
ENDBRANCH   9   8
ENDBRANCH  10   9
ENDBRANCH  15  14
BRANCH  19  23
ATOM     23  N   UNL     1       0.966   0.202  22.819  0.00  0.00    -0.184 NA
ATOM     24  C   UNL     1       1.758   0.114  23.032  0.00  0.00    +0.344 C 
ATOM     25  O   UNL     1       1.955  -0.263  23.739  0.00  0.00    -0.249 OA
ATOM     26  N   UNL     1       2.352   0.402  22.539  0.00  0.00    -0.161 NA
BRANCH  26  27
ATOM     27  C   UNL     1       3.145   0.315  22.753  0.00  0.00    +0.075 A 
ATOM     28  C   UNL     1       3.448  -0.434  22.916  0.00  0.00    +0.017 A 
ATOM     29  C   UNL     1       4.239  -0.522  23.129  0.00  0.00    +0.004 A 
ATOM     30  C   UNL     1       4.729   0.140  23.179  0.00  0.00    +0.035 A 
ATOM     31  C   UNL     1       4.426   0.890  23.015  0.00  0.00    +0.004 A 
ATOM     32  C   UNL     1       3.634   0.977  22.802  0.00  0.00    +0.017 A 
BRANCH  30  33
ATOM     33  C   UNL     1       5.520   0.054  23.392  0.00  0.00    +0.173 C 
ATOM     34  C   UNL     1       5.751   0.168  24.176  0.00  0.00    +0.077 C 
ATOM     35  O   UNL     1       6.082  -0.148  22.822  0.00  0.00    -0.291 OA
ENDBRANCH  30  33
ENDBRANCH  26  27
ENDBRANCH  19  23
TORSDOF 7
ENDMDL
MODEL 2
REMARK VINA RESULT:      -9.6      3.252      5.037
REMARK  Name = 
REMARK  7 active torsions:
REMARK  status: ('A' for Active; 'I' for Inactive)
REMARK    1  A    between atoms: N_2  and  C_4
REMARK    2  A    between atoms: C_8  and  O_9
REMARK    3  A    between atoms: O_9  and  C_10
REMARK    4  A    between atoms: N_14  and  C_15
REMARK    5  A    between atoms: C_19  and  N_23
REMARK    6  A    between atoms: N_26  and  C_27
REMARK    7  A    between atoms: C_30  and  C_33
REMARK                            x       y       z     vdW  Elec       q    Type
REMARK                         _______ _______ _______ _____ _____    ______ ____
ROOT
ATOM     15  C   UNL     1      -0.796   3.069  25.390  0.00  0.00    +0.170 C 
ATOM     16  C   UNL     1      -0.605   2.719  26.111  0.00  0.00    +0.169 C 
ATOM     17  O   UNL     1      -0.507   1.910  25.983  0.00  0.00    -0.350 OA
ATOM     18  C   UNL     1      -0.637   1.761  25.183  0.00  0.00    +0.167 C 
ATOM     19  C   UNL     1      -0.657   1.169  24.608  0.00  0.00    +0.156 C 
ATOM     20  C   UNL     1      -0.848   1.520  23.886  0.00  0.00    +0.166 C 
ATOM     21  O   UNL     1      -0.946   2.329  24.015  0.00  0.00    -0.350 OA
ATOM     22  C   UNL     1      -0.816   2.478  24.816  0.00  0.00    +0.169 C 
ENDROOT
BRANCH  15  14
ATOM     10  C   UNL     1      -1.598   4.293  25.533  0.00  0.00    +0.343 A 
ATOM     11  N   UNL     1      -1.518   5.076  25.283  0.00  0.00    -0.071 NA
ATOM     12  N   UNL     1      -0.813   5.138  24.859  0.00  0.00    -0.020 NA
ATOM     13  N   UNL     1      -0.457   4.394  24.847  0.00  0.00    -0.040 NA
ATOM     14  N   UNL     1      -0.942   3.872  25.264  0.00  0.00    -0.180 N 
BRANCH  10   9
ATOM      9  O   UNL     1      -2.223   3.987  25.976  0.00  0.00    -0.421 OA
BRANCH   9   8
ATOM      4  C   UNL     1      -4.261   3.561  25.323  0.00  0.00    +0.051 A 
ATOM      5  C   UNL     1      -4.555   4.325  25.219  0.00  0.00    +0.015 A 
ATOM      6  C   UNL     1      -4.071   4.977  25.367  0.00  0.00    +0.004 A 
ATOM      7  C   UNL     1      -3.294   4.863  25.620  0.00  0.00    +0.038 A 
ATOM      8  C   UNL     1      -3.000   4.100  25.723  0.00  0.00    +0.150 A 
ATOM     36  C   UNL     1      -3.484   3.449  25.575  0.00  0.00    +0.052 A 
BRANCH   4   2
ATOM      1  C   UNL     1      -4.609   2.437  24.510  0.00  0.00    +0.112 C 
ATOM      2  N   UNL     1      -4.745   2.909  25.174  0.00  0.00    -0.304 N 
ATOM      3  C   UNL     1      -5.364   2.730  25.688  0.00  0.00    +0.112 C 
ENDBRANCH   4   2
ENDBRANCH   9   8
ENDBRANCH  10   9
ENDBRANCH  15  14
BRANCH  19  23
ATOM     23  N   UNL     1      -0.511   0.367  24.733  0.00  0.00    -0.184 NA
ATOM     24  C   UNL     1      -1.129  -0.178  24.682  0.00  0.00    +0.344 C 
ATOM     25  O   UNL     1      -1.892   0.080  24.505  0.00  0.00    -0.249 OA
ATOM     26  N   UNL     1      -0.984  -0.980  24.807  0.00  0.00    -0.161 NA
BRANCH  26  27
ATOM     27  C   UNL     1      -1.601  -1.525  24.756  0.00  0.00    +0.075 A 
ATOM     28  C   UNL     1      -2.240  -1.475  25.275  0.00  0.00    +0.017 A 
ATOM     29  C   UNL     1      -2.857  -2.019  25.223  0.00  0.00    +0.004 A 
ATOM     30  C   UNL     1      -2.836  -2.615  24.652  0.00  0.00    +0.035 A 
ATOM     31  C   UNL     1      -2.197  -2.665  24.132  0.00  0.00    +0.004 A 
ATOM     32  C   UNL     1      -1.580  -2.119  24.184  0.00  0.00    +0.017 A 
BRANCH  30  33
ATOM     33  C   UNL     1      -3.452  -3.159  24.600  0.00  0.00    +0.173 C 
ATOM     34  C   UNL     1      -4.005  -3.099  23.990  0.00  0.00    +0.077 C 
ATOM     35  O   UNL     1      -3.517  -3.765  25.157  0.00  0.00    -0.291 OA
ENDBRANCH  30  33
ENDBRANCH  26  27
ENDBRANCH  19  23
TORSDOF 7
ENDMDL
MODEL 3
REMARK VINA RESULT:      -9.3      1.173      2.039
REMARK  Name = 
REMARK  7 active torsions:
REMARK  status: ('A' for Active; 'I' for Inactive)
REMARK    1  A    between atoms: N_2  and  C_4
REMARK    2  A    between atoms: C_8  and  O_9
REMARK    3  A    between atoms: O_9  and  C_10
REMARK    4  A    between atoms: N_14  and  C_15
REMARK    5  A    between atoms: C_19  and  N_23
REMARK    6  A    between atoms: N_26  and  C_27
REMARK    7  A    between atoms: C_30  and  C_33
REMARK                            x       y       z     vdW  Elec       q    Type
REMARK                         _______ _______ _______ _____ _____    ______ ____
ROOT
ATOM     15  C   UNL     1      -1.489   2.081  23.967  0.00  0.00    +0.170 C 
ATOM     16  C   UNL     1      -1.511   2.184  23.149  0.00  0.00    +0.169 C 
ATOM     17  O   UNL     1      -0.897   1.742  22.821  0.00  0.00    -0.350 OA
ATOM     18  C   UNL     1      -0.496   1.366  23.435  0.00  0.00    +0.167 C 
ATOM     19  C   UNL     1       0.131   0.860  23.612  0.00  0.00    +0.156 C 
ATOM     20  C   UNL     1       0.153   0.757  24.430  0.00  0.00    +0.166 C 
ATOM     21  O   UNL     1      -0.461   1.199  24.759  0.00  0.00    -0.350 OA
ATOM     22  C   UNL     1      -0.862   1.575  24.144  0.00  0.00    +0.169 C 
ENDROOT
BRANCH  15  14
ATOM     10  C   UNL     1      -2.812   2.270  24.580  0.00  0.00    +0.343 A 
ATOM     11  N   UNL     1      -3.109   2.732  25.196  0.00  0.00    -0.071 NA
ATOM     12  N   UNL     1      -2.485   3.171  25.510  0.00  0.00    -0.020 NA
ATOM     13  N   UNL     1      -1.802   2.981  25.088  0.00  0.00    -0.040 NA
ATOM     14  N   UNL     1      -2.004   2.424  24.513  0.00  0.00    -0.180 N 
BRANCH  10   9
ATOM      9  O   UNL     1      -3.246   1.747  24.113  0.00  0.00    -0.421 OA
BRANCH   9   8
ATOM      4  C   UNL     1      -4.178  -0.058  24.910  0.00  0.00    +0.051 A 
ATOM      5  C   UNL     1      -4.906   0.239  25.162  0.00  0.00    +0.015 A 
ATOM      6  C   UNL     1      -5.079   1.040  25.065  0.00  0.00    +0.004 A 
ATOM      7  C   UNL     1      -4.526   1.542  24.715  0.00  0.00    +0.038 A 
ATOM      8  C   UNL     1      -3.800   1.245  24.463  0.00  0.00    +0.150 A 
ATOM     36  C   UNL     1      -3.626   0.444  24.560  0.00  0.00    +0.052 A 
BRANCH   4   2
ATOM      1  C   UNL     1      -3.643  -1.121  25.702  0.00  0.00    +0.112 C 
ATOM      2  N   UNL     1      -4.004  -0.860  25.007  0.00  0.00    -0.304 N 
ATOM      3  C   UNL     1      -4.192  -1.397  24.412  0.00  0.00    +0.112 C 
ENDBRANCH   4   2
ENDBRANCH   9   8
ENDBRANCH  10   9
ENDBRANCH  15  14
BRANCH  19  23
ATOM     23  N   UNL     1       0.647   0.517  23.066  0.00  0.00    -0.184 NA
ATOM     24  C   UNL     1       1.459   0.513  23.211  0.00  0.00    +0.344 C 
ATOM     25  O   UNL     1       1.756   0.852  23.902  0.00  0.00    -0.249 OA
ATOM     26  N   UNL     1       1.974   0.171  22.666  0.00  0.00    -0.161 NA
BRANCH  26  27
ATOM     27  C   UNL     1       2.786   0.167  22.811  0.00  0.00    +0.075 A 
ATOM     28  C   UNL     1       3.239   0.834  22.641  0.00  0.00    +0.017 A 
ATOM     29  C   UNL     1       4.050   0.831  22.785  0.00  0.00    +0.004 A 
ATOM     30  C   UNL     1       4.411   0.159  23.102  0.00  0.00    +0.035 A 
ATOM     31  C   UNL     1       3.957  -0.510  23.272  0.00  0.00    +0.004 A 
ATOM     32  C   UNL     1       3.145  -0.505  23.127  0.00  0.00    +0.017 A 
BRANCH  30  33
ATOM     33  C   UNL     1       5.222   0.154  23.247  0.00  0.00    +0.173 C 
ATOM     34  C   UNL     1       5.512   0.412  23.975  0.00  0.00    +0.077 C 
ATOM     35  O   UNL     1       5.745  -0.108  22.664  0.00  0.00    -0.291 OA
ENDBRANCH  30  33
ENDBRANCH  26  27
ENDBRANCH  19  23
TORSDOF 7
ENDMDL
MODEL 4
REMARK VINA RESULT:      -8.9      1.098      7.432
REMARK  Name = 
REMARK  7 active torsions:
REMARK  status: ('A' for Active; 'I' for Inactive)
REMARK    1  A    between atoms: N_2  and  C_4
REMARK    2  A    between atoms: C_8  and  O_9
REMARK    3  A    between atoms: O_9  and  C_10
REMARK    4  A    between atoms: N_14  and  C_15
REMARK    5  A    between atoms: C_19  and  N_23
REMARK    6  A    between atoms: N_26  and  C_27
REMARK    7  A    between atoms: C_30  and  C_33
REMARK                            x       y       z     vdW  Elec       q    Type
REMARK                         _______ _______ _______ _____ _____    ______ ____
ROOT
ATOM     15  C   UNL     1       0.738  -0.248  23.101  0.00  0.00    +0.170 C 
ATOM     16  C   UNL     1       0.692  -0.845  23.668  0.00  0.00    +0.169 C 
ATOM     17  O   UNL     1       0.096  -0.644  24.201  0.00  0.00    -0.350 OA
ATOM     18  C   UNL     1      -0.225   0.077  23.965  0.00  0.00    +0.167 C 
ATOM     19  C   UNL     1      -0.792   0.648  24.148  0.00  0.00    +0.156 C 
ATOM     20  C   UNL     1      -0.746   1.245  23.582  0.00  0.00    +0.166 C 
ATOM     21  O   UNL     1      -0.150   1.044  23.048  0.00  0.00    -0.350 OA
ATOM     22  C   UNL     1       0.172   0.322  23.285  0.00  0.00    +0.169 C 
ENDROOT
BRANCH  15  14
ATOM     10  C   UNL     1       2.053   0.001  22.493  0.00  0.00    +0.343 A 
ATOM     11  N   UNL     1       2.365  -0.058  21.731  0.00  0.00    -0.071 NA
ATOM     12  N   UNL     1       1.763  -0.320  21.229  0.00  0.00    -0.020 NA
ATOM     13  N   UNL     1       1.081  -0.423  21.682  0.00  0.00    -0.040 NA
ATOM     14  N   UNL     1       1.261  -0.224  22.463  0.00  0.00    -0.180 N 
BRANCH  10   9
ATOM      9  O   UNL     1       2.464   0.243  23.167  0.00  0.00    -0.421 OA
BRANCH   9   8
ATOM      4  C   UNL     1       4.582  -0.167  23.494  0.00  0.00    +0.051 A 
ATOM      5  C   UNL     1       4.928   0.469  23.099  0.00  0.00    +0.015 A 
ATOM      6  C   UNL     1       4.452   1.030  22.726  0.00  0.00    +0.004 A 
ATOM      7  C   UNL     1       3.630   0.955  22.749  0.00  0.00    +0.038 A 
ATOM      8  C   UNL     1       3.285   0.319  23.144  0.00  0.00    +0.150 A 
ATOM     36  C   UNL     1       3.761  -0.242  23.517  0.00  0.00    +0.052 A 
BRANCH   4   2
ATOM      1  C   UNL     1       4.832  -1.523  23.873  0.00  0.00    +0.112 C 
ATOM      2  N   UNL     1       5.058  -0.729  23.867  0.00  0.00    -0.304 N 
ATOM      3  C   UNL     1       5.759  -0.497  24.233  0.00  0.00    +0.112 C 
ENDBRANCH   4   2
ENDBRANCH   9   8
ENDBRANCH  10   9
ENDBRANCH  15  14
BRANCH  19  23
ATOM     23  N   UNL     1      -1.315   0.625  24.787  0.00  0.00    -0.184 NA
ATOM     24  C   UNL     1      -2.083   0.914  24.703  0.00  0.00    +0.344 C 
ATOM     25  O   UNL     1      -2.329   1.226  23.980  0.00  0.00    -0.249 OA
ATOM     26  N   UNL     1      -2.605   0.890  25.340  0.00  0.00    -0.161 NA
BRANCH  26  27
ATOM     27  C   UNL     1      -3.373   1.180  25.256  0.00  0.00    +0.075 A 
ATOM     28  C   UNL     1      -3.992   0.663  25.083  0.00  0.00    +0.017 A 
ATOM     29  C   UNL     1      -4.759   0.952  24.999  0.00  0.00    +0.004 A 
ATOM     30  C   UNL     1      -4.909   1.759  25.088  0.00  0.00    +0.035 A 
ATOM     31  C   UNL     1      -4.290   2.276  25.262  0.00  0.00    +0.004 A 
ATOM     32  C   UNL     1      -3.522   1.986  25.346  0.00  0.00    +0.017 A 
BRANCH  30  33
ATOM     33  C   UNL     1      -5.676   2.048  25.005  0.00  0.00    +0.173 C 
ATOM     34  C   UNL     1      -5.870   2.793  25.302  0.00  0.00    +0.077 C 
ATOM     35  O   UNL     1      -6.250   1.593  24.624  0.00  0.00    -0.291 OA
ENDBRANCH  30  33
ENDBRANCH  26  27
ENDBRANCH  19  23
TORSDOF 7
ENDMDL
MODEL 5
REMARK VINA RESULT:      -8.7      1.095      1.428
REMARK  Name = 
REMARK  7 active torsions:
REMARK  status: ('A' for Active; 'I' for Inactive)
REMARK    1  A    between atoms: N_2  and  C_4
REMARK    2  A    between atoms: C_8  and  O_9
REMARK    3  A    between atoms: O_9  and  C_10
REMARK    4  A    between atoms: N_14  and  C_15
REMARK    5  A    between atoms: C_19  and  N_23
REMARK    6  A    between atoms: N_26  and  C_27
REMARK    7  A    between atoms: C_30  and  C_33
REMARK                            x       y       z     vdW  Elec       q    Type
REMARK                         _______ _______ _______ _____ _____    ______ ____
ROOT
ATOM     15  C   UNL     1      -1.838   0.514  23.841  0.00  0.00    +0.170 C 
ATOM     16  C   UNL     1      -1.875   0.843  23.085  0.00  0.00    +0.169 C 
ATOM     17  O   UNL     1      -1.144   0.727  22.722  0.00  0.00    -0.350 OA
ATOM     18  C   UNL     1      -0.656   0.327  23.251  0.00  0.00    +0.167 C 
ATOM     19  C   UNL     1       0.098   0.007  23.355  0.00  0.00    +0.156 C 
ATOM     20  C   UNL     1       0.135  -0.322  24.111  0.00  0.00    +0.166 C 
ATOM     21  O   UNL     1      -0.596  -0.206  24.474  0.00  0.00    -0.350 OA
ATOM     22  C   UNL     1      -1.085   0.195  23.943  0.00  0.00    +0.169 C 
ENDROOT
BRANCH  15  14
ATOM     10  C   UNL     1      -2.950   1.136  24.575  0.00  0.00    +0.343 A 
ATOM     11  N   UNL     1      -3.476   0.886  25.160  0.00  0.00    -0.071 NA
ATOM     12  N   UNL     1      -3.299   0.101  25.342  0.00  0.00    -0.020 NA
ATOM     13  N   UNL     1      -2.664  -0.134  24.870  0.00  0.00    -0.040 NA
ATOM     14  N   UNL     1      -2.449   0.506  24.396  0.00  0.00    -0.180 N 
BRANCH  10   9
ATOM      9  O   UNL     1      -2.929   1.885  24.230  0.00  0.00    -0.421 OA
BRANCH   9   8
ATOM      4  C   UNL     1      -3.295   3.670  25.431  0.00  0.00    +0.051 A 
ATOM      5  C   UNL     1      -4.105   3.777  25.310  0.00  0.00    +0.015 A 
ATOM      6  C   UNL     1      -4.522   3.253  24.828  0.00  0.00    +0.004 A 
ATOM      7  C   UNL     1      -4.130   2.622  24.469  0.00  0.00    +0.038 A 
ATOM      8  C   UNL     1      -3.321   2.516  24.590  0.00  0.00    +0.150 A 
ATOM     36  C   UNL     1      -2.904   3.040  25.071  0.00  0.00    +0.052 A 
BRANCH   4   2
ATOM      1  C   UNL     1      -2.253   4.633  25.599  0.00  0.00    +0.112 C 
ATOM      2  N   UNL     1      -2.878   4.194  25.913  0.00  0.00    -0.304 N 
ATOM      3  C   UNL     1      -3.085   4.279  26.706  0.00  0.00    +0.112 C 
ENDBRANCH   4   2
ENDBRANCH   9   8
ENDBRANCH  10   9
ENDBRANCH  15  14
BRANCH  19  23
ATOM     23  N   UNL     1       0.708   0.015  22.800  0.00  0.00    -0.184 NA
ATOM     24  C   UNL     1       1.492   0.085  23.048  0.00  0.00    +0.344 C 
ATOM     25  O   UNL     1       1.665   0.146  23.852  0.00  0.00    -0.249 OA
ATOM     26  N   UNL     1       2.102   0.093  22.494  0.00  0.00    -0.161 NA
BRANCH  26  27
ATOM     27  C   UNL     1       2.886   0.162  22.742  0.00  0.00    +0.075 A 
ATOM     28  C   UNL     1       3.285  -0.496  23.036  0.00  0.00    +0.017 A 
ATOM     29  C   UNL     1       4.068  -0.426  23.285  0.00  0.00    +0.004 A 
ATOM     30  C   UNL     1       4.453   0.303  23.239  0.00  0.00    +0.035 A 
ATOM     31  C   UNL     1       4.053   0.962  22.945  0.00  0.00    +0.004 A 
ATOM     32  C   UNL     1       3.269   0.891  22.696  0.00  0.00    +0.017 A 
BRANCH  30  33
ATOM     33  C   UNL     1       5.235   0.373  23.487  0.00  0.00    +0.173 C 
ATOM     34  C   UNL     1       5.810  -0.140  23.191  0.00  0.00    +0.077 C 
ATOM     35  O   UNL     1       5.446   0.956  24.032  0.00  0.00    -0.291 OA
ENDBRANCH  30  33
ENDBRANCH  26  27
ENDBRANCH  19  23
TORSDOF 7
ENDMDL
MODEL 6
REMARK VINA RESULT:      -8.7      3.100      5.840
REMARK  Name = 
REMARK  7 active torsions:
REMARK  status: ('A' for Active; 'I' for Inactive)
REMARK    1  A    between atoms: N_2  and  C_4
REMARK    2  A    between atoms: C_8  and  O_9
REMARK    3  A    between atoms: O_9  and  C_10
REMARK    4  A    between atoms: N_14  and  C_15
REMARK    5  A    between atoms: C_19  and  N_23
REMARK    6  A    between atoms: N_26  and  C_27
REMARK    7  A    between atoms: C_30  and  C_33
REMARK                            x       y       z     vdW  Elec       q    Type
REMARK                         _______ _______ _______ _____ _____    ______ ____
ROOT
ATOM     15  C   UNL     1      -4.079  -0.869  24.801  0.00  0.00    +0.170 C 
ATOM     16  C   UNL     1      -4.293  -0.673  25.573  0.00  0.00    +0.169 C 
ATOM     17  O   UNL     1      -4.378   0.146  25.614  0.00  0.00    -0.350 OA
ATOM     18  C   UNL     1      -4.215   0.457  24.868  0.00  0.00    +0.167 C 
ATOM     19  C   UNL     1      -4.167   1.155  24.431  0.00  0.00    +0.156 C 
ATOM     20  C   UNL     1      -3.952   0.959  23.659  0.00  0.00    +0.166 C 
ATOM     21  O   UNL     1      -3.868   0.140  23.618  0.00  0.00    -0.350 OA
ATOM     22  C   UNL     1      -4.030  -0.171  24.365  0.00  0.00    +0.169 C 
ENDROOT
BRANCH  15  14
ATOM     10  C   UNL     1      -3.299  -2.113  24.717  0.00  0.00    +0.343 A 
ATOM     11  N   UNL     1      -3.376  -2.823  24.304  0.00  0.00    -0.071 NA
ATOM     12  N   UNL     1      -4.062  -2.779  23.847  0.00  0.00    -0.020 NA
ATOM     13  N   UNL     1      -4.409  -2.042  23.978  0.00  0.00    -0.040 NA
ATOM     14  N   UNL     1      -3.937  -1.630  24.516  0.00  0.00    -0.180 N 
BRANCH  10   9
ATOM      9  O   UNL     1      -2.691  -1.919  25.240  0.00  0.00    -0.421 OA
BRANCH   9   8
ATOM      4  C   UNL     1      -0.715  -1.326  24.530  0.00  0.00    +0.051 A 
ATOM      5  C   UNL     1      -0.333  -2.058  24.498  0.00  0.00    +0.015 A 
ATOM      6  C   UNL     1      -0.739  -2.743  24.714  0.00  0.00    +0.004 A 
ATOM      7  C   UNL     1      -1.525  -2.697  24.961  0.00  0.00    +0.038 A 
ATOM      8  C   UNL     1      -1.905  -1.966  24.993  0.00  0.00    +0.150 A 
ATOM     36  C   UNL     1      -1.500  -1.280  24.777  0.00  0.00    +0.052 A 
BRANCH   4   2
ATOM      1  C   UNL     1       0.101  -0.612  23.598  0.00  0.00    +0.112 C 
ATOM      2  N   UNL     1      -0.309  -0.640  24.314  0.00  0.00    -0.304 N 
ATOM      3  C   UNL     1      -0.313   0.015  24.814  0.00  0.00    +0.112 C 
ENDBRANCH   4   2
ENDBRANCH   9   8
ENDBRANCH  10   9
ENDBRANCH  15  14
BRANCH  19  23
ATOM     23  N   UNL     1      -4.308   1.916  24.716  0.00  0.00    -0.184 NA
ATOM     24  C   UNL     1      -3.699   2.472  24.731  0.00  0.00    +0.344 C 
ATOM     25  O   UNL     1      -2.947   2.266  24.459  0.00  0.00    -0.249 OA
ATOM     26  N   UNL     1      -3.840   3.232  25.016  0.00  0.00    -0.161 NA
BRANCH  26  27
ATOM     27  C   UNL     1      -3.230   3.788  25.030  0.00  0.00    +0.075 A 
ATOM     28  C   UNL     1      -2.761   3.869  25.704  0.00  0.00    +0.017 A 
ATOM     29  C   UNL     1      -2.152   4.424  25.718  0.00  0.00    +0.004 A 
ATOM     30  C   UNL     1      -2.011   4.900  25.058  0.00  0.00    +0.035 A 
ATOM     31  C   UNL     1      -2.480   4.819  24.384  0.00  0.00    +0.004 A 
ATOM     32  C   UNL     1      -3.089   4.263  24.371  0.00  0.00    +0.017 A 
BRANCH  30  33
ATOM     33  C   UNL     1      -1.402   5.455  25.072  0.00  0.00    +0.173 C 
ATOM     34  C   UNL     1      -0.632   5.227  24.884  0.00  0.00    +0.077 C 
ATOM     35  O   UNL     1      -1.562   6.239  25.274  0.00  0.00    -0.291 OA
ENDBRANCH  30  33
ENDBRANCH  26  27
ENDBRANCH  19  23
TORSDOF 7
ENDMDL
MODEL 7
REMARK VINA RESULT:      -8.4      2.996      4.491
REMARK  Name = 
REMARK  7 active torsions:
REMARK  status: ('A' for Active; 'I' for Inactive)
REMARK    1  A    between atoms: N_2  and  C_4
REMARK    2  A    between atoms: C_8  and  O_9
REMARK    3  A    between atoms: O_9  and  C_10
REMARK    4  A    between atoms: N_14  and  C_15
REMARK    5  A    between atoms: C_19  and  N_23
REMARK    6  A    between atoms: N_26  and  C_27
REMARK    7  A    between atoms: C_30  and  C_33
REMARK                            x       y       z     vdW  Elec       q    Type
REMARK                         _______ _______ _______ _____ _____    ______ ____
ROOT
ATOM     15  C   UNL     1      -1.025  -1.324  24.911  0.00  0.00    +0.170 C 
ATOM     16  C   UNL     1      -0.919  -1.172  25.715  0.00  0.00    +0.169 C 
ATOM     17  O   UNL     1      -0.580  -0.423  25.789  0.00  0.00    -0.350 OA
ATOM     18  C   UNL     1      -0.478  -0.113  25.032  0.00  0.00    +0.167 C 
ATOM     19  C   UNL     1      -0.206   0.541  24.609  0.00  0.00    +0.156 C 
ATOM     20  C   UNL     1      -0.313   0.388  23.805  0.00  0.00    +0.166 C 
ATOM     21  O   UNL     1      -0.652  -0.360  23.731  0.00  0.00    -0.350 OA
ATOM     22  C   UNL     1      -0.754  -0.670  24.489  0.00  0.00    +0.169 C 
ENDROOT
BRANCH  15  14
ATOM     10  C   UNL     1      -2.124  -2.274  24.682  0.00  0.00    +0.343 A 
ATOM     11  N   UNL     1      -2.207  -2.981  24.264  0.00  0.00    -0.071 NA
ATOM     12  N   UNL     1      -1.482  -3.155  23.910  0.00  0.00    -0.020 NA
ATOM     13  N   UNL     1      -0.951  -2.555  24.110  0.00  0.00    -0.040 NA
ATOM     14  N   UNL     1      -1.348  -2.011  24.587  0.00  0.00    -0.180 N 
BRANCH  10   9
ATOM      9  O   UNL     1      -2.714  -1.897  25.118  0.00  0.00    -0.421 OA
BRANCH   9   8
ATOM      4  C   UNL     1      -4.306  -0.563  24.448  0.00  0.00    +0.051 A 
ATOM      5  C   UNL     1      -4.757  -1.077  23.985  0.00  0.00    +0.015 A 
ATOM      6  C   UNL     1      -4.526  -1.864  23.901  0.00  0.00    +0.004 A 
ATOM      7  C   UNL     1      -3.845  -2.137  24.278  0.00  0.00    +0.038 A 
ATOM      8  C   UNL     1      -3.395  -1.624  24.740  0.00  0.00    +0.150 A 
ATOM     36  C   UNL     1      -3.626  -0.836  24.825  0.00  0.00    +0.052 A 
BRANCH   4   2
ATOM      1  C   UNL     1      -5.126   0.426  25.074  0.00  0.00    +0.112 C 
ATOM      2  N   UNL     1      -4.537   0.225  24.533  0.00  0.00    -0.304 N 
ATOM      3  C   UNL     1      -4.178   0.811  24.077  0.00  0.00    +0.112 C 
ENDBRANCH   4   2
ENDBRANCH   9   8
ENDBRANCH  10   9
ENDBRANCH  15  14
BRANCH  19  23
ATOM     23  N   UNL     1       0.116   1.228  24.933  0.00  0.00    -0.184 NA
ATOM     24  C   UNL     1      -0.307   1.935  24.907  0.00  0.00    +0.344 C 
ATOM     25  O   UNL     1      -1.054   1.956  24.557  0.00  0.00    -0.249 OA
ATOM     26  N   UNL     1       0.015   2.621  25.231  0.00  0.00    -0.161 NA
BRANCH  26  27
ATOM     27  C   UNL     1      -0.409   3.329  25.205  0.00  0.00    +0.075 A 
ATOM     28  C   UNL     1      -1.047   3.447  25.714  0.00  0.00    +0.017 A 
ATOM     29  C   UNL     1      -1.470   4.154  25.688  0.00  0.00    +0.004 A 
ATOM     30  C   UNL     1      -1.256   4.744  25.152  0.00  0.00    +0.035 A 
ATOM     31  C   UNL     1      -0.617   4.626  24.643  0.00  0.00    +0.004 A 
ATOM     32  C   UNL     1      -0.194   3.919  24.670  0.00  0.00    +0.017 A 
BRANCH  30  33
ATOM     33  C   UNL     1      -1.678   5.451  25.126  0.00  0.00    +0.173 C 
ATOM     34  C   UNL     1      -2.486   5.455  25.296  0.00  0.00    +0.077 C 
ATOM     35  O   UNL     1      -1.295   6.155  24.929  0.00  0.00    -0.291 OA
ENDBRANCH  30  33
ENDBRANCH  26  27
ENDBRANCH  19  23
TORSDOF 7
ENDMDL
MODEL 8
REMARK VINA RESULT:      -8.2      3.012      6.353
REMARK  Name = 
REMARK  7 active torsions:
REMARK  status: ('A' for Active; 'I' for Inactive)
REMARK    1  A    between atoms: N_2  and  C_4
REMARK    2  A    between atoms: C_8  and  O_9
REMARK    3  A    between atoms: O_9  and  C_10
REMARK    4  A    between atoms: N_14  and  C_15
REMARK    5  A    between atoms: C_19  and  N_23
REMARK    6  A    between atoms: N_26  and  C_27
REMARK    7  A    between atoms: C_30  and  C_33
REMARK                            x       y       z     vdW  Elec       q    Type
REMARK                         _______ _______ _______ _____ _____    ______ ____
ROOT
ATOM     15  C   UNL     1      -0.293   0.661  24.288  0.00  0.00    +0.170 C 
ATOM     16  C   UNL     1      -0.137   0.992  25.027  0.00  0.00    +0.169 C 
ATOM     17  O   UNL     1      -0.543   1.708  25.076  0.00  0.00    -0.350 OA
ATOM     18  C   UNL     1      -0.950   1.820  24.368  0.00  0.00    +0.167 C 
ATOM     19  C   UNL     1      -1.452   2.331  23.959  0.00  0.00    +0.156 C 
ATOM     20  C   UNL     1      -1.607   2.001  23.220  0.00  0.00    +0.166 C 
ATOM     21  O   UNL     1      -1.201   1.284  23.171  0.00  0.00    -0.350 OA
ATOM     22  C   UNL     1      -0.795   1.173  23.881  0.00  0.00    +0.169 C 
ENDROOT
BRANCH  15  14
ATOM     10  C   UNL     1      -0.221  -0.807  24.265  0.00  0.00    +0.343 A 
ATOM     11  N   UNL     1       0.211  -1.364  23.835  0.00  0.00    -0.071 NA
ATOM     12  N   UNL     1       0.700  -0.956  23.310  0.00  0.00    -0.020 NA
ATOM     13  N   UNL     1       0.571  -0.149  23.416  0.00  0.00    -0.040 NA
ATOM     14  N   UNL     1       0.002  -0.057  24.006  0.00  0.00    -0.180 N 
BRANCH  10   9
ATOM      9  O   UNL     1      -0.777  -0.973  24.851  0.00  0.00    -0.421 OA
BRANCH   9   8
ATOM      4  C   UNL     1      -2.707  -1.944  24.545  0.00  0.00    +0.051 A 
ATOM      5  C   UNL     1      -2.477  -2.733  24.480  0.00  0.00    +0.015 A 
ATOM      6  C   UNL     1      -1.680  -2.936  24.538  0.00  0.00    +0.004 A 
ATOM      7  C   UNL     1      -1.113  -2.349  24.662  0.00  0.00    +0.038 A 
ATOM      8  C   UNL     1      -1.344  -1.560  24.727  0.00  0.00    +0.150 A 
ATOM     36  C   UNL     1      -2.141  -1.357  24.669  0.00  0.00    +0.052 A 
BRANCH   4   2
ATOM      1  C   UNL     1      -3.994  -2.138  23.953  0.00  0.00    +0.112 C 
ATOM      2  N   UNL     1      -3.506  -1.741  24.487  0.00  0.00    -0.304 N 
ATOM      3  C   UNL     1      -3.814  -1.141  24.961  0.00  0.00    +0.112 C 
ENDBRANCH   4   2
ENDBRANCH   9   8
ENDBRANCH  10   9
ENDBRANCH  15  14
BRANCH  19  23
ATOM     23  N   UNL     1      -1.747   3.049  24.241  0.00  0.00    -0.184 NA
ATOM     24  C   UNL     1      -2.534   3.105  24.482  0.00  0.00    +0.344 C 
ATOM     25  O   UNL     1      -3.026   2.445  24.441  0.00  0.00    -0.249 OA
ATOM     26  N   UNL     1      -2.828   3.822  24.764  0.00  0.00    -0.161 NA
BRANCH  26  27
ATOM     27  C   UNL     1      -3.615   3.879  25.005  0.00  0.00    +0.075 A 
ATOM     28  C   UNL     1      -3.811   3.783  25.800  0.00  0.00    +0.017 A 
ATOM     29  C   UNL     1      -4.597   3.839  26.041  0.00  0.00    +0.004 A 
ATOM     30  C   UNL     1      -5.190   3.992  25.487  0.00  0.00    +0.035 A 
ATOM     31  C   UNL     1      -4.994   4.088  24.691  0.00  0.00    +0.004 A 
ATOM     32  C   UNL     1      -4.206   4.032  24.451  0.00  0.00    +0.017 A 
BRANCH  30  33
ATOM     33  C   UNL     1      -5.976   4.049  25.727  0.00  0.00    +0.173 C 
ATOM     34  C   UNL     1      -6.413   3.364  25.871  0.00  0.00    +0.077 C 
ATOM     35  O   UNL     1      -6.326   4.790  25.824  0.00  0.00    -0.291 OA
ENDBRANCH  30  33
ENDBRANCH  26  27
ENDBRANCH  19  23
TORSDOF 7
ENDMDL
MODEL 9
REMARK VINA RESULT:      -7.1     17.448     18.272
REMARK  Name = 
REMARK  7 active torsions:
REMARK  status: ('A' for Active; 'I' for Inactive)
REMARK    1  A    between atoms: N_2  and  C_4
REMARK    2  A    between atoms: C_8  and  O_9
REMARK    3  A    between atoms: O_9  and  C_10
REMARK    4  A    between atoms: N_14  and  C_15
REMARK    5  A    between atoms: C_19  and  N_23
REMARK    6  A    between atoms: N_26  and  C_27
REMARK    7  A    between atoms: C_30  and  C_33
REMARK                            x       y       z     vdW  Elec       q    Type
REMARK                         _______ _______ _______ _____ _____    ______ ____
ROOT
ATOM     15  C   UNL     1      -8.201  -9.933  10.110  0.00  0.00    +0.170 C 
ATOM     16  C   UNL     1      -8.085 -10.449   9.477  0.00  0.00    +0.169 C 
ATOM     17  O   UNL     1      -7.286 -10.652   9.458  0.00  0.00    -0.350 OA
ATOM     18  C   UNL     1      -6.908 -10.262  10.079  0.00  0.00    +0.167 C 
ATOM     19  C   UNL     1      -6.182 -10.146  10.452  0.00  0.00    +0.156 C 
ATOM     20  C   UNL     1      -6.298  -9.631  11.084  0.00  0.00    +0.166 C 
ATOM     21  O   UNL     1      -7.097  -9.427  11.103  0.00  0.00    -0.350 OA
ATOM     22  C   UNL     1      -7.475  -9.818  10.482  0.00  0.00    +0.169 C 
ENDROOT
BRANCH  15  14
ATOM     10  C   UNL     1      -9.333  -9.016   9.911  0.00  0.00    +0.343 A 
ATOM     11  N   UNL     1     -10.019  -8.835  10.333  0.00  0.00    -0.071 NA
ATOM     12  N   UNL     1     -10.029  -9.300  11.015  0.00  0.00    -0.020 NA
ATOM     13  N   UNL     1      -9.350  -9.768  11.014  0.00  0.00    -0.040 NA
ATOM     14  N   UNL     1      -8.919  -9.592  10.332  0.00  0.00    -0.180 N 
BRANCH  10   9
ATOM      9  O   UNL     1      -9.102  -8.679   9.194  0.00  0.00    -0.421 OA
BRANCH   9   8
ATOM      4  C   UNL     1      -9.766  -6.699   8.563  0.00  0.00    +0.051 A 
ATOM      5  C   UNL     1     -10.469  -6.886   8.173  0.00  0.00    +0.015 A 
ATOM      6  C   UNL     1     -10.716  -7.672   8.124  0.00  0.00    +0.004 A 
ATOM      7  C   UNL     1     -10.260  -8.269   8.464  0.00  0.00    +0.038 A 
ATOM      8  C   UNL     1      -9.558  -8.081   8.854  0.00  0.00    +0.150 A 
ATOM     36  C   UNL     1      -9.311  -7.296   8.903  0.00  0.00    +0.052 A 
BRANCH   4   2
ATOM      1  C   UNL     1     -10.026  -5.339   8.922  0.00  0.00    +0.112 C 
ATOM      2  N   UNL     1      -9.519  -5.912   8.613  0.00  0.00    -0.304 N 
ATOM      3  C   UNL     1      -8.766  -5.700   8.353  0.00  0.00    +0.112 C 
ENDBRANCH   4   2
ENDBRANCH   9   8
ENDBRANCH  10   9
ENDBRANCH  15  14
BRANCH  19  23
ATOM     23  N   UNL     1      -5.464 -10.487  10.229  0.00  0.00    -0.184 NA
ATOM     24  C   UNL     1      -4.756 -10.198  10.540  0.00  0.00    +0.344 C 
ATOM     25  O   UNL     1      -4.766  -9.568  11.072  0.00  0.00    -0.249 OA
ATOM     26  N   UNL     1      -4.038 -10.538  10.318  0.00  0.00    -0.161 NA
BRANCH  26  27
ATOM     27  C   UNL     1      -3.331 -10.249  10.628  0.00  0.00    +0.075 A 
ATOM     28  C   UNL     1      -3.002  -9.555  10.329  0.00  0.00    +0.017 A 
ATOM     29  C   UNL     1      -2.295  -9.266  10.639  0.00  0.00    +0.004 A 
ATOM     30  C   UNL     1      -1.915  -9.672  11.249  0.00  0.00    +0.035 A 
ATOM     31  C   UNL     1      -2.244 -10.367  11.549  0.00  0.00    +0.004 A 
ATOM     32  C   UNL     1      -2.952 -10.655  11.238  0.00  0.00    +0.017 A 
BRANCH  30  33
ATOM     33  C   UNL     1      -1.208  -9.384  11.560  0.00  0.00    +0.173 C 
ATOM     34  C   UNL     1      -0.677  -8.982  11.072  0.00  0.00    +0.077 C 
ATOM     35  O   UNL     1      -1.030  -9.497  12.358  0.00  0.00    -0.291 OA
ENDBRANCH  30  33
ENDBRANCH  26  27
ENDBRANCH  19  23
TORSDOF 7
ENDMDL
MODEL 10
REMARK VINA RESULT:      -7.0     15.325     17.328
REMARK  Name = 
REMARK  7 active torsions:
REMARK  status: ('A' for Active; 'I' for Inactive)
REMARK    1  A    between atoms: N_2  and  C_4
REMARK    2  A    between atoms: C_8  and  O_9
REMARK    3  A    between atoms: O_9  and  C_10
REMARK    4  A    between atoms: N_14  and  C_15
REMARK    5  A    between atoms: C_19  and  N_23
REMARK    6  A    between atoms: N_26  and  C_27
REMARK    7  A    between atoms: C_30  and  C_33
REMARK                            x       y       z     vdW  Elec       q    Type
REMARK                         _______ _______ _______ _____ _____    ______ ____
ROOT
ATOM     15  C   UNL     1      -6.588  -9.574  11.571  0.00  0.00    +0.170 C 
ATOM     16  C   UNL     1      -6.716  -8.774  11.728  0.00  0.00    +0.169 C 
ATOM     17  O   UNL     1      -7.145  -8.718  12.430  0.00  0.00    -0.350 OA
ATOM     18  C   UNL     1      -7.282  -9.482  12.708  0.00  0.00    +0.167 C 
ATOM     19  C   UNL     1      -7.631  -9.921  13.313  0.00  0.00    +0.156 C 
ATOM     20  C   UNL     1      -7.503 -10.721  13.156  0.00  0.00    +0.166 C 
ATOM     21  O   UNL     1      -7.074 -10.777  12.453  0.00  0.00    -0.350 OA
ATOM     22  C   UNL     1      -6.937 -10.011  12.176  0.00  0.00    +0.169 C 
ENDROOT
BRANCH  15  14
ATOM     10  C   UNL     1      -5.368  -9.837  10.795  0.00  0.00    +0.343 A 
ATOM     11  N   UNL     1      -5.200 -10.216  10.080  0.00  0.00    -0.071 NA
ATOM     12  N   UNL     1      -5.911 -10.494   9.767  0.00  0.00    -0.020 NA
ATOM     13  N   UNL     1      -6.517 -10.288  10.288  0.00  0.00    -0.040 NA
ATOM     14  N   UNL     1      -6.181  -9.881  10.922  0.00  0.00    -0.180 N 
BRANCH  10   9
ATOM      9  O   UNL     1      -4.817  -9.476  11.293  0.00  0.00    -0.421 OA
BRANCH   9   8
ATOM      4  C   UNL     1      -2.685  -9.904  11.465  0.00  0.00    +0.051 A 
ATOM      5  C   UNL     1      -2.404  -9.589  10.756  0.00  0.00    +0.015 A 
ATOM      6  C   UNL     1      -2.928  -9.237  10.225  0.00  0.00    +0.004 A 
ATOM      7  C   UNL     1      -3.733  -9.199  10.405  0.00  0.00    +0.038 A 
ATOM      8  C   UNL     1      -4.013  -9.514  11.113  0.00  0.00    +0.150 A 
ATOM     36  C   UNL     1      -3.489  -9.866  11.644  0.00  0.00    +0.052 A 
BRANCH   4   2
ATOM      1  C   UNL     1      -2.232 -10.112  12.805  0.00  0.00    +0.112 C 
ATOM      2  N   UNL     1      -2.160 -10.257  11.996  0.00  0.00    -0.304 N 
ATOM      3  C   UNL     1      -1.564 -10.754  11.718  0.00  0.00    +0.112 C 
ENDBRANCH   4   2
ENDBRANCH   9   8
ENDBRANCH  10   9
ENDBRANCH  15  14
BRANCH  19  23
ATOM     23  N   UNL     1      -8.038  -9.614  13.962  0.00  0.00    -0.184 NA
ATOM     24  C   UNL     1      -7.836  -9.850  14.726  0.00  0.00    +0.344 C 
ATOM     25  O   UNL     1      -7.227 -10.395  14.841  0.00  0.00    -0.249 OA
ATOM     26  N   UNL     1      -8.242  -9.543  15.374  0.00  0.00    -0.161 NA
BRANCH  26  27
ATOM     27  C   UNL     1      -8.040  -9.780  16.138  0.00  0.00    +0.075 A 
ATOM     28  C   UNL     1      -8.459 -10.387  16.507  0.00  0.00    +0.017 A 
ATOM     29  C   UNL     1      -8.257 -10.624  17.270  0.00  0.00    +0.004 A 
ATOM     30  C   UNL     1      -7.635 -10.253  17.666  0.00  0.00    +0.035 A 
ATOM     31  C   UNL     1      -7.215  -9.646  17.298  0.00  0.00    +0.004 A 
ATOM     32  C   UNL     1      -7.418  -9.409  16.534  0.00  0.00    +0.017 A 
BRANCH  30  33
ATOM     33  C   UNL     1      -7.433 -10.489  18.429  0.00  0.00    +0.173 C 
ATOM     34  C   UNL     1      -6.649 -10.434  18.684  0.00  0.00    +0.077 C 
ATOM     35  O   UNL     1      -8.012 -10.781  18.940  0.00  0.00    -0.291 OA
ENDBRANCH  30  33
ENDBRANCH  26  27
ENDBRANCH  19  23
TORSDOF 7
ENDMDL
