MODEL 1
REMARK VINA RESULT:     -13.5      0.000      0.000
REMARK  Name = 
REMARK  6 active torsions:
REMARK  status: ('A' for Active; 'I' for Inactive)
REMARK    1  A    between atoms: C_8  and  C_10
REMARK    2  A    between atoms: C_10  and  C_11
REMARK    3  A    between atoms: C_16  and  C_17
REMARK    4  A    between atoms: C_17  and  C_18
REMARK    5  A    between atoms: C_21  and  C_23
REMARK    6  A    between atoms: C_26  and  C_29
REMARK                            x       y       z     vdW  Elec       q    Type
REMARK                         _______ _______ _______ _____ _____    ______ ____
ROOT
ATOM     11  C   UNL     1      -3.319   3.536  25.286  0.00  0.00    +0.012 C 
ATOM     12  C   UNL     1      -3.187   4.014  25.945  0.00  0.00    +0.019 C 
ATOM     13  C   UNL     1      -3.805   4.175  26.468  0.00  0.00    +0.089 C 
ATOM     14  N   UNL     1      -4.554   3.857  26.332  0.00  0.00    -0.218 NA
ATOM     15  C   UNL     1      -4.685   3.379  25.672  0.00  0.00    +0.089 C 
ATOM     16  C   UNL     1      -4.068   3.218  25.150  0.00  0.00    +0.024 C 
ENDROOT
BRANCH  11  10
ATOM     10  C   UNL     1      -2.700   3.376  24.764  0.00  0.00    +0.085 C 
BRANCH  10   8
ATOM      1  C   UNL     1       0.771   2.017  24.140  0.00  0.00    +0.090 C 
ATOM      2  N   UNL     1       0.089   2.441  24.326  0.00  0.00    -0.269 NA
ATOM      3  C   UNL     1       0.149   3.203  24.635  0.00  0.00    +0.094 C 
ATOM      4  C   UNL     1      -0.533   3.628  24.822  0.00  0.00    +0.111 C 
ATOM      5  N   UNL     1      -1.276   3.289  24.700  0.00  0.00    -0.277 N 
ATOM      6  C   UNL     1      -1.336   2.526  24.391  0.00  0.00    +0.111 C 
ATOM      7  C   UNL     1      -0.653   2.102  24.204  0.00  0.00    +0.094 C 
ATOM      8  C   UNL     1      -1.959   3.714  24.886  0.00  0.00    +0.226 C 
ATOM      9  O   UNL     1      -1.899   4.476  25.195  0.00  0.00    -0.275 OA
ENDBRANCH  10   8
ENDBRANCH  11  10
BRANCH  16  17
ATOM     17  C   UNL     1      -4.199   2.740  24.491  0.00  0.00    +0.051 C 
BRANCH  17  18
ATOM     18  C   UNL     1      -4.472   1.967  24.590  0.00  0.00    +0.101 A 
ATOM     19  N   UNL     1      -5.244   1.746  24.774  0.00  0.00    -0.081 NA
ATOM     20  O   UNL     1      -5.269   0.922  24.819  0.00  0.00    -0.354 OA
ATOM     21  C   UNL     1      -4.512   0.635  24.664  0.00  0.00    +0.177 A 
ATOM     22  C   UNL     1      -4.018   1.281  24.522  0.00  0.00    +0.058 A 
BRANCH  21  23
ATOM     23  C   UNL     1      -4.287  -0.159  24.653  0.00  0.00    +0.037 A 
ATOM     24  C   UNL     1      -3.930  -0.496  25.316  0.00  0.00    +0.003 A 
ATOM     25  C   UNL     1      -3.706  -1.290  25.304  0.00  0.00    -0.004 A 
ATOM     26  C   UNL     1      -3.839  -1.746  24.629  0.00  0.00    -0.023 A 
ATOM     27  C   UNL     1      -4.196  -1.409  23.967  0.00  0.00    -0.004 A 
ATOM     28  C   UNL     1      -4.420  -0.615  23.979  0.00  0.00    +0.003 A 
BRANCH  26  29
ATOM     29  C   UNL     1      -3.614  -2.541  24.618  0.00  0.00    +0.019 C 
ATOM     30  C   UNL     1      -3.390  -3.334  24.607  0.00  0.00    +0.004 C 
ATOM     31  C   UNL     1      -3.179  -2.427  25.309  0.00  0.00    +0.004 C 
ATOM     32  C   UNL     1      -4.050  -2.654  23.926  0.00  0.00    +0.004 C 
ENDBRANCH  26  29
ENDBRANCH  21  23
ENDBRANCH  17  18
ENDBRANCH  16  17
TORSDOF 6
ENDMDL
MODEL 2
REMARK VINA RESULT:     -12.2      1.456      3.297
REMARK  Name = 
REMARK  6 active torsions:
REMARK  status: ('A' for Active; 'I' for Inactive)
REMARK    1  A    between atoms: C_8  and  C_10
REMARK    2  A    between atoms: C_10  and  C_11
REMARK    3  A    between atoms: C_16  and  C_17
REMARK    4  A    between atoms: C_17  and  C_18
REMARK    5  A    between atoms: C_21  and  C_23
REMARK    6  A    between atoms: C_26  and  C_29
REMARK                            x       y       z     vdW  Elec       q    Type
REMARK                         _______ _______ _______ _____ _____    ______ ____
ROOT
ATOM     11  C   UNL     1      -1.165   2.861  25.168  0.00  0.00    +0.012 C 
ATOM     12  C   UNL     1      -0.946   3.464  24.650  0.00  0.00    +0.019 C 
ATOM     13  C   UNL     1      -0.237   3.409  24.230  0.00  0.00    +0.089 C 
ATOM     14  N   UNL     1       0.251   2.751  24.328  0.00  0.00    -0.218 NA
ATOM     15  C   UNL     1       0.030   2.148  24.847  0.00  0.00    +0.089 C 
ATOM     16  C   UNL     1      -0.678   2.203  25.266  0.00  0.00    +0.024 C 
ENDROOT
BRANCH  11  10
ATOM     10  C   UNL     1      -1.873   2.917  25.587  0.00  0.00    +0.085 C 
BRANCH  10   8
ATOM      1  C   UNL     1      -5.584   3.635  25.504  0.00  0.00    +0.090 C 
ATOM      2  N   UNL     1      -4.760   3.634  25.530  0.00  0.00    -0.269 NA
ATOM      3  C   UNL     1      -4.348   4.347  25.577  0.00  0.00    +0.094 C 
ATOM      4  C   UNL     1      -3.523   4.346  25.603  0.00  0.00    +0.111 C 
ATOM      5  N   UNL     1      -3.111   3.632  25.582  0.00  0.00    -0.277 N 
ATOM      6  C   UNL     1      -3.523   2.918  25.535  0.00  0.00    +0.111 C 
ATOM      7  C   UNL     1      -4.347   2.920  25.509  0.00  0.00    +0.094 C 
ATOM      8  C   UNL     1      -2.285   3.631  25.608  0.00  0.00    +0.226 C 
ATOM      9  O   UNL     1      -1.874   4.344  25.656  0.00  0.00    -0.275 OA
ENDBRANCH  10   8
ENDBRANCH  11  10
BRANCH  16  17
ATOM     17  C   UNL     1      -0.898   1.601  25.785  0.00  0.00    +0.051 C 
BRANCH  17  18
ATOM     18  C   UNL     1      -0.985   0.828  25.506  0.00  0.00    +0.101 A 
ATOM     19  N   UNL     1      -0.372   0.310  25.318  0.00  0.00    -0.081 NA
ATOM     20  O   UNL     1      -0.708  -0.399  25.063  0.00  0.00    -0.354 OA
ATOM     21  C   UNL     1      -1.528  -0.319  25.094  0.00  0.00    +0.177 A 
ATOM     22  C   UNL     1      -1.700   0.440  25.369  0.00  0.00    +0.058 A 
BRANCH  21  23
ATOM     23  C   UNL     1      -2.080  -0.897  24.888  0.00  0.00    +0.037 A 
ATOM     24  C   UNL     1      -2.885  -0.758  25.003  0.00  0.00    +0.003 A 
ATOM     25  C   UNL     1      -3.437  -1.335  24.797  0.00  0.00    -0.004 A 
ATOM     26  C   UNL     1      -3.183  -2.052  24.475  0.00  0.00    -0.023 A 
ATOM     27  C   UNL     1      -2.378  -2.190  24.360  0.00  0.00    -0.004 A 
ATOM     28  C   UNL     1      -1.826  -1.612  24.566  0.00  0.00    +0.003 A 
BRANCH  26  29
ATOM     29  C   UNL     1      -3.735  -2.630  24.268  0.00  0.00    +0.019 C 
ATOM     30  C   UNL     1      -4.287  -3.207  24.061  0.00  0.00    +0.004 C 
ATOM     31  C   UNL     1      -4.124  -2.085  23.787  0.00  0.00    +0.004 C 
ATOM     32  C   UNL     1      -3.345  -3.175  24.750  0.00  0.00    +0.004 C 
ENDBRANCH  26  29
ENDBRANCH  21  23
ENDBRANCH  17  18
ENDBRANCH  16  17
TORSDOF 6
ENDMDL
