MODEL 1
REMARK VINA RESULT:      -8.6      0.000      0.000
REMARK  Name = 
REMARK  7 active torsions:
REMARK  status: ('A' for Active; 'I' for Inactive)
REMARK    1  A    between atoms: N_2  and  C_4
REMARK    2  A    between atoms: C_4  and  C_5
REMARK    3  A    between atoms: C_7  and  C_8
REMARK    4  A    between atoms: C_8  and  C_9
REMARK    5  A    between atoms: C_9  and  N_13
REMARK    6  A    between atoms: N_13  and  C_14
REMARK    7  A    between atoms: C_14  and  C_15
REMARK                            x       y       z     vdW  Elec       q    Type
REMARK                         _______ _______ _______ _____ _____    ______ ____
ROOT
ATOM      9  C   UNL     1      -4.187   1.420  24.548  0.00  0.00    +0.120 C 
ATOM     10  C   UNL     1      -4.841   1.260  25.027  0.00  0.00    +0.161 C 
ATOM     11  O   UNL     1      -5.134   2.017  24.879  0.00  0.00    -0.351 OA
ATOM     12  C   UNL     1      -4.482   2.177  24.401  0.00  0.00    +0.161 C 
ENDROOT
BRANCH   9   8
ATOM      8  C   UNL     1      -3.535   1.580  24.071  0.00  0.00    +0.070 C 
BRANCH   8   7
ATOM      5  C   UNL     1      -1.683   2.542  24.523  0.00  0.00    +0.170 A 
ATOM      6  C   UNL     1      -2.142   2.052  24.044  0.00  0.00    +0.055 A 
ATOM      7  C   UNL     1      -2.898   2.010  24.371  0.00  0.00    +0.102 A 
ATOM     21  N   UNL     1      -2.907   2.475  25.053  0.00  0.00    -0.082 NA
ATOM     22  O   UNL     1      -2.156   2.803  25.147  0.00  0.00    -0.357 OA
BRANCH   5   4
ATOM      4  C   UNL     1      -0.891   2.736  24.401  0.00  0.00    +0.141 C 
BRANCH   4   2
ATOM      1  C   UNL     1       0.110   1.718  24.443  0.00  0.00    +0.090 C 
ATOM      2  N   UNL     1      -0.299   2.333  24.810  0.00  0.00    -0.264 NA
ATOM      3  C   UNL     1      -0.116   2.545  25.586  0.00  0.00    +0.090 C 
ENDBRANCH   4   2
ENDBRANCH   5   4
ENDBRANCH   8   7
ENDBRANCH   9   8
BRANCH   9  13
ATOM     13  N   UNL     1      -3.894   0.663  24.696  0.00  0.00    -0.211 NA
BRANCH  13  14
ATOM     14  C   UNL     1      -4.397   0.010  24.649  0.00  0.00    +0.117 C 
BRANCH  14  15
ATOM     15  C   UNL     1      -4.088  -0.752  24.713  0.00  0.00    +0.014 A 
ATOM     16  C   UNL     1      -4.138  -1.271  24.073  0.00  0.00    +0.000 A 
ATOM     17  C   UNL     1      -3.830  -2.034  24.136  0.00  0.00    +0.020 A 
ATOM     18  C   UNL     1      -3.472  -2.277  24.838  0.00  0.00    +0.099 A 
ATOM     19  N   UNL     1      -3.422  -1.758  25.478  0.00  0.00    -0.243 NA
ATOM     20  C   UNL     1      -3.731  -0.996  25.414  0.00  0.00    +0.096 A 
ENDBRANCH  14  15
ENDBRANCH  13  14
ENDBRANCH   9  13
TORSDOF 7
ENDMDL
MODEL 2
REMARK VINA RESULT:      -8.5      1.781      4.209
REMARK  Name = 
REMARK  7 active torsions:
REMARK  status: ('A' for Active; 'I' for Inactive)
REMARK    1  A    between atoms: N_2  and  C_4
REMARK    2  A    between atoms: C_4  and  C_5
REMARK    3  A    between atoms: C_7  and  C_8
REMARK    4  A    between atoms: C_8  and  C_9
REMARK    5  A    between atoms: C_9  and  N_13
REMARK    6  A    between atoms: N_13  and  C_14
REMARK    7  A    between atoms: C_14  and  C_15
REMARK                            x       y       z     vdW  Elec       q    Type
REMARK                         _______ _______ _______ _____ _____    ______ ____
ROOT
ATOM      9  C   UNL     1      -5.030   2.111  25.111  0.00  0.00    +0.120 C 
ATOM     10  C   UNL     1      -5.389   2.581  25.688  0.00  0.00    +0.161 C 
ATOM     11  O   UNL     1      -6.111   2.210  25.540  0.00  0.00    -0.351 OA
ATOM     12  C   UNL     1      -5.753   1.741  24.964  0.00  0.00    +0.161 C 
ENDROOT
BRANCH   9   8
ATOM      8  C   UNL     1      -4.672   1.642  24.535  0.00  0.00    +0.070 C 
BRANCH   8   7
ATOM      5  C   UNL     1      -3.830  -0.317  24.653  0.00  0.00    +0.170 A 
ATOM      6  C   UNL     1      -3.944   0.396  24.254  0.00  0.00    +0.055 A 
ATOM      7  C   UNL     1      -4.421   0.878  24.723  0.00  0.00    +0.102 A 
ATOM     21  N   UNL     1      -4.603   0.465  25.412  0.00  0.00    -0.082 NA
ATOM     22  O   UNL     1      -4.238  -0.274  25.370  0.00  0.00    -0.357 OA
BRANCH   5   4
ATOM      4  C   UNL     1      -3.388  -0.959  24.385  0.00  0.00    +0.141 C 
BRANCH   4   2
ATOM      1  C   UNL     1      -3.459  -2.206  25.077  0.00  0.00    +0.090 C 
ATOM      2  N   UNL     1      -3.690  -1.724  24.449  0.00  0.00    -0.264 NA
ATOM      3  C   UNL     1      -4.221  -2.006  23.885  0.00  0.00    +0.090 C 
ENDBRANCH   4   2
ENDBRANCH   5   4
ENDBRANCH   8   7
ENDBRANCH   9   8
BRANCH   9  13
ATOM     13  N   UNL     1      -4.308   2.482  25.259  0.00  0.00    -0.211 NA
BRANCH  13  14
ATOM     14  C   UNL     1      -4.253   3.304  25.226  0.00  0.00    +0.117 C 
BRANCH  14  15
ATOM     15  C   UNL     1      -3.518   3.671  25.300  0.00  0.00    +0.014 A 
ATOM     16  C   UNL     1      -3.202   3.811  26.049  0.00  0.00    +0.000 A 
ATOM     17  C   UNL     1      -2.466   4.178  26.125  0.00  0.00    +0.020 A 
ATOM     18  C   UNL     1      -2.048   4.405  25.451  0.00  0.00    +0.099 A 
ATOM     19  N   UNL     1      -2.364   4.265  24.702  0.00  0.00    -0.243 NA
ATOM     20  C   UNL     1      -3.100   3.898  24.627  0.00  0.00    +0.096 A 
ENDBRANCH  14  15
ENDBRANCH  13  14
ENDBRANCH   9  13
TORSDOF 7
ENDMDL
MODEL 3
REMARK VINA RESULT:      -8.0      1.313      2.871
REMARK  Name = 
REMARK  7 active torsions:
REMARK  status: ('A' for Active; 'I' for Inactive)
REMARK    1  A    between atoms: N_2  and  C_4
REMARK    2  A    between atoms: C_4  and  C_5
REMARK    3  A    between atoms: C_7  and  C_8
REMARK    4  A    between atoms: C_8  and  C_9
REMARK    5  A    between atoms: C_9  and  N_13
REMARK    6  A    between atoms: N_13  and  C_14
REMARK    7  A    between atoms: C_14  and  C_15
REMARK                            x       y       z     vdW  Elec       q    Type
REMARK                         _______ _______ _______ _____ _____    ______ ____
ROOT
ATOM      9  C   UNL     1      -1.734   0.790  24.923  0.00  0.00    +0.120 C 
ATOM     10  C   UNL     1      -1.246   0.468  25.506  0.00  0.00    +0.161 C 
ATOM     11  O   UNL     1      -0.725   1.102  25.418  0.00  0.00    -0.351 OA
ATOM     12  C   UNL     1      -1.212   1.423  24.836  0.00  0.00    +0.161 C 
ENDROOT
BRANCH   9   8
ATOM      8  C   UNL     1      -2.222   1.111  24.341  0.00  0.00    +0.070 C 
BRANCH   8   7
ATOM      5  C   UNL     1      -3.882   2.431  24.585  0.00  0.00    +0.170 A 
ATOM      6  C   UNL     1      -3.534   1.766  24.241  0.00  0.00    +0.055 A 
ATOM      7  C   UNL     1      -2.767   1.698  24.537  0.00  0.00    +0.102 A 
ATOM     21  N   UNL     1      -2.641   2.320  25.064  0.00  0.00    -0.082 NA
ATOM     22  O   UNL     1      -3.330   2.773  25.093  0.00  0.00    -0.357 OA
BRANCH   5   4
ATOM      4  C   UNL     1      -4.647   2.705  24.445  0.00  0.00    +0.141 C 
BRANCH   4   2
ATOM      1  C   UNL     1      -5.687   1.943  25.061  0.00  0.00    +0.090 C 
ATOM      2  N   UNL     1      -5.227   2.627  25.027  0.00  0.00    -0.264 NA
ATOM      3  C   UNL     1      -5.345   3.232  25.574  0.00  0.00    +0.090 C 
ENDBRANCH   4   2
ENDBRANCH   5   4
ENDBRANCH   8   7
ENDBRANCH   9   8
BRANCH   9  13
ATOM     13  N   UNL     1      -2.255   0.156  25.011  0.00  0.00    -0.211 NA
BRANCH  13  14
ATOM     14  C   UNL     1      -1.961  -0.609  25.107  0.00  0.00    +0.117 C 
BRANCH  14  15
ATOM     15  C   UNL     1      -2.473  -1.255  25.069  0.00  0.00    +0.014 A 
ATOM     16  C   UNL     1      -2.373  -1.826  24.482  0.00  0.00    +0.000 A 
ATOM     17  C   UNL     1      -2.884  -2.472  24.443  0.00  0.00    +0.020 A 
ATOM     18  C   UNL     1      -3.495  -2.547  24.993  0.00  0.00    +0.099 A 
ATOM     19  N   UNL     1      -3.595  -1.976  25.580  0.00  0.00    -0.243 NA
ATOM     20  C   UNL     1      -3.083  -1.330  25.617  0.00  0.00    +0.096 A 
ENDBRANCH  14  15
ENDBRANCH  13  14
ENDBRANCH   9  13
TORSDOF 7
ENDMDL
MODEL 4
REMARK VINA RESULT:      -7.9      0.981      4.072
REMARK  Name = 
REMARK  7 active torsions:
REMARK  status: ('A' for Active; 'I' for Inactive)
REMARK    1  A    between atoms: N_2  and  C_4
REMARK    2  A    between atoms: C_4  and  C_5
REMARK    3  A    between atoms: C_7  and  C_8
REMARK    4  A    between atoms: C_8  and  C_9
REMARK    5  A    between atoms: C_9  and  N_13
REMARK    6  A    between atoms: N_13  and  C_14
REMARK    7  A    between atoms: C_14  and  C_15
REMARK                            x       y       z     vdW  Elec       q    Type
REMARK                         _______ _______ _______ _____ _____    ______ ____
ROOT
ATOM      9  C   UNL     1      -3.392   2.072  24.384  0.00  0.00    +0.120 C 
ATOM     10  C   UNL     1      -3.199   2.671  23.849  0.00  0.00    +0.161 C 
ATOM     11  O   UNL     1      -3.996   2.753  23.655  0.00  0.00    -0.351 OA
ATOM     12  C   UNL     1      -4.189   2.156  24.189  0.00  0.00    +0.161 C 
ENDROOT
BRANCH   9   8
ATOM      8  C   UNL     1      -3.585   1.475  24.919  0.00  0.00    +0.070 C 
BRANCH   8   7
ATOM      5  C   UNL     1      -3.880  -0.619  24.628  0.00  0.00    +0.170 A 
ATOM      6  C   UNL     1      -3.762   0.030  25.123  0.00  0.00    +0.055 A 
ATOM      7  C   UNL     1      -3.704   0.704  24.651  0.00  0.00    +0.102 A 
ATOM     21  N   UNL     1      -3.788   0.473  23.864  0.00  0.00    -0.082 NA
ATOM     22  O   UNL     1      -3.897  -0.345  23.850  0.00  0.00    -0.357 OA
BRANCH   5   4
ATOM      4  C   UNL     1      -3.968  -1.403  24.868  0.00  0.00    +0.141 C 
BRANCH   4   2
ATOM      1  C   UNL     1      -2.830  -2.205  24.548  0.00  0.00    +0.090 C 
ATOM      2  N   UNL     1      -3.622  -2.010  24.429  0.00  0.00    -0.264 NA
ATOM      3  C   UNL     1      -4.070  -2.422  23.871  0.00  0.00    +0.090 C 
ENDBRANCH   4   2
ENDBRANCH   5   4
ENDBRANCH   8   7
ENDBRANCH   9   8
BRANCH   9  13
ATOM     13  N   UNL     1      -2.594   1.990  24.579  0.00  0.00    -0.211 NA
BRANCH  13  14
ATOM     14  C   UNL     1      -2.143   2.657  24.758  0.00  0.00    +0.117 C 
BRANCH  14  15
ATOM     15  C   UNL     1      -1.374   2.568  25.046  0.00  0.00    +0.014 A 
ATOM     16  C   UNL     1      -1.204   2.756  25.831  0.00  0.00    +0.000 A 
ATOM     17  C   UNL     1      -0.436   2.668  26.120  0.00  0.00    +0.020 A 
ATOM     18  C   UNL     1       0.162   2.393  25.622  0.00  0.00    +0.099 A 
ATOM     19  N   UNL     1      -0.008   2.205  24.836  0.00  0.00    -0.243 NA
ATOM     20  C   UNL     1      -0.777   2.294  24.549  0.00  0.00    +0.096 A 
ENDBRANCH  14  15
ENDBRANCH  13  14
ENDBRANCH   9  13
TORSDOF 7
ENDMDL
MODEL 5
REMARK VINA RESULT:      -7.9      1.815      3.382
REMARK  Name = 
REMARK  7 active torsions:
REMARK  status: ('A' for Active; 'I' for Inactive)
REMARK    1  A    between atoms: N_2  and  C_4
REMARK    2  A    between atoms: C_4  and  C_5
REMARK    3  A    between atoms: C_7  and  C_8
REMARK    4  A    between atoms: C_8  and  C_9
REMARK    5  A    between atoms: C_9  and  N_13
REMARK    6  A    between atoms: N_13  and  C_14
REMARK    7  A    between atoms: C_14  and  C_15
REMARK                            x       y       z     vdW  Elec       q    Type
REMARK                         _______ _______ _______ _____ _____    ______ ____
ROOT
ATOM      9  C   UNL     1      -2.564   1.986  23.796  0.00  0.00    +0.120 C 
ATOM     10  C   UNL     1      -3.037   1.971  23.119  0.00  0.00    +0.161 C 
ATOM     11  O   UNL     1      -2.360   1.966  22.647  0.00  0.00    -0.351 OA
ATOM     12  C   UNL     1      -1.888   1.982  23.323  0.00  0.00    +0.161 C 
ENDROOT
BRANCH   9   8
ATOM      8  C   UNL     1      -2.092   2.002  24.472  0.00  0.00    +0.070 C 
BRANCH   8   7
ATOM      5  C   UNL     1      -1.270   0.174  25.208  0.00  0.00    +0.170 A 
ATOM      6  C   UNL     1      -1.895   0.710  25.144  0.00  0.00    +0.055 A 
ATOM      7  C   UNL     1      -1.643   1.341  24.677  0.00  0.00    +0.102 A 
ATOM     21  N   UNL     1      -0.863   1.197  24.451  0.00  0.00    -0.082 NA
ATOM     22  O   UNL     1      -0.633   0.475  24.779  0.00  0.00    -0.357 OA
BRANCH   5   4
ATOM      4  C   UNL     1      -1.281  -0.537  25.625  0.00  0.00    +0.141 C 
BRANCH   4   2
ATOM      1  C   UNL     1      -0.441  -1.596  25.165  0.00  0.00    +0.090 C 
ATOM      2  N   UNL     1      -1.189  -1.252  25.225  0.00  0.00    -0.264 NA
ATOM      3  C   UNL     1      -1.843  -1.623  24.886  0.00  0.00    +0.090 C 
ENDBRANCH   4   2
ENDBRANCH   5   4
ENDBRANCH   8   7
ENDBRANCH   9   8
BRANCH   9  13
ATOM     13  N   UNL     1      -3.241   1.991  24.268  0.00  0.00    -0.211 NA
BRANCH  13  14
ATOM     14  C   UNL     1      -3.858   2.512  24.098  0.00  0.00    +0.117 C 
BRANCH  14  15
ATOM     15  C   UNL     1      -4.484   2.595  24.628  0.00  0.00    +0.014 A 
ATOM     16  C   UNL     1      -5.071   2.016  24.666  0.00  0.00    +0.000 A 
ATOM     17  C   UNL     1      -5.698   2.098  25.196  0.00  0.00    +0.020 A 
ATOM     18  C   UNL     1      -5.738   2.760  25.688  0.00  0.00    +0.099 A 
ATOM     19  N   UNL     1      -5.151   3.339  25.650  0.00  0.00    -0.243 NA
ATOM     20  C   UNL     1      -4.524   3.256  25.119  0.00  0.00    +0.096 A 
ENDBRANCH  14  15
ENDBRANCH  13  14
ENDBRANCH   9  13
TORSDOF 7
ENDMDL
