MODEL 1
REMARK VINA RESULT:     -13.6      0.000      0.000
REMARK  Name = 
REMARK  3 active torsions:
REMARK  status: ('A' for Active; 'I' for Inactive)
REMARK    1  A    between atoms: C_2  and  C_5
REMARK    2  A    between atoms: C_12  and  C_14
REMARK    3  A    between atoms: N_21  and  C_22
REMARK                            x       y       z     vdW  Elec       q    Type
REMARK                         _______ _______ _______ _____ _____    ______ ____
ROOT
ATOM     14  C   UNL     1      -3.393   1.814  24.940  0.00  0.00    +0.080 C 
ATOM     15  C   UNL     1      -4.207   1.679  24.935  0.00  0.00    +0.031 C 
ATOM     16  C   UNL     1      -4.331   0.870  24.828  0.00  0.00    +0.096 C 
ATOM     17  N   UNL     1      -3.594   0.505  24.766  0.00  0.00    -0.262 N 
ATOM     18  C   UNL     1      -3.014   1.089  24.835  0.00  0.00    +0.103 C 
ATOM     19  C   UNL     1      -3.460  -0.301  24.655  0.00  0.00    +0.327 C 
ATOM     20  O   UNL     1      -2.687  -0.588  24.603  0.00  0.00    -0.250 OA
ATOM     21  N   UNL     1      -4.097  -0.821  24.595  0.00  0.00    -0.162 NA
ENDROOT
BRANCH  14  12
ATOM      5  C   UNL     1      -1.504   4.812  25.093  0.00  0.00    +0.073 A 
ATOM      6  C   UNL     1      -1.516   4.054  24.770  0.00  0.00    +0.025 A 
ATOM      7  C   UNL     1      -2.145   3.545  24.932  0.00  0.00    +0.100 A 
ATOM      8  C   UNL     1      -2.763   3.796  25.419  0.00  0.00    +0.100 A 
ATOM      9  C   UNL     1      -2.751   4.555  25.743  0.00  0.00    +0.021 A 
ATOM     10  C   UNL     1      -2.122   5.063  25.580  0.00  0.00    +0.005 A 
ATOM     11  N   UNL     1      -3.305   3.178  25.481  0.00  0.00    -0.229 NA
ATOM     12  C   UNL     1      -3.023   2.545  25.033  0.00  0.00    +0.140 A 
ATOM     13  N   UNL     1      -2.306   2.773  24.694  0.00  0.00    -0.229 NA
BRANCH   5   2
ATOM      1  F   UNL     1      -0.246   5.829  24.768  0.00  0.00    -0.166 F 
ATOM      2  C   UNL     1      -0.876   5.320  24.931  0.00  0.00    +0.419 C 
ATOM      3  F   UNL     1      -1.393   5.963  24.933  0.00  0.00    -0.166 F 
ATOM      4  F   UNL     1      -0.357   4.679  24.929  0.00  0.00    -0.166 F 
ENDBRANCH   5   2
ENDBRANCH  14  12
BRANCH  21  22
ATOM     22  C   UNL     1      -3.963  -1.627  24.483  0.00  0.00    +0.075 A 
ATOM     23  C   UNL     1      -3.593  -2.069  25.074  0.00  0.00    +0.017 A 
ATOM     24  C   UNL     1      -3.458  -2.876  24.963  0.00  0.00    +0.001 A 
ATOM     25  C   UNL     1      -3.694  -3.240  24.261  0.00  0.00    +0.000 A 
ATOM     26  C   UNL     1      -4.063  -2.798  23.671  0.00  0.00    +0.001 A 
ATOM     27  C   UNL     1      -4.198  -1.992  23.782  0.00  0.00    +0.017 A 
ENDBRANCH  21  22
TORSDOF 3
ENDMDL
MODEL 2
REMARK VINA RESULT:     -13.0      3.279      6.396
REMARK  Name = 
REMARK  3 active torsions:
REMARK  status: ('A' for Active; 'I' for Inactive)
REMARK    1  A    between atoms: C_2  and  C_5
REMARK    2  A    between atoms: C_12  and  C_14
REMARK    3  A    between atoms: N_21  and  C_22
REMARK                            x       y       z     vdW  Elec       q    Type
REMARK                         _______ _______ _______ _____ _____    ______ ____
ROOT
ATOM     14  C   UNL     1      -1.558   0.638  25.200  0.00  0.00    +0.080 C 
ATOM     15  C   UNL     1      -0.960   0.829  25.735  0.00  0.00    +0.031 C 
ATOM     16  C   UNL     1      -0.868   1.649  25.735  0.00  0.00    +0.096 C 
ATOM     17  N   UNL     1      -1.410   1.965  25.199  0.00  0.00    -0.262 N 
ATOM     18  C   UNL     1      -1.836   1.341  24.869  0.00  0.00    +0.103 C 
ATOM     19  C   UNL     1      -1.508   2.765  25.024  0.00  0.00    +0.327 C 
ATOM     20  O   UNL     1      -2.075   3.001  24.473  0.00  0.00    -0.250 OA
ATOM     21  N   UNL     1      -1.039   3.330  25.400  0.00  0.00    -0.162 NA
ENDROOT
BRANCH  14  12
ATOM      5  C   UNL     1      -3.111  -2.472  24.497  0.00  0.00    +0.073 A 
ATOM      6  C   UNL     1      -3.264  -1.684  24.684  0.00  0.00    +0.025 A 
ATOM      7  C   UNL     1      -2.639  -1.157  24.797  0.00  0.00    +0.100 A 
ATOM      8  C   UNL     1      -1.861  -1.420  24.723  0.00  0.00    +0.100 A 
ATOM      9  C   UNL     1      -1.707  -2.209  24.535  0.00  0.00    +0.021 A 
ATOM     10  C   UNL     1      -2.333  -2.735  24.423  0.00  0.00    +0.005 A 
ATOM     11  N   UNL     1      -1.361  -0.779  24.865  0.00  0.00    -0.229 NA
ATOM     12  C   UNL     1      -1.831  -0.121  25.027  0.00  0.00    +0.140 A 
ATOM     13  N   UNL     1      -2.620  -0.355  24.985  0.00  0.00    -0.229 NA
BRANCH   5   2
ATOM      1  F   UNL     1      -4.361  -3.526  24.272  0.00  0.00    -0.166 F 
ATOM      2  C   UNL     1      -3.736  -2.999  24.385  0.00  0.00    +0.419 C 
ATOM      3  F   UNL     1      -3.867  -2.683  23.634  0.00  0.00    -0.166 F 
ATOM      4  F   UNL     1      -3.606  -3.315  25.135  0.00  0.00    -0.166 F 
ENDBRANCH   5   2
ENDBRANCH  14  12
BRANCH  21  22
ATOM     22  C   UNL     1      -1.137   4.130  25.226  0.00  0.00    +0.075 A 
ATOM     23  C   UNL     1      -0.577   4.523  24.764  0.00  0.00    +0.017 A 
ATOM     24  C   UNL     1      -0.675   5.324  24.589  0.00  0.00    +0.001 A 
ATOM     25  C   UNL     1      -1.333   5.731  24.875  0.00  0.00    +0.000 A 
ATOM     26  C   UNL     1      -1.892   5.338  25.336  0.00  0.00    +0.001 A 
ATOM     27  C   UNL     1      -1.795   4.538  25.512  0.00  0.00    +0.017 A 
ENDBRANCH  21  22
TORSDOF 3
ENDMDL
MODEL 3
REMARK VINA RESULT:     -10.3      3.354      4.356
REMARK  Name = 
REMARK  3 active torsions:
REMARK  status: ('A' for Active; 'I' for Inactive)
REMARK    1  A    between atoms: C_2  and  C_5
REMARK    2  A    between atoms: C_12  and  C_14
REMARK    3  A    between atoms: N_21  and  C_22
REMARK                            x       y       z     vdW  Elec       q    Type
REMARK                         _______ _______ _______ _____ _____    ______ ____
ROOT
ATOM     14  C   UNL     1      -2.234   0.743  24.554  0.00  0.00    +0.080 C 
ATOM     15  C   UNL     1      -1.981   0.025  24.871  0.00  0.00    +0.031 C 
ATOM     16  C   UNL     1      -1.236  -0.145  24.558  0.00  0.00    +0.096 C 
ATOM     17  N   UNL     1      -1.029   0.469  24.048  0.00  0.00    -0.262 N 
ATOM     18  C   UNL     1      -1.645   1.018  24.046  0.00  0.00    +0.103 C 
ATOM     19  C   UNL     1      -0.329   0.525  23.616  0.00  0.00    +0.327 C 
ATOM     20  O   UNL     1      -0.197   1.175  23.125  0.00  0.00    -0.250 OA
ATOM     21  N   UNL     1       0.241  -0.069  23.674  0.00  0.00    -0.162 NA
ENDROOT
BRANCH  14  12
ATOM      5  C   UNL     1      -5.085   2.707  25.322  0.00  0.00    +0.073 A 
ATOM      6  C   UNL     1      -4.265   2.733  25.252  0.00  0.00    +0.025 A 
ATOM      7  C   UNL     1      -3.847   2.054  25.039  0.00  0.00    +0.100 A 
ATOM      8  C   UNL     1      -4.251   1.349  24.898  0.00  0.00    +0.100 A 
ATOM      9  C   UNL     1      -5.073   1.323  24.969  0.00  0.00    +0.021 A 
ATOM     10  C   UNL     1      -5.490   2.002  25.181  0.00  0.00    +0.005 A 
ATOM     11  N   UNL     1      -3.696   0.772  24.699  0.00  0.00    -0.229 NA
ATOM     12  C   UNL     1      -2.949   1.120  24.718  0.00  0.00    +0.140 A 
ATOM     13  N   UNL     1      -3.042   1.912  24.928  0.00  0.00    -0.229 NA
BRANCH   5   2
ATOM      1  F   UNL     1      -5.921   4.066  25.747  0.00  0.00    -0.166 F 
ATOM      2  C   UNL     1      -5.503   3.386  25.534  0.00  0.00    +0.419 C 
ATOM      3  F   UNL     1      -5.184   3.785  24.886  0.00  0.00    -0.166 F 
ATOM      4  F   UNL     1      -5.822   2.988  26.183  0.00  0.00    -0.166 F 
ENDBRANCH   5   2
ENDBRANCH  14  12
BRANCH  21  22
ATOM     22  C   UNL     1       0.941  -0.013  23.242  0.00  0.00    +0.075 A 
ATOM     23  C   UNL     1       1.565   0.447  23.526  0.00  0.00    +0.017 A 
ATOM     24  C   UNL     1       2.266   0.503  23.093  0.00  0.00    +0.001 A 
ATOM     25  C   UNL     1       2.342   0.099  22.378  0.00  0.00    +0.000 A 
ATOM     26  C   UNL     1       1.720  -0.361  22.095  0.00  0.00    +0.001 A 
ATOM     27  C   UNL     1       1.018  -0.417  22.527  0.00  0.00    +0.017 A 
ENDBRANCH  21  22
TORSDOF 3
ENDMDL
MODEL 4
REMARK VINA RESULT:     -10.0      3.775      4.941
REMARK  Name = 
REMARK  3 active torsions:
REMARK  status: ('A' for Active; 'I' for Inactive)
REMARK    1  A    between atoms: C_2  and  C_5
REMARK    2  A    between atoms: C_12  and  C_14
REMARK    3  A    between atoms: N_21  and  C_22
REMARK                            x       y       z     vdW  Elec       q    Type
REMARK                         _______ _______ _______ _____ _____    ______ ____
ROOT
ATOM     14  C   UNL     1      -0.690   0.640  24.213  0.00  0.00    +0.080 C 
ATOM     15  C   UNL     1      -0.934   0.262  24.904  0.00  0.00    +0.031 C 
ATOM     16  C   UNL     1      -1.696   0.522  25.082  0.00  0.00    +0.096 C 
ATOM     17  N   UNL     1      -1.923   1.061  24.501  0.00  0.00    -0.262 N 
ATOM     18  C   UNL     1      -1.301   1.135  23.964  0.00  0.00    +0.103 C 
ATOM     19  C   UNL     1      -2.645   1.458  24.463  0.00  0.00    +0.327 C 
ATOM     20  O   UNL     1      -2.795   1.985  23.846  0.00  0.00    -0.250 OA
ATOM     21  N   UNL     1      -3.218   1.329  25.043  0.00  0.00    -0.162 NA
ENDROOT
BRANCH  14  12
ATOM      5  C   UNL     1       2.580   0.518  22.843  0.00  0.00    +0.073 A 
ATOM      6  C   UNL     1       2.112   0.901  23.403  0.00  0.00    +0.025 A 
ATOM      7  C   UNL     1       1.320   0.689  23.494  0.00  0.00    +0.100 A 
ATOM      8  C   UNL     1       0.996   0.093  23.024  0.00  0.00    +0.100 A 
ATOM      9  C   UNL     1       1.465  -0.291  22.464  0.00  0.00    +0.021 A 
ATOM     10  C   UNL     1       2.257  -0.078  22.374  0.00  0.00    +0.005 A 
ATOM     11  N   UNL     1       0.205   0.002  23.236  0.00  0.00    -0.229 NA
ATOM     12  C   UNL     1       0.038   0.542  23.837  0.00  0.00    +0.140 A 
ATOM     13  N   UNL     1       0.727   0.966  23.996  0.00  0.00    -0.229 NA
BRANCH   5   2
ATOM      1  F   UNL     1       4.164   0.944  22.662  0.00  0.00    -0.166 F 
ATOM      2  C   UNL     1       3.372   0.731  22.753  0.00  0.00    +0.419 C 
ATOM      3  F   UNL     1       3.153   1.525  22.699  0.00  0.00    -0.166 F 
ATOM      4  F   UNL     1       3.591  -0.063  22.806  0.00  0.00    -0.166 F 
ENDBRANCH   5   2
ENDBRANCH  14  12
BRANCH  21  22
ATOM     22  C   UNL     1      -3.940   1.726  25.005  0.00  0.00    +0.075 A 
ATOM     23  C   UNL     1      -4.622   1.321  24.775  0.00  0.00    +0.017 A 
ATOM     24  C   UNL     1      -5.345   1.718  24.737  0.00  0.00    +0.001 A 
ATOM     25  C   UNL     1      -5.385   2.520  24.929  0.00  0.00    +0.000 A 
ATOM     26  C   UNL     1      -4.704   2.924  25.158  0.00  0.00    +0.001 A 
ATOM     27  C   UNL     1      -3.981   2.527  25.196  0.00  0.00    +0.017 A 
ENDBRANCH  21  22
TORSDOF 3
ENDMDL
