MODEL 1
REMARK VINA RESULT:     -10.4      0.000      0.000
REMARK  Name = 
REMARK  3 active torsions:
REMARK  status: ('A' for Active; 'I' for Inactive)
REMARK    1  A    between atoms: N_3  and  C_4
REMARK    2  A    between atoms: C_4  and  C_5
REMARK    3  A    between atoms: N_14  and  C_18
REMARK                            x       y       z     vdW  Elec       q    Type
REMARK                         _______ _______ _______ _____ _____    ______ ____
ROOT
ATOM      1  O   UNL     1      -5.378   2.042  25.254  0.00  0.00    -0.252 OA
ATOM      2  C   UNL     1      -4.580   1.961  25.060  0.00  0.00    +0.308 C 
ATOM      3  N   UNL     1      -4.219   1.278  24.769  0.00  0.00    -0.258 N 
ATOM     11  C   UNL     1      -3.418   1.444  24.652  0.00  0.00    +0.116 C 
ATOM     12  C   UNL     1      -3.286   2.228  24.870  0.00  0.00    +0.113 C 
ATOM     13  C   UNL     1      -2.604   2.693  24.871  0.00  0.00    +0.094 C 
ATOM     14  N   UNL     1      -2.640   3.476  25.125  0.00  0.00    -0.271 NA
ATOM     15  C   UNL     1      -3.358   3.796  25.377  0.00  0.00    +0.094 C 
ATOM     16  C   UNL     1      -4.040   3.332  25.376  0.00  0.00    +0.112 C 
ATOM     17  N   UNL     1      -4.004   2.547  25.122  0.00  0.00    -0.261 N 
ENDROOT
BRANCH  14  18
ATOM     18  C   UNL     1      -1.959   3.942  25.127  0.00  0.00    +0.058 C 
ATOM     19  C   UNL     1      -1.148   3.788  25.110  0.00  0.00    +0.016 C 
ATOM     20  C   UNL     1      -0.995   4.599  25.129  0.00  0.00    +0.003 C 
ATOM     21  C   UNL     1      -1.805   4.752  25.145  0.00  0.00    +0.016 C 
ENDBRANCH  14  18
BRANCH   3   4
ATOM      4  C   UNL     1      -4.591   0.557  24.622  0.00  0.00    +0.123 C 
BRANCH   4   5
ATOM      5  C   UNL     1      -4.187  -0.150  24.749  0.00  0.00    +0.017 A 
ATOM      6  C   UNL     1      -3.924  -0.596  24.105  0.00  0.00    +0.001 A 
ATOM      7  C   UNL     1      -3.519  -1.303  24.232  0.00  0.00    +0.020 A 
ATOM      8  C   UNL     1      -3.378  -1.566  25.001  0.00  0.00    +0.099 A 
ATOM      9  N   UNL     1      -3.641  -1.121  25.643  0.00  0.00    -0.243 NA
ATOM     10  C   UNL     1      -4.045  -0.413  25.518  0.00  0.00    +0.096 A 
ENDBRANCH   4   5
ENDBRANCH   3   4
TORSDOF 3
ENDMDL
MODEL 2
REMARK VINA RESULT:      -9.9      0.959      4.305
REMARK  Name = 
REMARK  3 active torsions:
REMARK  status: ('A' for Active; 'I' for Inactive)
REMARK    1  A    between atoms: N_3  and  C_4
REMARK    2  A    between atoms: C_4  and  C_5
REMARK    3  A    between atoms: N_14  and  C_18
REMARK                            x       y       z     vdW  Elec       q    Type
REMARK                         _______ _______ _______ _____ _____    ______ ____
ROOT
ATOM      1  O   UNL     1      -4.472   2.587  25.079  0.00  0.00    -0.252 OA
ATOM      2  C   UNL     1      -3.917   2.037  24.813  0.00  0.00    +0.308 C 
ATOM      3  N   UNL     1      -3.157   2.207  24.544  0.00  0.00    -0.258 N 
ATOM     11  C   UNL     1      -2.795   1.496  24.333  0.00  0.00    +0.116 C 
ATOM     12  C   UNL     1      -3.333   0.886  24.472  0.00  0.00    +0.113 C 
ATOM     13  C   UNL     1      -3.281   0.069  24.368  0.00  0.00    +0.094 C 
ATOM     14  N   UNL     1      -3.922  -0.413  24.559  0.00  0.00    -0.271 NA
ATOM     15  C   UNL     1      -4.616  -0.078  24.855  0.00  0.00    +0.094 C 
ATOM     16  C   UNL     1      -4.669   0.738  24.960  0.00  0.00    +0.112 C 
ATOM     17  N   UNL     1      -4.026   1.221  24.768  0.00  0.00    -0.261 N 
ENDROOT
BRANCH  14  18
ATOM     18  C   UNL     1      -3.871  -1.229  24.454  0.00  0.00    +0.058 C 
ATOM     19  C   UNL     1      -4.144  -1.762  23.886  0.00  0.00    +0.016 C 
ATOM     20  C   UNL     1      -3.799  -2.384  24.305  0.00  0.00    +0.003 C 
ATOM     21  C   UNL     1      -3.526  -1.851  24.872  0.00  0.00    +0.016 C 
ENDBRANCH  14  18
BRANCH   3   4
ATOM      4  C   UNL     1      -2.816   2.957  24.494  0.00  0.00    +0.123 C 
BRANCH   4   5
ATOM      5  C   UNL     1      -2.040   3.076  24.746  0.00  0.00    +0.017 A 
ATOM      6  C   UNL     1      -1.887   3.258  25.537  0.00  0.00    +0.001 A 
ATOM      7  C   UNL     1      -1.110   3.376  25.789  0.00  0.00    +0.020 A 
ATOM      8  C   UNL     1      -0.487   3.314  25.252  0.00  0.00    +0.099 A 
ATOM      9  N   UNL     1      -0.641   3.133  24.462  0.00  0.00    -0.243 NA
ATOM     10  C   UNL     1      -1.417   3.013  24.209  0.00  0.00    +0.096 A 
ENDBRANCH   4   5
ENDBRANCH   3   4
TORSDOF 3
ENDMDL
MODEL 3
REMARK VINA RESULT:      -9.7      1.634      4.438
REMARK  Name = 
REMARK  3 active torsions:
REMARK  status: ('A' for Active; 'I' for Inactive)
REMARK    1  A    between atoms: N_3  and  C_4
REMARK    2  A    between atoms: C_4  and  C_5
REMARK    3  A    between atoms: N_14  and  C_18
REMARK                            x       y       z     vdW  Elec       q    Type
REMARK                         _______ _______ _______ _____ _____    ______ ____
ROOT
ATOM      1  O   UNL     1      -2.014   1.823  24.070  0.00  0.00    -0.252 OA
ATOM      2  C   UNL     1      -2.695   1.370  24.177  0.00  0.00    +0.308 C 
ATOM      3  N   UNL     1      -3.468   1.656  24.199  0.00  0.00    -0.258 N 
ATOM     11  C   UNL     1      -3.974   1.014  24.316  0.00  0.00    +0.116 C 
ATOM     12  C   UNL     1      -3.513   0.333  24.366  0.00  0.00    +0.113 C 
ATOM     13  C   UNL     1      -3.710  -0.461  24.478  0.00  0.00    +0.094 C 
ATOM     14  N   UNL     1      -3.118  -1.033  24.505  0.00  0.00    -0.271 NA
ATOM     15  C   UNL     1      -2.327  -0.813  24.419  0.00  0.00    +0.094 C 
ATOM     16  C   UNL     1      -2.129  -0.021  24.306  0.00  0.00    +0.112 C 
ATOM     17  N   UNL     1      -2.722   0.553  24.280  0.00  0.00    -0.261 N 
ENDROOT
BRANCH  14  18
ATOM     18  C   UNL     1      -3.314  -1.827  24.617  0.00  0.00    +0.058 C 
ATOM     19  C   UNL     1      -3.666  -2.411  24.153  0.00  0.00    +0.016 C 
ATOM     20  C   UNL     1      -3.593  -2.948  24.776  0.00  0.00    +0.003 C 
ATOM     21  C   UNL     1      -3.242  -2.364  25.239  0.00  0.00    +0.016 C 
ENDBRANCH  14  18
BRANCH   3   4
ATOM      4  C   UNL     1      -3.697   2.445  24.119  0.00  0.00    +0.123 C 
BRANCH   4   5
ATOM      5  C   UNL     1      -4.169   2.799  24.695  0.00  0.00    +0.017 A 
ATOM      6  C   UNL     1      -4.990   2.720  24.661  0.00  0.00    +0.001 A 
ATOM      7  C   UNL     1      -5.462   3.074  25.238  0.00  0.00    +0.020 A 
ATOM      8  C   UNL     1      -5.114   3.506  25.848  0.00  0.00    +0.099 A 
ATOM      9  N   UNL     1      -4.294   3.585  25.882  0.00  0.00    -0.243 NA
ATOM     10  C   UNL     1      -3.821   3.232  25.306  0.00  0.00    +0.096 A 
ENDBRANCH   4   5
ENDBRANCH   3   4
TORSDOF 3
ENDMDL
MODEL 4
REMARK VINA RESULT:      -9.6      1.803      2.208
REMARK  Name = 
REMARK  3 active torsions:
REMARK  status: ('A' for Active; 'I' for Inactive)
REMARK    1  A    between atoms: N_3  and  C_4
REMARK    2  A    between atoms: C_4  and  C_5
REMARK    3  A    between atoms: N_14  and  C_18
REMARK                            x       y       z     vdW  Elec       q    Type
REMARK                         _______ _______ _______ _____ _____    ______ ____
ROOT
ATOM      1  O   UNL     1      -0.590   0.183  25.701  0.00  0.00    -0.252 OA
ATOM      2  C   UNL     1      -1.097   0.721  25.335  0.00  0.00    +0.308 C 
ATOM      3  N   UNL     1      -1.740   0.532  24.856  0.00  0.00    -0.258 N 
ATOM     11  C   UNL     1      -2.090   1.237  24.608  0.00  0.00    +0.116 C 
ATOM     12  C   UNL     1      -1.662   1.862  24.934  0.00  0.00    +0.113 C 
ATOM     13  C   UNL     1      -1.752   2.680  24.881  0.00  0.00    +0.094 C 
ATOM     14  N   UNL     1      -1.228   3.179  25.276  0.00  0.00    -0.271 NA
ATOM     15  C   UNL     1      -0.614   2.861  25.726  0.00  0.00    +0.094 C 
ATOM     16  C   UNL     1      -0.524   2.042  25.780  0.00  0.00    +0.112 C 
ATOM     17  N   UNL     1      -1.048   1.543  25.384  0.00  0.00    -0.261 N 
ENDROOT
BRANCH  14  18
ATOM     18  C   UNL     1      -1.317   3.998  25.223  0.00  0.00    +0.058 C 
ATOM     19  C   UNL     1      -0.837   4.622  24.976  0.00  0.00    +0.016 C 
ATOM     20  C   UNL     1      -1.443   5.155  25.148  0.00  0.00    +0.003 C 
ATOM     21  C   UNL     1      -1.923   4.532  25.394  0.00  0.00    +0.016 C 
ENDBRANCH  14  18
BRANCH   3   4
ATOM      4  C   UNL     1      -1.991  -0.229  24.658  0.00  0.00    +0.123 C 
BRANCH   4   5
ATOM      5  C   UNL     1      -2.793  -0.420  24.686  0.00  0.00    +0.017 A 
ATOM      6  C   UNL     1      -3.245  -0.403  23.995  0.00  0.00    +0.001 A 
ATOM      7  C   UNL     1      -4.047  -0.594  24.024  0.00  0.00    +0.020 A 
ATOM      8  C   UNL     1      -4.397  -0.802  24.741  0.00  0.00    +0.099 A 
ATOM      9  N   UNL     1      -3.946  -0.818  25.431  0.00  0.00    -0.243 NA
ATOM     10  C   UNL     1      -3.143  -0.627  25.404  0.00  0.00    +0.096 A 
ENDBRANCH   4   5
ENDBRANCH   3   4
TORSDOF 3
ENDMDL
MODEL 5
REMARK VINA RESULT:      -9.5      1.859      4.754
REMARK  Name = 
REMARK  3 active torsions:
REMARK  status: ('A' for Active; 'I' for Inactive)
REMARK    1  A    between atoms: N_3  and  C_4
REMARK    2  A    between atoms: C_4  and  C_5
REMARK    3  A    between atoms: N_14  and  C_18
REMARK                            x       y       z     vdW  Elec       q    Type
REMARK                         _______ _______ _______ _____ _____    ______ ____
ROOT
ATOM      1  O   UNL     1      -0.171   1.353  25.015  0.00  0.00    -0.252 OA
ATOM      2  C   UNL     1      -0.968   1.176  24.889  0.00  0.00    +0.308 C 
ATOM      3  N   UNL     1      -1.560   1.718  24.698  0.00  0.00    -0.258 N 
ATOM     11  C   UNL     1      -2.270   1.304  24.623  0.00  0.00    +0.116 C 
ATOM     12  C   UNL     1      -2.116   0.507  24.768  0.00  0.00    +0.113 C 
ATOM     13  C   UNL     1      -2.605  -0.158  24.772  0.00  0.00    +0.094 C 
ATOM     14  N   UNL     1      -2.289  -0.901  24.940  0.00  0.00    -0.271 NA
ATOM     15  C   UNL     1      -1.485  -0.980  25.105  0.00  0.00    +0.094 C 
ATOM     16  C   UNL     1      -0.995  -0.316  25.101  0.00  0.00    +0.112 C 
ATOM     17  N   UNL     1      -1.312   0.428  24.933  0.00  0.00    -0.261 N 
ENDROOT
BRANCH  14  18
ATOM     18  C   UNL     1      -2.778  -1.566  24.944  0.00  0.00    +0.058 C 
ATOM     19  C   UNL     1      -3.409  -1.822  25.409  0.00  0.00    +0.016 C 
ATOM     20  C   UNL     1      -3.468  -2.506  24.950  0.00  0.00    +0.003 C 
ATOM     21  C   UNL     1      -2.837  -2.250  24.487  0.00  0.00    +0.016 C 
ENDBRANCH  14  18
BRANCH   3   4
ATOM      4  C   UNL     1      -1.460   2.531  24.599  0.00  0.00    +0.123 C 
BRANCH   4   5
ATOM      5  C   UNL     1      -1.993   3.058  24.943  0.00  0.00    +0.017 A 
ATOM      6  C   UNL     1      -1.841   3.368  25.692  0.00  0.00    +0.001 A 
ATOM      7  C   UNL     1      -2.375   3.895  26.036  0.00  0.00    +0.020 A 
ATOM      8  C   UNL     1      -3.060   4.111  25.631  0.00  0.00    +0.099 A 
ATOM      9  N   UNL     1      -3.212   3.801  24.882  0.00  0.00    -0.243 NA
ATOM     10  C   UNL     1      -2.679   3.274  24.538  0.00  0.00    +0.096 A 
ENDBRANCH   4   5
ENDBRANCH   3   4
TORSDOF 3
ENDMDL
MODEL 6
REMARK VINA RESULT:      -9.1      1.643      2.455
REMARK  Name = 
REMARK  3 active torsions:
REMARK  status: ('A' for Active; 'I' for Inactive)
REMARK    1  A    between atoms: N_3  and  C_4
REMARK    2  A    between atoms: C_4  and  C_5
REMARK    3  A    between atoms: N_14  and  C_18
REMARK                            x       y       z     vdW  Elec       q    Type
REMARK                         _______ _______ _______ _____ _____    ______ ____
ROOT
ATOM      1  O   UNL     1      -1.708   0.817  24.158  0.00  0.00    -0.252 OA
ATOM      2  C   UNL     1      -2.519   0.772  24.305  0.00  0.00    +0.308 C 
ATOM      3  N   UNL     1      -2.991   0.102  24.211  0.00  0.00    -0.258 N 
ATOM     11  C   UNL     1      -3.764   0.305  24.419  0.00  0.00    +0.116 C 
ATOM     12  C   UNL     1      -3.768   1.099  24.641  0.00  0.00    +0.113 C 
ATOM     13  C   UNL     1      -4.373   1.597  24.898  0.00  0.00    +0.094 C 
ATOM     14  N   UNL     1      -4.209   2.384  25.084  0.00  0.00    -0.271 NA
ATOM     15  C   UNL     1      -3.440   2.672  25.014  0.00  0.00    +0.094 C 
ATOM     16  C   UNL     1      -2.834   2.175  24.757  0.00  0.00    +0.112 C 
ATOM     17  N   UNL     1      -2.999   1.388  24.570  0.00  0.00    -0.261 N 
ENDROOT
BRANCH  14  18
ATOM     18  C   UNL     1      -4.814   2.882  25.342  0.00  0.00    +0.058 C 
ATOM     19  C   UNL     1      -4.947   3.696  25.321  0.00  0.00    +0.016 C 
ATOM     20  C   UNL     1      -5.669   3.588  25.705  0.00  0.00    +0.003 C 
ATOM     21  C   UNL     1      -5.536   2.775  25.726  0.00  0.00    +0.016 C 
ENDBRANCH  14  18
BRANCH   3   4
ATOM      4  C   UNL     1      -2.736  -0.639  23.955  0.00  0.00    +0.123 C 
BRANCH   4   5
ATOM      5  C   UNL     1      -3.049  -1.323  24.294  0.00  0.00    +0.017 A 
ATOM      6  C   UNL     1      -3.671  -1.719  23.924  0.00  0.00    +0.001 A 
ATOM      7  C   UNL     1      -3.984  -2.403  24.263  0.00  0.00    +0.020 A 
ATOM      8  C   UNL     1      -3.675  -2.691  24.972  0.00  0.00    +0.099 A 
ATOM      9  N   UNL     1      -3.054  -2.295  25.341  0.00  0.00    -0.243 NA
ATOM     10  C   UNL     1      -2.740  -1.611  25.003  0.00  0.00    +0.096 A 
ENDBRANCH   4   5
ENDBRANCH   3   4
TORSDOF 3
ENDMDL
