MODEL 1
REMARK VINA RESULT:      -9.0      0.000      0.000
REMARK  Name = 
REMARK  6 active torsions:
REMARK  status: ('A' for Active; 'I' for Inactive)
REMARK    1  A    between atoms: C_2  and  O_5
REMARK    2  A    between atoms: O_5  and  C_6
REMARK    3  A    between atoms: C_9  and  N_10
REMARK    4  A    between atoms: N_20  and  C_21
REMARK    5  A    between atoms: C_21  and  C_22
REMARK    6  A    between atoms: C_22  and  N_23
REMARK                            x       y       z     vdW  Elec       q    Type
REMARK                         _______ _______ _______ _____ _____    ______ ____
ROOT
ATOM     10  N   UNL     1       0.810  -0.052  23.472  0.00  0.00    -0.162 NA
ATOM     11  C   UNL     1       0.242   0.542  23.536  0.00  0.00    +0.327 C 
ATOM     12  O   UNL     1       0.419   1.309  23.290  0.00  0.00    -0.250 OA
ATOM     13  N   UNL     1      -0.503   0.370  23.846  0.00  0.00    -0.263 N 
ATOM     14  C   UNL     1      -0.680  -0.398  24.092  0.00  0.00    +0.095 C 
ATOM     15  C   UNL     1      -1.424  -0.571  24.402  0.00  0.00    +0.022 C 
ATOM     16  C   UNL     1      -1.993   0.024  24.466  0.00  0.00    +0.012 C 
ATOM     17  C   UNL     1      -2.696  -0.265  24.788  0.00  0.00    +0.085 C 
ATOM     18  C   UNL     1      -3.395   0.144  24.944  0.00  0.00    +0.226 C 
ATOM     19  O   UNL     1      -4.006  -0.304  25.270  0.00  0.00    -0.275 OA
ATOM     20  N   UNL     1      -3.565   0.941  24.816  0.00  0.00    -0.278 N 
ATOM     29  C   UNL     1      -3.077   1.526  24.501  0.00  0.00    +0.094 C 
ATOM     30  C   UNL     1      -2.299   1.460  24.235  0.00  0.00    +0.023 C 
ATOM     31  C   UNL     1      -1.816   0.791  24.220  0.00  0.00    +0.022 C 
ATOM     32  C   UNL     1      -1.071   0.964  23.910  0.00  0.00    +0.095 C 
ENDROOT
BRANCH  10   9
ATOM      6  C   UNL     1       3.045   0.463  22.542  0.00  0.00    +0.147 A 
ATOM      7  C   UNL     1       2.790   0.836  23.232  0.00  0.00    +0.039 A 
ATOM      8  C   UNL     1       2.045   0.663  23.542  0.00  0.00    +0.020 A 
ATOM      9  C   UNL     1       1.555   0.120  23.162  0.00  0.00    +0.075 A 
ATOM     33  C   UNL     1       1.810  -0.253  22.472  0.00  0.00    +0.020 A 
ATOM     34  C   UNL     1       2.555  -0.082  22.161  0.00  0.00    +0.039 A 
BRANCH   6   5
ATOM      5  O   UNL     1       3.790   0.634  22.231  0.00  0.00    -0.404 OA
BRANCH   5   2
ATOM      1  F   UNL     1       5.088   0.790  23.236  0.00  0.00    -0.133 F 
ATOM      2  C   UNL     1       4.439   0.712  22.734  0.00  0.00    +0.575 C 
ATOM      3  F   UNL     1       4.566  -0.102  22.696  0.00  0.00    -0.133 F 
ATOM      4  F   UNL     1       4.312   1.527  22.772  0.00  0.00    -0.133 F 
ENDBRANCH   5   2
ENDBRANCH   6   5
ENDBRANCH  10   9
BRANCH  20  21
ATOM     21  C   UNL     1      -4.323   1.184  25.032  0.00  0.00    +0.115 C 
BRANCH  21  22
ATOM     22  C   UNL     1      -4.512   1.987  25.039  0.00  0.00    +0.117 C 
BRANCH  22  23
ATOM     23  N   UNL     1      -5.211   2.243  25.393  0.00  0.00    -0.259 N 
ATOM     24  C   UNL     1      -5.898   1.795  25.491  0.00  0.00    +0.118 C 
ATOM     25  C   UNL     1      -6.458   2.267  25.870  0.00  0.00    +0.138 C 
ATOM     26  N   UNL     1      -6.119   3.006  26.007  0.00  0.00    -0.187 NA
ATOM     27  C   UNL     1      -5.348   2.991  25.712  0.00  0.00    +0.323 C 
ATOM     28  O   UNL     1      -4.809   3.616  25.732  0.00  0.00    -0.251 OA
ENDBRANCH  22  23
ENDBRANCH  21  22
ENDBRANCH  20  21
TORSDOF 6
ENDMDL
MODEL 2
REMARK VINA RESULT:      -7.3     16.758     18.170
REMARK  Name = 
REMARK  6 active torsions:
REMARK  status: ('A' for Active; 'I' for Inactive)
REMARK    1  A    between atoms: C_2  and  O_5
REMARK    2  A    between atoms: O_5  and  C_6
REMARK    3  A    between atoms: C_9  and  N_10
REMARK    4  A    between atoms: N_20  and  C_21
REMARK    5  A    between atoms: C_21  and  C_22
REMARK    6  A    between atoms: C_22  and  N_23
REMARK                            x       y       z     vdW  Elec       q    Type
REMARK                         _______ _______ _______ _____ _____    ______ ____
ROOT
ATOM     10  N   UNL     1      -5.713  -9.137   9.467  0.00  0.00    -0.162 NA
ATOM     11  C   UNL     1      -5.652  -9.383  10.252  0.00  0.00    +0.327 C 
ATOM     12  O   UNL     1      -6.332  -9.480  10.707  0.00  0.00    -0.250 OA
ATOM     13  N   UNL     1      -4.910  -9.532  10.582  0.00  0.00    -0.263 N 
ATOM     14  C   UNL     1      -4.229  -9.435  10.126  0.00  0.00    +0.095 C 
ATOM     15  C   UNL     1      -3.488  -9.584  10.454  0.00  0.00    +0.022 C 
ATOM     16  C   UNL     1      -3.427  -9.830  11.240  0.00  0.00    +0.012 C 
ATOM     17  C   UNL     1      -2.640  -9.948  11.458  0.00  0.00    +0.085 C 
ATOM     18  C   UNL     1      -2.340 -10.192  12.187  0.00  0.00    +0.226 C 
ATOM     19  O   UNL     1      -1.519 -10.258  12.232  0.00  0.00    -0.275 OA
ATOM     20  N   UNL     1      -2.752 -10.378  12.877  0.00  0.00    -0.278 N 
ATOM     29  C   UNL     1      -3.566 -10.366  13.008  0.00  0.00    +0.094 C 
ATOM     30  C   UNL     1      -4.169 -10.166  12.483  0.00  0.00    +0.023 C 
ATOM     31  C   UNL     1      -4.107  -9.927  11.696  0.00  0.00    +0.022 C 
ATOM     32  C   UNL     1      -4.849  -9.778  11.366  0.00  0.00    +0.095 C 
ENDROOT
BRANCH  10   9
ATOM      6  C   UNL     1      -7.937  -8.691   8.477  0.00  0.00    +0.147 A 
ATOM      7  C   UNL     1      -7.437  -8.063   8.666  0.00  0.00    +0.039 A 
ATOM      8  C   UNL     1      -6.695  -8.213   8.996  0.00  0.00    +0.020 A 
ATOM      9  C   UNL     1      -6.454  -8.988   9.137  0.00  0.00    +0.075 A 
ATOM     33  C   UNL     1      -6.955  -9.616   8.948  0.00  0.00    +0.020 A 
ATOM     34  C   UNL     1      -7.696  -9.468   8.618  0.00  0.00    +0.039 A 
BRANCH   6   5
ATOM      5  O   UNL     1      -8.679  -8.544   8.148  0.00  0.00    -0.404 OA
BRANCH   5   2
ATOM      1  F   UNL     1     -10.025  -8.556   9.102  0.00  0.00    -0.133 F 
ATOM      2  C   UNL     1      -9.352  -8.550   8.625  0.00  0.00    +0.575 C 
ATOM      3  F   UNL     1      -9.414  -9.367   8.527  0.00  0.00    -0.133 F 
ATOM      4  F   UNL     1      -9.290  -7.733   8.723  0.00  0.00    -0.133 F 
ENDBRANCH   5   2
ENDBRANCH   6   5
ENDBRANCH  10   9
BRANCH  20  21
ATOM     21  C   UNL     1      -2.288 -10.606  13.520  0.00  0.00    +0.115 C 
BRANCH  21  22
ATOM     22  C   UNL     1      -2.637 -10.724  14.258  0.00  0.00    +0.117 C 
BRANCH  22  23
ATOM     23  N   UNL     1      -2.175 -10.703  14.941  0.00  0.00    -0.259 N 
ATOM     24  C   UNL     1      -1.353 -10.781  14.973  0.00  0.00    +0.118 C 
ATOM     25  C   UNL     1      -1.123 -10.726  15.764  0.00  0.00    +0.138 C 
ATOM     26  N   UNL     1      -1.802 -10.616  16.220  0.00  0.00    -0.187 NA
ATOM     27  C   UNL     1      -2.451 -10.602  15.711  0.00  0.00    +0.323 C 
ATOM     28  O   UNL     1      -3.240 -10.503  15.934  0.00  0.00    -0.251 OA
ENDBRANCH  22  23
ENDBRANCH  21  22
ENDBRANCH  20  21
TORSDOF 6
ENDMDL
MODEL 3
REMARK VINA RESULT:      -7.3      3.539      7.346
REMARK  Name = 
REMARK  6 active torsions:
REMARK  status: ('A' for Active; 'I' for Inactive)
REMARK    1  A    between atoms: C_2  and  O_5
REMARK    2  A    between atoms: O_5  and  C_6
REMARK    3  A    between atoms: C_9  and  N_10
REMARK    4  A    between atoms: N_20  and  C_21
REMARK    5  A    between atoms: C_21  and  C_22
REMARK    6  A    between atoms: C_22  and  N_23
REMARK                            x       y       z     vdW  Elec       q    Type
REMARK                         _______ _______ _______ _____ _____    ______ ____
ROOT
ATOM     10  N   UNL     1      -3.661   1.333  25.049  0.00  0.00    -0.162 NA
ATOM     11  C   UNL     1      -3.010   1.580  24.608  0.00  0.00    +0.327 C 
ATOM     12  O   UNL     1      -3.000   2.334  24.275  0.00  0.00    -0.250 OA
ATOM     13  N   UNL     1      -2.368   1.073  24.501  0.00  0.00    -0.263 N 
ATOM     14  C   UNL     1      -2.378   0.319  24.835  0.00  0.00    +0.095 C 
ATOM     15  C   UNL     1      -1.736  -0.189  24.728  0.00  0.00    +0.022 C 
ATOM     16  C   UNL     1      -1.084   0.059  24.286  0.00  0.00    +0.012 C 
ATOM     17  C   UNL     1      -0.506  -0.529  24.247  0.00  0.00    +0.085 C 
ATOM     18  C   UNL     1       0.224  -0.507  23.864  0.00  0.00    +0.226 C 
ATOM     19  O   UNL     1       0.681  -1.191  23.927  0.00  0.00    -0.275 OA
ATOM     20  N   UNL     1       0.557   0.107  23.426  0.00  0.00    -0.278 N 
ATOM     29  C   UNL     1       0.242   0.851  23.262  0.00  0.00    +0.094 C 
ATOM     30  C   UNL     1      -0.484   1.166  23.496  0.00  0.00    +0.023 C 
ATOM     31  C   UNL     1      -1.074   0.813  23.952  0.00  0.00    +0.022 C 
ATOM     32  C   UNL     1      -1.716   1.320  24.060  0.00  0.00    +0.095 C 
ENDROOT
BRANCH  10   9
ATOM      6  C   UNL     1      -5.588   2.853  25.372  0.00  0.00    +0.147 A 
ATOM      7  C   UNL     1      -4.889   2.979  25.791  0.00  0.00    +0.039 A 
ATOM      8  C   UNL     1      -4.247   2.472  25.683  0.00  0.00    +0.020 A 
ATOM      9  C   UNL     1      -4.303   1.840  25.157  0.00  0.00    +0.075 A 
ATOM     33  C   UNL     1      -5.003   1.714  24.738  0.00  0.00    +0.020 A 
ATOM     34  C   UNL     1      -5.645   2.220  24.845  0.00  0.00    +0.039 A 
BRANCH   6   5
ATOM      5  O   UNL     1      -6.231   3.359  25.478  0.00  0.00    -0.404 OA
BRANCH   5   2
ATOM      1  F   UNL     1      -5.988   4.984  25.629  0.00  0.00    -0.133 F 
ATOM      2  C   UNL     1      -6.109   4.171  25.554  0.00  0.00    +0.575 C 
ATOM      3  F   UNL     1      -5.894   4.212  24.758  0.00  0.00    -0.133 F 
ATOM      4  F   UNL     1      -6.324   4.130  26.349  0.00  0.00    -0.133 F 
ENDBRANCH   5   2
ENDBRANCH   6   5
ENDBRANCH  10   9
BRANCH  20  21
ATOM     21  C   UNL     1       1.304  -0.043  23.109  0.00  0.00    +0.115 C 
BRANCH  21  22
ATOM     22  C   UNL     1       1.858   0.564  23.055  0.00  0.00    +0.117 C 
BRANCH  22  23
ATOM     23  N   UNL     1       2.561   0.446  22.639  0.00  0.00    -0.259 N 
ATOM     24  C   UNL     1       2.665  -0.065  22.000  0.00  0.00    +0.118 C 
ATOM     25  C   UNL     1       3.451  -0.009  21.754  0.00  0.00    +0.138 C 
ATOM     26  N   UNL     1       3.832   0.537  22.242  0.00  0.00    -0.187 NA
ATOM     27  C   UNL     1       3.281   0.818  22.788  0.00  0.00    +0.323 C 
ATOM     28  O   UNL     1       3.427   1.374  23.381  0.00  0.00    -0.251 OA
ENDBRANCH  22  23
ENDBRANCH  21  22
ENDBRANCH  20  21
TORSDOF 6
ENDMDL
MODEL 4
REMARK VINA RESULT:      -7.1      3.528      7.484
REMARK  Name = 
REMARK  6 active torsions:
REMARK  status: ('A' for Active; 'I' for Inactive)
REMARK    1  A    between atoms: C_2  and  O_5
REMARK    2  A    between atoms: O_5  and  C_6
REMARK    3  A    between atoms: C_9  and  N_10
REMARK    4  A    between atoms: N_20  and  C_21
REMARK    5  A    between atoms: C_21  and  C_22
REMARK    6  A    between atoms: C_22  and  N_23
REMARK                            x       y       z     vdW  Elec       q    Type
REMARK                         _______ _______ _______ _____ _____    ______ ____
ROOT
ATOM     10  N   UNL     1      -2.099   1.612  24.161  0.00  0.00    -0.162 NA
ATOM     11  C   UNL     1      -1.323   1.888  24.111  0.00  0.00    +0.327 C 
ATOM     12  O   UNL     1      -1.148   2.666  24.324  0.00  0.00    -0.250 OA
ATOM     13  N   UNL     1      -0.723   1.388  23.848  0.00  0.00    -0.263 N 
ATOM     14  C   UNL     1      -0.898   0.610  23.634  0.00  0.00    +0.095 C 
ATOM     15  C   UNL     1      -0.299   0.109  23.371  0.00  0.00    +0.022 C 
ATOM     16  C   UNL     1       0.478   0.385  23.321  0.00  0.00    +0.012 C 
ATOM     17  C   UNL     1       0.989  -0.201  23.046  0.00  0.00    +0.085 C 
ATOM     18  C   UNL     1       1.802  -0.155  22.917  0.00  0.00    +0.226 C 
ATOM     19  O   UNL     1       2.160  -0.843  22.637  0.00  0.00    -0.275 OA
ATOM     20  N   UNL     1       2.305   0.489  23.030  0.00  0.00    -0.278 N 
ATOM     29  C   UNL     1       2.119   1.246  23.301  0.00  0.00    +0.094 C 
ATOM     30  C   UNL     1       1.384   1.546  23.525  0.00  0.00    +0.023 C 
ATOM     31  C   UNL     1       0.653   1.163  23.534  0.00  0.00    +0.022 C 
ATOM     32  C   UNL     1       0.053   1.663  23.797  0.00  0.00    +0.095 C 
ENDROOT
BRANCH  10   9
ATOM      6  C   UNL     1      -3.901   3.114  24.950  0.00  0.00    +0.147 A 
ATOM      7  C   UNL     1      -3.355   2.808  25.488  0.00  0.00    +0.039 A 
ATOM      8  C   UNL     1      -2.754   2.308  25.224  0.00  0.00    +0.020 A 
ATOM      9  C   UNL     1      -2.699   2.113  24.425  0.00  0.00    +0.075 A 
ATOM     33  C   UNL     1      -3.246   2.419  23.888  0.00  0.00    +0.020 A 
ATOM     34  C   UNL     1      -3.846   2.920  24.150  0.00  0.00    +0.039 A 
BRANCH   6   5
ATOM      5  O   UNL     1      -4.502   3.615  25.213  0.00  0.00    -0.404 OA
BRANCH   5   2
ATOM      1  F   UNL     1      -5.756   3.008  26.096  0.00  0.00    -0.133 F 
ATOM      2  C   UNL     1      -5.129   3.312  25.654  0.00  0.00    +0.575 C 
ATOM      3  F   UNL     1      -5.529   3.123  24.958  0.00  0.00    -0.133 F 
ATOM      4  F   UNL     1      -4.729   3.500  26.351  0.00  0.00    -0.133 F 
ENDBRANCH   5   2
ENDBRANCH   6   5
ENDBRANCH  10   9
BRANCH  20  21
ATOM     21  C   UNL     1       3.099   0.359  22.849  0.00  0.00    +0.115 C 
BRANCH  21  22
ATOM     22  C   UNL     1       3.689   0.676  23.331  0.00  0.00    +0.117 C 
BRANCH  22  23
ATOM     23  N   UNL     1       4.471   0.429  23.242  0.00  0.00    -0.259 N 
ATOM     24  C   UNL     1       4.822   0.171  22.541  0.00  0.00    +0.118 C 
ATOM     25  C   UNL     1       5.607  -0.022  22.705  0.00  0.00    +0.138 C 
ATOM     26  N   UNL     1       5.742   0.116  23.507  0.00  0.00    -0.187 NA
ATOM     27  C   UNL     1       5.039   0.395  23.839  0.00  0.00    +0.323 C 
ATOM     28  O   UNL     1       4.925   0.602  24.630  0.00  0.00    -0.251 OA
ENDBRANCH  22  23
ENDBRANCH  21  22
ENDBRANCH  20  21
TORSDOF 6
ENDMDL
