MODEL 1
REMARK VINA RESULT:     -11.0      0.000      0.000
REMARK  Name = 
REMARK  7 active torsions:
REMARK  status: ('A' for Active; 'I' for Inactive)
REMARK    1  A    between atoms: C_2  and  C_4
REMARK    2  A    between atoms: C_6  and  C_7
REMARK    3  A    between atoms: C_7  and  C_8
REMARK    4  A    between atoms: C_11  and  C_13
REMARK    5  A    between atoms: C_22  and  C_23
REMARK    6  A    between atoms: C_23  and  N_24
REMARK    7  A    between atoms: C_27  and  C_30
REMARK                            x       y       z     vdW  Elec       q    Type
REMARK                         _______ _______ _______ _____ _____    ______ ____
ROOT
ATOM      4  C   UNL     1      -4.909   1.536  24.766  0.00  0.00    +0.006 C 
ATOM      5  C   UNL     1      -4.626   2.242  24.446  0.00  0.00    +0.005 C 
ATOM      6  C   UNL     1      -3.988   2.230  23.923  0.00  0.00    +0.027 C 
ATOM     19  C   UNL     1      -3.633   1.513  23.720  0.00  0.00    -0.048 C 
ATOM     20  C   UNL     1      -2.996   1.502  23.197  0.00  0.00    +0.026 C 
ATOM     21  C   UNL     1      -3.918   0.808  24.041  0.00  0.00    -0.034 C 
ATOM     22  C   UNL     1      -4.555   0.819  24.563  0.00  0.00    +0.037 C 
ENDROOT
BRANCH   4   2
ATOM      1  C   UNL     1      -6.317   1.472  25.001  0.00  0.00    +0.000 C 
ATOM      2  C   UNL     1      -5.547   1.548  25.289  0.00  0.00    +0.000 C 
ATOM      3  C   UNL     1      -5.416   1.636  26.098  0.00  0.00    +0.000 C 
ENDBRANCH   4   2
BRANCH   6   7
ATOM      7  C   UNL     1      -3.704   2.936  23.603  0.00  0.00    +0.091 C 
BRANCH   7   8
ATOM      8  C   UNL     1      -3.290   3.467  24.078  0.00  0.00    +0.227 A 
ATOM      9  N   UNL     1      -3.623   4.057  24.549  0.00  0.00    -0.111 NA
ATOM     10  N   UNL     1      -3.008   4.457  24.928  0.00  0.00    -0.106 NA
ATOM     11  C   UNL     1      -2.296   4.114  24.690  0.00  0.00    +0.267 A 
ATOM     12  O   UNL     1      -2.471   3.502  24.165  0.00  0.00    -0.418 OA
BRANCH  11  13
ATOM     13  C   UNL     1      -1.543   4.343  24.935  0.00  0.00    +0.136 A 
ATOM     14  C   UNL     1      -1.142   5.025  24.698  0.00  0.00    +0.123 A 
ATOM     15  N   UNL     1      -0.408   5.033  25.076  0.00  0.00    -0.222 NA
ATOM     16  C   UNL     1      -0.356   4.357  25.546  0.00  0.00    +0.179 A 
ATOM     17  N   UNL     1      -1.057   3.930  25.459  0.00  0.00    -0.303 N 
ATOM     18  C   UNL     1      -1.239   3.217  25.830  0.00  0.00    +0.132 C 
ENDBRANCH  11  13
ENDBRANCH   7   8
ENDBRANCH   6   7
BRANCH  22  23
ATOM     23  C   UNL     1      -4.839   0.114  24.883  0.00  0.00    +0.076 C 
BRANCH  23  24
ATOM     24  N   UNL     1      -4.386  -0.575  24.830  0.00  0.00    -0.272 NA
ATOM     25  C   UNL     1      -3.848  -0.761  25.427  0.00  0.00    +0.073 C 
ATOM     26  C   UNL     1      -3.396  -1.449  25.374  0.00  0.00    +0.027 C 
ATOM     27  C   UNL     1      -3.483  -1.951  24.725  0.00  0.00    +0.083 C 
ATOM     28  C   UNL     1      -4.021  -1.764  24.129  0.00  0.00    +0.027 C 
ATOM     29  C   UNL     1      -4.473  -1.076  24.182  0.00  0.00    +0.073 C 
BRANCH  27  30
ATOM     30  C   UNL     1      -3.031  -2.638  24.672  0.00  0.00    +0.260 C 
ATOM     31  N   UNL     1      -2.269  -2.609  24.356  0.00  0.00    -0.088 NA
ATOM     32  O   UNL     1      -3.340  -3.357  24.934  0.00  0.00    -0.272 OA
ENDBRANCH  27  30
ENDBRANCH  23  24
ENDBRANCH  22  23
TORSDOF 7
ENDMDL
MODEL 2
REMARK VINA RESULT:     -10.3      1.185      4.927
REMARK  Name = 
REMARK  7 active torsions:
REMARK  status: ('A' for Active; 'I' for Inactive)
REMARK    1  A    between atoms: C_2  and  C_4
REMARK    2  A    between atoms: C_6  and  C_7
REMARK    3  A    between atoms: C_7  and  C_8
REMARK    4  A    between atoms: C_11  and  C_13
REMARK    5  A    between atoms: C_22  and  C_23
REMARK    6  A    between atoms: C_23  and  N_24
REMARK    7  A    between atoms: C_27  and  C_30
REMARK                            x       y       z     vdW  Elec       q    Type
REMARK                         _______ _______ _______ _____ _____    ______ ____
ROOT
ATOM      4  C   UNL     1      -4.748   1.705  24.889  0.00  0.00    +0.006 C 
ATOM      5  C   UNL     1      -4.695   0.950  24.561  0.00  0.00    +0.005 C 
ATOM      6  C   UNL     1      -4.101   0.779  24.013  0.00  0.00    +0.027 C 
ATOM     19  C   UNL     1      -3.561   1.363  23.794  0.00  0.00    -0.048 C 
ATOM     20  C   UNL     1      -2.968   1.192  23.247  0.00  0.00    +0.026 C 
ATOM     21  C   UNL     1      -3.615   2.118  24.123  0.00  0.00    -0.034 C 
ATOM     22  C   UNL     1      -4.208   2.290  24.670  0.00  0.00    +0.037 C 
ENDROOT
BRANCH   4   2
ATOM      1  C   UNL     1      -6.043   2.231  25.185  0.00  0.00    +0.000 C 
ATOM      2  C   UNL     1      -5.341   1.876  25.436  0.00  0.00    +0.000 C 
ATOM      3  C   UNL     1      -5.234   1.692  26.232  0.00  0.00    +0.000 C 
ENDBRANCH   4   2
BRANCH   6   7
ATOM      7  C   UNL     1      -4.048   0.024  23.685  0.00  0.00    +0.091 C 
BRANCH   7   8
ATOM      8  C   UNL     1      -3.702  -0.588  24.114  0.00  0.00    +0.227 A 
ATOM      9  N   UNL     1      -4.102  -1.142  24.578  0.00  0.00    -0.111 NA
ATOM     10  N   UNL     1      -3.543  -1.652  24.906  0.00  0.00    -0.106 NA
ATOM     11  C   UNL     1      -2.797  -1.414  24.645  0.00  0.00    +0.267 A 
ATOM     12  O   UNL     1      -2.896  -0.757  24.156  0.00  0.00    -0.418 OA
BRANCH  11  13
ATOM     13  C   UNL     1      -2.079  -1.770  24.839  0.00  0.00    +0.136 A 
ATOM     14  C   UNL     1      -1.771  -2.456  24.499  0.00  0.00    +0.123 A 
ATOM     15  N   UNL     1      -1.043  -2.613  24.856  0.00  0.00    -0.222 NA
ATOM     16  C   UNL     1      -0.902  -2.025  25.416  0.00  0.00    +0.179 A 
ATOM     17  N   UNL     1      -1.542  -1.503  25.406  0.00  0.00    -0.303 N 
ATOM     18  C   UNL     1      -1.630  -0.834  25.879  0.00  0.00    +0.132 C 
ENDBRANCH  11  13
ENDBRANCH   7   8
ENDBRANCH   6   7
BRANCH  22  23
ATOM     23  C   UNL     1      -4.261   3.044  24.998  0.00  0.00    +0.076 C 
BRANCH  23  24
ATOM     24  N   UNL     1      -3.590   3.523  25.043  0.00  0.00    -0.272 NA
ATOM     25  C   UNL     1      -3.093   3.474  25.700  0.00  0.00    +0.073 C 
ATOM     26  C   UNL     1      -2.422   3.953  25.746  0.00  0.00    +0.027 C 
ATOM     27  C   UNL     1      -2.248   4.479  25.134  0.00  0.00    +0.083 C 
ATOM     28  C   UNL     1      -2.746   4.527  24.478  0.00  0.00    +0.027 C 
ATOM     29  C   UNL     1      -3.416   4.048  24.432  0.00  0.00    +0.073 C 
BRANCH  27  30
ATOM     30  C   UNL     1      -1.578   4.957  25.180  0.00  0.00    +0.260 C 
ATOM     31  N   UNL     1      -0.828   4.625  25.091  0.00  0.00    -0.088 NA
ATOM     32  O   UNL     1      -1.657   5.767  25.313  0.00  0.00    -0.272 OA
ENDBRANCH  27  30
ENDBRANCH  23  24
ENDBRANCH  22  23
TORSDOF 7
ENDMDL
MODEL 3
REMARK VINA RESULT:     -10.0      2.188      5.075
REMARK  Name = 
REMARK  7 active torsions:
REMARK  status: ('A' for Active; 'I' for Inactive)
REMARK    1  A    between atoms: C_2  and  C_4
REMARK    2  A    between atoms: C_6  and  C_7
REMARK    3  A    between atoms: C_7  and  C_8
REMARK    4  A    between atoms: C_11  and  C_13
REMARK    5  A    between atoms: C_22  and  C_23
REMARK    6  A    between atoms: C_23  and  N_24
REMARK    7  A    between atoms: C_27  and  C_30
REMARK                            x       y       z     vdW  Elec       q    Type
REMARK                         _______ _______ _______ _____ _____    ______ ____
ROOT
ATOM      4  C   UNL     1      -1.328   3.043  24.678  0.00  0.00    +0.006 C 
ATOM      5  C   UNL     1      -0.963   2.450  24.236  0.00  0.00    +0.005 C 
ATOM      6  C   UNL     1      -1.399   2.023  23.679  0.00  0.00    +0.027 C 
ATOM     19  C   UNL     1      -2.199   2.191  23.566  0.00  0.00    -0.048 C 
ATOM     20  C   UNL     1      -2.634   1.765  23.010  0.00  0.00    +0.026 C 
ATOM     21  C   UNL     1      -2.563   2.784  24.009  0.00  0.00    -0.034 C 
ATOM     22  C   UNL     1      -2.127   3.211  24.564  0.00  0.00    +0.037 C 
ENDROOT
BRANCH   4   2
ATOM      1  C   UNL     1      -0.620   4.227  25.051  0.00  0.00    +0.000 C 
ATOM      2  C   UNL     1      -0.891   3.469  25.233  0.00  0.00    +0.000 C 
ATOM      3  C   UNL     1      -0.727   3.138  25.970  0.00  0.00    +0.000 C 
ENDBRANCH   4   2
BRANCH   6   7
ATOM      7  C   UNL     1      -1.035   1.430  23.237  0.00  0.00    +0.091 C 
BRANCH   7   8
ATOM      8  C   UNL     1      -0.770   0.743  23.608  0.00  0.00    +0.227 A 
ATOM      9  N   UNL     1       0.017   0.540  23.748  0.00  0.00    -0.111 NA
ATOM     10  N   UNL     1       0.028  -0.191  24.131  0.00  0.00    -0.106 NA
ATOM     11  C   UNL     1      -0.753  -0.440  24.227  0.00  0.00    +0.267 A 
ATOM     12  O   UNL     1      -1.246   0.137  23.903  0.00  0.00    -0.418 OA
BRANCH  11  13
ATOM     13  C   UNL     1      -0.998  -1.142  24.583  0.00  0.00    +0.136 A 
ATOM     14  C   UNL     1      -1.131  -1.861  24.198  0.00  0.00    +0.123 A 
ATOM     15  N   UNL     1      -1.368  -2.413  24.764  0.00  0.00    -0.222 NA
ATOM     16  C   UNL     1      -1.382  -2.036  25.498  0.00  0.00    +0.179 A 
ATOM     17  N   UNL     1      -1.153  -1.251  25.386  0.00  0.00    -0.303 N 
ATOM     18  C   UNL     1      -1.090  -0.676  25.974  0.00  0.00    +0.132 C 
ENDBRANCH  11  13
ENDBRANCH   7   8
ENDBRANCH   6   7
BRANCH  22  23
ATOM     23  C   UNL     1      -2.491   3.804  25.006  0.00  0.00    +0.076 C 
BRANCH  23  24
ATOM     24  N   UNL     1      -3.297   3.753  25.181  0.00  0.00    -0.272 NA
ATOM     25  C   UNL     1      -3.849   4.116  24.687  0.00  0.00    +0.073 C 
ATOM     26  C   UNL     1      -4.654   4.066  24.862  0.00  0.00    +0.027 C 
ATOM     27  C   UNL     1      -4.906   3.652  25.531  0.00  0.00    +0.083 C 
ATOM     28  C   UNL     1      -4.353   3.290  26.024  0.00  0.00    +0.027 C 
ATOM     29  C   UNL     1      -3.548   3.340  25.849  0.00  0.00    +0.073 C 
BRANCH  27  30
ATOM     30  C   UNL     1      -5.710   3.602  25.705  0.00  0.00    +0.260 C 
ATOM     31  N   UNL     1      -6.045   2.873  25.902  0.00  0.00    -0.088 NA
ATOM     32  O   UNL     1      -6.180   4.279  25.684  0.00  0.00    -0.272 OA
ENDBRANCH  27  30
ENDBRANCH  23  24
ENDBRANCH  22  23
TORSDOF 7
ENDMDL
MODEL 4
REMARK VINA RESULT:     -10.0      2.082      3.699
REMARK  Name = 
REMARK  7 active torsions:
REMARK  status: ('A' for Active; 'I' for Inactive)
REMARK    1  A    between atoms: C_2  and  C_4
REMARK    2  A    between atoms: C_6  and  C_7
REMARK    3  A    between atoms: C_7  and  C_8
REMARK    4  A    between atoms: C_11  and  C_13
REMARK    5  A    between atoms: C_22  and  C_23
REMARK    6  A    between atoms: C_23  and  N_24
REMARK    7  A    between atoms: C_27  and  C_30
REMARK                            x       y       z     vdW  Elec       q    Type
REMARK                         _______ _______ _______ _____ _____    ______ ____
ROOT
ATOM      4  C   UNL     1      -1.419   2.475  24.577  0.00  0.00    +0.006 C 
ATOM      5  C   UNL     1      -2.090   2.854  24.285  0.00  0.00    +0.005 C 
ATOM      6  C   UNL     1      -2.600   2.455  23.773  0.00  0.00    +0.027 C 
ATOM     19  C   UNL     1      -2.437   1.676  23.553  0.00  0.00    -0.048 C 
ATOM     20  C   UNL     1      -2.946   1.278  23.042  0.00  0.00    +0.026 C 
ATOM     21  C   UNL     1      -1.765   1.297  23.846  0.00  0.00    -0.034 C 
ATOM     22  C   UNL     1      -1.256   1.696  24.358  0.00  0.00    +0.037 C 
ENDROOT
BRANCH   4   2
ATOM      1  C   UNL     1      -1.085   2.915  25.895  0.00  0.00    +0.000 C 
ATOM      2  C   UNL     1      -0.910   2.874  25.089  0.00  0.00    +0.000 C 
ATOM      3  C   UNL     1      -0.228   3.233  24.796  0.00  0.00    +0.000 C 
ENDBRANCH   4   2
BRANCH   6   7
ATOM      7  C   UNL     1      -3.271   2.835  23.481  0.00  0.00    +0.091 C 
BRANCH   7   8
ATOM      8  C   UNL     1      -3.866   3.076  23.997  0.00  0.00    +0.227 A 
ATOM      9  N   UNL     1      -4.144   3.848  24.091  0.00  0.00    -0.111 NA
ATOM     10  N   UNL     1      -4.738   3.837  24.663  0.00  0.00    -0.106 NA
ATOM     11  C   UNL     1      -4.828   3.059  24.923  0.00  0.00    +0.267 A 
ATOM     12  O   UNL     1      -4.289   2.589  24.511  0.00  0.00    -0.418 OA
BRANCH  11  13
ATOM     13  C   UNL     1      -5.363   2.797  25.494  0.00  0.00    +0.136 A 
ATOM     14  C   UNL     1      -5.390   3.043  26.281  0.00  0.00    +0.123 A 
ATOM     15  N   UNL     1      -6.008   2.641  26.652  0.00  0.00    -0.222 NA
ATOM     16  C   UNL     1      -6.363   2.148  26.094  0.00  0.00    +0.179 A 
ATOM     17  N   UNL     1      -5.964   2.244  25.378  0.00  0.00    -0.303 N 
ATOM     18  C   UNL     1      -6.136   1.856  24.671  0.00  0.00    +0.132 C 
ENDBRANCH  11  13
ENDBRANCH   7   8
ENDBRANCH   6   7
BRANCH  22  23
ATOM     23  C   UNL     1      -0.585   1.317  24.650  0.00  0.00    +0.076 C 
BRANCH  23  24
ATOM     24  N   UNL     1      -0.588   0.498  24.760  0.00  0.00    -0.272 NA
ATOM     25  C   UNL     1      -0.232   0.006  24.202  0.00  0.00    +0.073 C 
ATOM     26  C   UNL     1      -0.235  -0.811  24.312  0.00  0.00    +0.027 C 
ATOM     27  C   UNL     1      -0.595  -1.137  24.981  0.00  0.00    +0.083 C 
ATOM     28  C   UNL     1      -0.951  -0.644  25.538  0.00  0.00    +0.027 C 
ATOM     29  C   UNL     1      -0.948   0.174  25.428  0.00  0.00    +0.073 C 
BRANCH  27  30
ATOM     30  C   UNL     1      -0.598  -1.953  25.091  0.00  0.00    +0.260 C 
ATOM     31  N   UNL     1      -1.228  -2.406  24.808  0.00  0.00    -0.088 NA
ATOM     32  O   UNL     1       0.029  -2.320  25.483  0.00  0.00    -0.272 OA
ENDBRANCH  27  30
ENDBRANCH  23  24
ENDBRANCH  22  23
TORSDOF 7
ENDMDL
MODEL 5
REMARK VINA RESULT:      -9.6      2.823      4.649
REMARK  Name = 
REMARK  7 active torsions:
REMARK  status: ('A' for Active; 'I' for Inactive)
REMARK    1  A    between atoms: C_2  and  C_4
REMARK    2  A    between atoms: C_6  and  C_7
REMARK    3  A    between atoms: C_7  and  C_8
REMARK    4  A    between atoms: C_11  and  C_13
REMARK    5  A    between atoms: C_22  and  C_23
REMARK    6  A    between atoms: C_23  and  N_24
REMARK    7  A    between atoms: C_27  and  C_30
REMARK                            x       y       z     vdW  Elec       q    Type
REMARK                         _______ _______ _______ _____ _____    ______ ____
ROOT
ATOM      4  C   UNL     1      -3.032  -0.124  24.620  0.00  0.00    +0.006 C 
ATOM      5  C   UNL     1      -2.241  -0.267  24.804  0.00  0.00    +0.005 C 
ATOM      6  C   UNL     1      -1.747   0.360  25.015  0.00  0.00    +0.027 C 
ATOM     19  C   UNL     1      -2.045   1.129  25.041  0.00  0.00    -0.048 C 
ATOM     20  C   UNL     1      -1.551   1.755  25.252  0.00  0.00    +0.026 C 
ATOM     21  C   UNL     1      -2.836   1.271  24.856  0.00  0.00    -0.034 C 
ATOM     22  C   UNL     1      -3.330   0.645  24.646  0.00  0.00    +0.037 C 
ENDROOT
BRANCH   4   2
ATOM      1  C   UNL     1      -3.842  -1.240  24.993  0.00  0.00    +0.000 C 
ATOM      2  C   UNL     1      -3.526  -0.751  24.409  0.00  0.00    +0.000 C 
ATOM      3  C   UNL     1      -3.702  -0.888  23.616  0.00  0.00    +0.000 C 
ENDBRANCH   4   2
BRANCH   6   7
ATOM      7  C   UNL     1      -0.956   0.216  25.200  0.00  0.00    +0.091 C 
BRANCH   7   8
ATOM      8  C   UNL     1      -0.469  -0.168  24.658  0.00  0.00    +0.227 A 
ATOM      9  N   UNL     1      -0.292  -0.974  24.652  0.00  0.00    -0.111 NA
ATOM     10  N   UNL     1       0.214  -1.119  24.016  0.00  0.00    -0.106 NA
ATOM     11  C   UNL     1       0.349  -0.403  23.629  0.00  0.00    +0.267 A 
ATOM     12  O   UNL     1      -0.074   0.185  24.026  0.00  0.00    -0.418 OA
BRANCH  11  13
ATOM     13  C   UNL     1       0.822  -0.293  22.963  0.00  0.00    +0.136 A 
ATOM     14  C   UNL     1       0.664  -0.575  22.203  0.00  0.00    +0.123 A 
ATOM     15  N   UNL     1       1.281  -0.338  21.709  0.00  0.00    -0.222 NA
ATOM     16  C   UNL     1       1.821   0.089  22.163  0.00  0.00    +0.179 A 
ATOM     17  N   UNL     1       1.537   0.117  22.938  0.00  0.00    -0.303 N 
ATOM     18  C   UNL     1       1.905   0.490  23.575  0.00  0.00    +0.132 C 
ENDBRANCH  11  13
ENDBRANCH   7   8
ENDBRANCH   6   7
BRANCH  22  23
ATOM     23  C   UNL     1      -4.121   0.787  24.461  0.00  0.00    +0.076 C 
BRANCH  23  24
ATOM     24  N   UNL     1      -4.486   1.482  24.719  0.00  0.00    -0.272 NA
ATOM     25  C   UNL     1      -4.904   1.488  25.430  0.00  0.00    +0.073 C 
ATOM     26  C   UNL     1      -5.269   2.181  25.688  0.00  0.00    +0.027 C 
ATOM     27  C   UNL     1      -5.216   2.869  25.234  0.00  0.00    +0.083 C 
ATOM     28  C   UNL     1      -4.798   2.862  24.523  0.00  0.00    +0.027 C 
ATOM     29  C   UNL     1      -4.433   2.168  24.265  0.00  0.00    +0.073 C 
BRANCH  27  30
ATOM     30  C   UNL     1      -5.581   3.562  25.491  0.00  0.00    +0.260 C 
ATOM     31  N   UNL     1      -5.191   4.286  25.417  0.00  0.00    -0.088 NA
ATOM     32  O   UNL     1      -6.336   3.532  25.822  0.00  0.00    -0.272 OA
ENDBRANCH  27  30
ENDBRANCH  23  24
ENDBRANCH  22  23
TORSDOF 7
ENDMDL
