REMARK  Name = 
REMARK  9 active torsions:
REMARK  status: ('A' for Active; 'I' for Inactive)
REMARK    1  A    between atoms: C_2  and  C_3
REMARK    2  A    between atoms: C_3  and  N_4
REMARK    3  A    between atoms: N_7  and  C_8
REMARK    4  A    between atoms: C_8  and  C_9
REMARK    5  A    between atoms: C_13  and  C_14
REMARK    6  A    between atoms: C_14  and  C_15
REMARK    7  A    between atoms: C_22  and  C_24
REMARK    8  A    between atoms: C_24  and  O_26
REMARK    9  A    between atoms: C_29  and  C_30
REMARK                            x       y       z     vdW  Elec       q    Type
REMARK                         _______ _______ _______ _____ _____    ______ ____
ROOT
ATOM      9  C   UNL     1      -2.893  -3.862   0.000  0.00  0.00    +0.043 C 
ATOM     10  C   UNL     1      -2.178  -3.449   0.000  0.00  0.00    -0.033 C 
ATOM     11  C   UNL     1      -1.464  -3.862   0.000  0.00  0.00    -0.048 C 
ATOM     12  C   UNL     1      -0.749  -3.449   0.000  0.00  0.00    +0.026 C 
ATOM     13  C   UNL     1      -1.464  -4.687   0.000  0.00  0.00    +0.026 C 
ATOM     28  C   UNL     1      -2.178  -5.099   0.000  0.00  0.00    +0.005 C 
ATOM     29  C   UNL     1      -2.893  -4.687   0.000  0.00  0.00    +0.006 C 
ENDROOT
BRANCH  29  30
ATOM     30  C   UNL     1      -3.607  -5.099   0.000  0.00  0.00    +0.000 C 
ATOM     31  C   UNL     1      -4.322  -4.687   0.000  0.00  0.00    +0.000 C 
ATOM     32  C   UNL     1      -3.607  -5.924   0.000  0.00  0.00    +0.000 C 
ENDBRANCH  29  30
BRANCH   9   8
ATOM      8  C   UNL     1      -3.607  -3.449   0.000  0.00  0.00    +0.121 C 
BRANCH   8   7
ATOM      4  N   UNL     1      -5.751  -3.862   0.000  0.00  0.00    -0.187 NA
ATOM      5  C   UNL     1      -5.036  -3.449   0.000  0.00  0.00    +0.339 C 
ATOM      6  O   UNL     1      -5.036  -2.624   0.000  0.00  0.00    -0.249 OA
ATOM      7  N   UNL     1      -4.322  -3.862   0.000  0.00  0.00    -0.187 NA
BRANCH   4   3
ATOM      3  C   UNL     1      -6.465  -3.449   0.000  0.00  0.00    +0.117 C 
BRANCH   3   2
ATOM      1  C   UNL     1      -7.894  -3.449   0.000  0.00  0.00    +0.002 C 
ATOM      2  C   UNL     1      -7.179  -3.862   0.000  0.00  0.00    +0.023 C 
ENDBRANCH   3   2
ENDBRANCH   4   3
ENDBRANCH   8   7
ENDBRANCH   9   8
BRANCH  13  14
ATOM     14  C   UNL     1      -0.749  -5.099   0.000  0.00  0.00    +0.070 C 
BRANCH  14  15
ATOM     15  C   UNL     1      -0.035  -4.687   0.000  0.00  0.00    +0.139 A 
ATOM     16  N   UNL     1       0.719  -5.022   0.000  0.00  0.00    -0.229 NA
ATOM     17  C   UNL     1       1.271  -4.409   0.000  0.00  0.00    +0.100 A 
ATOM     18  C   UNL     1       0.858  -3.695   0.000  0.00  0.00    +0.100 A 
ATOM     19  N   UNL     1       0.051  -3.866   0.000  0.00  0.00    -0.229 NA
ATOM     20  C   UNL     1       1.271  -2.980   0.000  0.00  0.00    +0.021 A 
ATOM     21  C   UNL     1       2.096  -2.980   0.000  0.00  0.00    +0.008 A 
ATOM     22  C   UNL     1       2.508  -3.695   0.000  0.00  0.00    +0.077 A 
ATOM     23  C   UNL     1       2.096  -4.409   0.000  0.00  0.00    +0.027 A 
BRANCH  22  24
ATOM     24  C   UNL     1       3.333  -3.695   0.000  0.00  0.00    +0.341 C 
ATOM     25  O   UNL     1       3.746  -2.980   0.000  0.00  0.00    -0.245 OA
BRANCH  24  26
ATOM     26  O   UNL     1       3.746  -4.409   0.000  0.00  0.00    -0.441 OA
ATOM     27  C   UNL     1       4.571  -4.409   0.000  0.00  0.00    +0.256 C 
ENDBRANCH  24  26
ENDBRANCH  22  24
ENDBRANCH  14  15
ENDBRANCH  13  14
TORSDOF 9
