MODEL 1
REMARK VINA RESULT:     -10.4      0.000      0.000
REMARK  Name = 
REMARK  5 active torsions:
REMARK  status: ('A' for Active; 'I' for Inactive)
REMARK    1  A    between atoms: C_2  and  N_3
REMARK    2  A    between atoms: C_2  and  C_22
REMARK    3  A    between atoms: C_4  and  C_6
REMARK    4  A    between atoms: C_8  and  N_9
REMARK    5  A    between atoms: C_10  and  C_12
REMARK                            x       y       z     vdW  Elec       q    Type
REMARK                         _______ _______ _______ _____ _____    ______ ____
ROOT
ATOM      6  C   UNL     1      -4.211   1.325  24.669  0.00  0.00    +0.033 C 
ATOM      7  C   UNL     1      -3.631   1.910  24.614  0.00  0.00    -0.002 C 
ATOM      8  C   UNL     1      -3.817   2.693  24.793  0.00  0.00    +0.150 C 
ATOM     17  C   UNL     1      -4.584   2.892  25.026  0.00  0.00    +0.206 C 
ATOM     18  O   UNL     1      -4.769   3.676  25.204  0.00  0.00    -0.218 OA
ATOM     19  C   UNL     1      -5.163   2.308  25.081  0.00  0.00    +0.189 C 
ATOM     20  O   UNL     1      -5.929   2.507  25.314  0.00  0.00    -0.220 OA
ATOM     21  C   UNL     1      -4.976   1.524  24.902  0.00  0.00    +0.066 C 
ENDROOT
BRANCH   6   4
ATOM      3  N   UNL     1      -3.946  -0.012  25.096  0.00  0.00    -0.194 NA
ATOM      4  C   UNL     1      -4.025   0.542  24.490  0.00  0.00    +0.261 C 
ATOM      5  O   UNL     1      -3.917   0.312  23.704  0.00  0.00    -0.269 OA
BRANCH   3   2
ATOM      1  C   UNL     1      -4.030  -1.135  24.215  0.00  0.00    +0.033 C 
ATOM      2  C   UNL     1      -3.759  -0.796  24.918  0.00  0.00    +0.175 C 
BRANCH   2  22
ATOM     22  C   UNL     1      -3.303  -1.241  25.441  0.00  0.00    +0.281 C 
ATOM     23  N   UNL     1      -2.620  -1.618  25.175  0.00  0.00    -0.086 NA
ATOM     24  O   UNL     1      -3.531  -1.310  26.231  0.00  0.00    -0.270 OA
ENDBRANCH   2  22
ENDBRANCH   3   2
ENDBRANCH   6   4
BRANCH   8   9
ATOM      9  N   UNL     1      -3.238   3.277  24.738  0.00  0.00    -0.196 NA
ATOM     10  C   UNL     1      -2.549   3.219  25.190  0.00  0.00    +0.271 C 
ATOM     11  O   UNL     1      -2.441   2.576  25.696  0.00  0.00    -0.268 OA
BRANCH  10  12
ATOM     12  C   UNL     1      -1.970   3.803  25.135  0.00  0.00    +0.084 A 
ATOM     13  C   UNL     1      -2.068   4.603  25.318  0.00  0.00    +0.012 A 
ATOM     14  C   UNL     1      -1.349   4.985  25.184  0.00  0.00    +0.008 A 
ATOM     15  C   UNL     1      -0.806   4.422  24.919  0.00  0.00    +0.036 A 
ATOM     16  S   UNL     1      -1.190   3.692  24.889  0.00  0.00    -0.082 S 
ENDBRANCH  10  12
ENDBRANCH   8   9
TORSDOF 5
ENDMDL
MODEL 2
REMARK VINA RESULT:     -10.1      1.591      4.123
REMARK  Name = 
REMARK  5 active torsions:
REMARK  status: ('A' for Active; 'I' for Inactive)
REMARK    1  A    between atoms: C_2  and  N_3
REMARK    2  A    between atoms: C_2  and  C_22
REMARK    3  A    between atoms: C_4  and  C_6
REMARK    4  A    between atoms: C_8  and  N_9
REMARK    5  A    between atoms: C_10  and  C_12
REMARK                            x       y       z     vdW  Elec       q    Type
REMARK                         _______ _______ _______ _____ _____    ______ ____
ROOT
ATOM      6  C   UNL     1      -3.833   2.887  25.107  0.00  0.00    +0.033 C 
ATOM      7  C   UNL     1      -3.842   2.108  24.836  0.00  0.00    -0.002 C 
ATOM      8  C   UNL     1      -4.508   1.637  24.954  0.00  0.00    +0.150 C 
ATOM     17  C   UNL     1      -5.167   1.946  25.345  0.00  0.00    +0.206 C 
ATOM     18  O   UNL     1      -5.834   1.475  25.464  0.00  0.00    -0.218 OA
ATOM     19  C   UNL     1      -5.158   2.725  25.617  0.00  0.00    +0.189 C 
ATOM     20  O   UNL     1      -5.816   3.033  26.007  0.00  0.00    -0.220 OA
ATOM     21  C   UNL     1      -4.491   3.195  25.497  0.00  0.00    +0.066 C 
ENDROOT
BRANCH   6   4
ATOM      3  N   UNL     1      -2.533   3.318  25.516  0.00  0.00    -0.194 NA
ATOM      4  C   UNL     1      -3.166   3.357  24.988  0.00  0.00    +0.261 C 
ATOM      5  O   UNL     1      -3.132   3.868  24.340  0.00  0.00    -0.269 OA
BRANCH   3   2
ATOM      1  C   UNL     1      -1.952   4.572  25.150  0.00  0.00    +0.033 C 
ATOM      2  C   UNL     1      -1.866   3.789  25.397  0.00  0.00    +0.175 C 
BRANCH   2  22
ATOM     22  C   UNL     1      -1.113   3.478  25.524  0.00  0.00    +0.281 C 
ATOM     23  N   UNL     1      -0.519   3.595  24.966  0.00  0.00    -0.086 NA
ATOM     24  O   UNL     1      -0.955   3.049  26.211  0.00  0.00    -0.270 OA
ENDBRANCH   2  22
ENDBRANCH   3   2
ENDBRANCH   6   4
BRANCH   8   9
ATOM      9  N   UNL     1      -4.517   0.859  24.683  0.00  0.00    -0.196 NA
ATOM     10  C   UNL     1      -3.945   0.324  24.945  0.00  0.00    +0.271 C 
ATOM     11  O   UNL     1      -3.365   0.569  25.478  0.00  0.00    -0.268 OA
BRANCH  10  12
ATOM     12  C   UNL     1      -3.954  -0.455  24.674  0.00  0.00    +0.084 A 
ATOM     13  C   UNL     1      -4.230  -0.709  23.938  0.00  0.00    +0.012 A 
ATOM     14  C   UNL     1      -4.135  -1.528  23.900  0.00  0.00    +0.008 A 
ATOM     15  C   UNL     1      -3.801  -1.780  24.611  0.00  0.00    +0.036 A 
ATOM     16  S   UNL     1      -3.689  -1.116  25.089  0.00  0.00    -0.082 S 
ENDBRANCH  10  12
ENDBRANCH   8   9
TORSDOF 5
ENDMDL
MODEL 3
REMARK VINA RESULT:      -9.8      2.063      4.765
REMARK  Name = 
REMARK  5 active torsions:
REMARK  status: ('A' for Active; 'I' for Inactive)
REMARK    1  A    between atoms: C_2  and  N_3
REMARK    2  A    between atoms: C_2  and  C_22
REMARK    3  A    between atoms: C_4  and  C_6
REMARK    4  A    between atoms: C_8  and  N_9
REMARK    5  A    between atoms: C_10  and  C_12
REMARK                            x       y       z     vdW  Elec       q    Type
REMARK                         _______ _______ _______ _____ _____    ______ ____
ROOT
ATOM      6  C   UNL     1      -2.490   1.705  24.684  0.00  0.00    +0.033 C 
ATOM      7  C   UNL     1      -2.751   0.948  24.484  0.00  0.00    -0.002 C 
ATOM      8  C   UNL     1      -2.273   0.293  24.637  0.00  0.00    +0.150 C 
ATOM     17  C   UNL     1      -1.534   0.395  24.990  0.00  0.00    +0.206 C 
ATOM     18  O   UNL     1      -1.057  -0.260  25.143  0.00  0.00    -0.218 OA
ATOM     19  C   UNL     1      -1.274   1.152  25.190  0.00  0.00    +0.189 C 
ATOM     20  O   UNL     1      -0.535   1.254  25.542  0.00  0.00    -0.220 OA
ATOM     21  C   UNL     1      -1.752   1.806  25.036  0.00  0.00    +0.066 C 
ENDROOT
BRANCH   6   4
ATOM      3  N   UNL     1      -3.434   2.680  25.131  0.00  0.00    -0.194 NA
ATOM      4  C   UNL     1      -2.968   2.359  24.531  0.00  0.00    +0.261 C 
ATOM      5  O   UNL     1      -2.981   2.693  23.775  0.00  0.00    -0.269 OA
BRANCH   3   2
ATOM      1  C   UNL     1      -3.881   3.705  24.241  0.00  0.00    +0.033 C 
ATOM      2  C   UNL     1      -3.912   3.335  24.979  0.00  0.00    +0.175 C 
BRANCH   2  22
ATOM     22  C   UNL     1      -4.421   3.619  25.561  0.00  0.00    +0.281 C 
ATOM     23  N   UNL     1      -5.233   3.492  25.497  0.00  0.00    -0.086 NA
ATOM     24  O   UNL     1      -4.118   4.031  26.209  0.00  0.00    -0.270 OA
ENDBRANCH   2  22
ENDBRANCH   3   2
ENDBRANCH   6   4
BRANCH   8   9
ATOM      9  N   UNL     1      -2.534  -0.463  24.437  0.00  0.00    -0.196 NA
ATOM     10  C   UNL     1      -3.219  -0.769  24.782  0.00  0.00    +0.271 C 
ATOM     11  O   UNL     1      -3.642  -0.316  25.327  0.00  0.00    -0.268 OA
BRANCH  10  12
ATOM     12  C   UNL     1      -3.479  -1.525  24.582  0.00  0.00    +0.084 A 
ATOM     13  C   UNL     1      -3.978  -1.716  23.952  0.00  0.00    +0.012 A 
ATOM     14  C   UNL     1      -4.094  -2.533  23.958  0.00  0.00    +0.008 A 
ATOM     15  C   UNL     1      -3.668  -2.847  24.591  0.00  0.00    +0.036 A 
ATOM     16  S   UNL     1      -3.288  -2.224  24.977  0.00  0.00    -0.082 S 
ENDBRANCH  10  12
ENDBRANCH   8   9
TORSDOF 5
ENDMDL
MODEL 4
REMARK VINA RESULT:      -9.6      2.104      3.076
REMARK  Name = 
REMARK  5 active torsions:
REMARK  status: ('A' for Active; 'I' for Inactive)
REMARK    1  A    between atoms: C_2  and  N_3
REMARK    2  A    between atoms: C_2  and  C_22
REMARK    3  A    between atoms: C_4  and  C_6
REMARK    4  A    between atoms: C_8  and  N_9
REMARK    5  A    between atoms: C_10  and  C_12
REMARK                            x       y       z     vdW  Elec       q    Type
REMARK                         _______ _______ _______ _____ _____    ______ ____
ROOT
ATOM      6  C   UNL     1      -1.526  -0.115  24.916  0.00  0.00    +0.033 C 
ATOM      7  C   UNL     1      -1.527   0.686  25.112  0.00  0.00    -0.002 C 
ATOM      8  C   UNL     1      -0.934   1.182  24.824  0.00  0.00    +0.150 C 
ATOM     17  C   UNL     1      -0.340   0.876  24.339  0.00  0.00    +0.206 C 
ATOM     18  O   UNL     1       0.253   1.372  24.051  0.00  0.00    -0.218 OA
ATOM     19  C   UNL     1      -0.339   0.075  24.143  0.00  0.00    +0.189 C 
ATOM     20  O   UNL     1       0.254  -0.231  23.658  0.00  0.00    -0.220 OA
ATOM     21  C   UNL     1      -0.933  -0.421  24.431  0.00  0.00    +0.066 C 
ENDROOT
BRANCH   6   4
ATOM      3  N   UNL     1      -2.693  -0.909  24.692  0.00  0.00    -0.194 NA
ATOM      4  C   UNL     1      -2.119  -0.611  25.204  0.00  0.00    +0.261 C 
ATOM      5  O   UNL     1      -2.138  -0.808  26.006  0.00  0.00    -0.269 OA
BRANCH   3   2
ATOM      1  C   UNL     1      -3.433  -1.444  25.792  0.00  0.00    +0.033 C 
ATOM      2  C   UNL     1      -3.287  -1.405  24.980  0.00  0.00    +0.175 C 
BRANCH   2  22
ATOM     22  C   UNL     1      -3.733  -1.861  24.458  0.00  0.00    +0.281 C 
ATOM     23  N   UNL     1      -4.311  -1.505  23.990  0.00  0.00    -0.086 NA
ATOM     24  O   UNL     1      -3.603  -2.674  24.405  0.00  0.00    -0.270 OA
ENDBRANCH   2  22
ENDBRANCH   3   2
ENDBRANCH   6   4
BRANCH   8   9
ATOM      9  N   UNL     1      -0.934   1.982  25.020  0.00  0.00    -0.196 NA
ATOM     10  C   UNL     1      -1.569   2.462  24.798  0.00  0.00    +0.271 C 
ATOM     11  O   UNL     1      -2.202   2.139  24.379  0.00  0.00    -0.268 OA
BRANCH  10  12
ATOM     12  C   UNL     1      -1.569   3.263  24.994  0.00  0.00    +0.084 A 
ATOM     13  C   UNL     1      -0.931   3.781  24.919  0.00  0.00    +0.012 A 
ATOM     14  C   UNL     1      -1.175   4.526  25.178  0.00  0.00    +0.008 A 
ATOM     15  C   UNL     1      -1.963   4.467  25.415  0.00  0.00    +0.036 A 
ATOM     16  S   UNL     1      -2.207   3.687  25.301  0.00  0.00    -0.082 S 
ENDBRANCH  10  12
ENDBRANCH   8   9
TORSDOF 5
ENDMDL
MODEL 5
REMARK VINA RESULT:      -9.3      2.084      4.092
REMARK  Name = 
REMARK  5 active torsions:
REMARK  status: ('A' for Active; 'I' for Inactive)
REMARK    1  A    between atoms: C_2  and  N_3
REMARK    2  A    between atoms: C_2  and  C_22
REMARK    3  A    between atoms: C_4  and  C_6
REMARK    4  A    between atoms: C_8  and  N_9
REMARK    5  A    between atoms: C_10  and  C_12
REMARK                            x       y       z     vdW  Elec       q    Type
REMARK                         _______ _______ _______ _____ _____    ______ ____
ROOT
ATOM      6  C   UNL     1      -2.632   2.827  24.986  0.00  0.00    +0.033 C 
ATOM      7  C   UNL     1      -2.328   2.066  25.080  0.00  0.00    -0.002 C 
ATOM      8  C   UNL     1      -1.536   1.961  25.285  0.00  0.00    +0.150 C 
ATOM     17  C   UNL     1      -1.048   2.618  25.396  0.00  0.00    +0.206 C 
ATOM     18  O   UNL     1      -0.256   2.513  25.601  0.00  0.00    -0.218 OA
ATOM     19  C   UNL     1      -1.352   3.379  25.301  0.00  0.00    +0.189 C 
ATOM     20  O   UNL     1      -0.865   4.034  25.412  0.00  0.00    -0.220 OA
ATOM     21  C   UNL     1      -2.145   3.483  25.096  0.00  0.00    +0.066 C 
ENDROOT
BRANCH   6   4
ATOM      3  N   UNL     1      -4.013   2.846  25.352  0.00  0.00    -0.194 NA
ATOM      4  C   UNL     1      -3.424   2.931  24.781  0.00  0.00    +0.261 C 
ATOM      5  O   UNL     1      -3.628   3.122  24.004  0.00  0.00    -0.269 OA
BRANCH   3   2
ATOM      1  C   UNL     1      -5.060   2.778  24.381  0.00  0.00    +0.033 C 
ATOM      2  C   UNL     1      -4.806   2.950  25.148  0.00  0.00    +0.175 C 
BRANCH   2  22
ATOM     22  C   UNL     1      -5.344   3.226  25.708  0.00  0.00    +0.281 C 
ATOM     23  N   UNL     1      -5.668   2.707  26.260  0.00  0.00    -0.086 NA
ATOM     24  O   UNL     1      -5.559   4.023  25.716  0.00  0.00    -0.270 OA
ENDBRANCH   2  22
ENDBRANCH   3   2
ENDBRANCH   6   4
BRANCH   8   9
ATOM      9  N   UNL     1      -1.231   1.201  25.380  0.00  0.00    -0.196 NA
ATOM     10  C   UNL     1      -1.288   0.654  24.764  0.00  0.00    +0.271 C 
ATOM     11  O   UNL     1      -1.650   0.869  24.054  0.00  0.00    -0.268 OA
BRANCH  10  12
ATOM     12  C   UNL     1      -0.984  -0.107  24.858  0.00  0.00    +0.084 A 
ATOM     13  C   UNL     1      -1.172  -0.633  25.466  0.00  0.00    +0.012 A 
ATOM     14  C   UNL     1      -0.742  -1.327  25.345  0.00  0.00    +0.008 A 
ATOM     15  C   UNL     1      -0.288  -1.230  24.663  0.00  0.00    +0.036 A 
ATOM     16  S   UNL     1      -0.438  -0.476  24.362  0.00  0.00    -0.082 S 
ENDBRANCH  10  12
ENDBRANCH   8   9
TORSDOF 5
ENDMDL
