MODEL 1
REMARK VINA RESULT:      -9.6      0.000      0.000
REMARK  Name = 
REMARK  4 active torsions:
REMARK  status: ('A' for Active; 'I' for Inactive)
REMARK    1  A    between atoms: N_3  and  C_4
REMARK    2  A    between atoms: C_8  and  N_12
REMARK    3  A    between atoms: C_15  and  C_19
REMARK    4  A    between atoms: N_24  and  C_25
REMARK                            x       y       z     vdW  Elec       q    Type
REMARK                         _______ _______ _______ _____ _____    ______ ____
ROOT
ATOM      4  C   UNL     1      -2.068   1.590  23.783  0.00  0.00    +0.156 C 
ATOM      5  C   UNL     1      -1.684   2.319  23.808  0.00  0.00    +0.166 C 
ATOM      6  O   UNL     1      -0.873   2.178  23.847  0.00  0.00    -0.350 OA
ATOM      7  C   UNL     1      -0.755   1.363  23.847  0.00  0.00    +0.166 C 
ATOM      8  C   UNL     1      -0.181   0.770  23.871  0.00  0.00    +0.154 C 
ATOM      9  C   UNL     1      -0.564   0.041  23.847  0.00  0.00    +0.166 C 
ATOM     10  O   UNL     1      -1.376   0.182  23.807  0.00  0.00    -0.350 OA
ATOM     11  C   UNL     1      -1.494   0.999  23.807  0.00  0.00    +0.166 C 
ENDROOT
BRANCH   8  12
ATOM     12  N   UNL     1       0.635   0.888  23.913  0.00  0.00    -0.200 NA
ATOM     13  C   UNL     1       1.133   0.527  23.362  0.00  0.00    +0.237 A 
ATOM     14  N   UNL     1       1.948   0.645  23.404  0.00  0.00    -0.209 NA
ATOM     15  C   UNL     1       2.446   0.284  22.853  0.00  0.00    +0.120 A 
ATOM     16  C   UNL     1       2.128  -0.194  22.261  0.00  0.00    +0.043 A 
ATOM     17  C   UNL     1       1.312  -0.312  22.220  0.00  0.00    +0.104 A 
ATOM     18  N   UNL     1       0.815   0.049  22.770  0.00  0.00    -0.211 NA
BRANCH  15  19
ATOM     19  C   UNL     1       3.261   0.401  22.895  0.00  0.00    +0.163 A 
ATOM     20  C   UNL     1       3.666   1.078  22.653  0.00  0.00    +0.042 A 
ATOM     21  C   UNL     1       4.470   0.958  22.794  0.00  0.00    +0.044 A 
ATOM     22  C   UNL     1       4.561   0.207  23.123  0.00  0.00    +0.180 A 
ATOM     23  O   UNL     1       3.814  -0.137  23.185  0.00  0.00    -0.449 OA
ENDBRANCH  15  19
ENDBRANCH   8  12
BRANCH   4   3
ATOM      1  O   UNL     1      -3.066   2.339  24.863  0.00  0.00    -0.249 OA
ATOM      2  C   UNL     1      -3.383   1.847  24.281  0.00  0.00    +0.339 C 
ATOM      3  N   UNL     1      -2.884   1.472  23.741  0.00  0.00    -0.184 NA
ATOM     24  N   UNL     1      -4.198   1.730  24.240  0.00  0.00    -0.189 NA
BRANCH  24  25
ATOM     25  C   UNL     1      -4.697   2.104  24.780  0.00  0.00    +0.097 C 
ATOM     26  C   UNL     1      -4.776   2.925  24.768  0.00  0.00    +0.022 C 
ATOM     27  C   UNL     1      -5.275   3.299  25.308  0.00  0.00    +0.002 C 
ATOM     28  C   UNL     1      -5.696   2.852  25.859  0.00  0.00    +0.000 C 
ATOM     29  C   UNL     1      -5.618   2.031  25.871  0.00  0.00    +0.002 C 
ATOM     30  C   UNL     1      -5.118   1.657  25.331  0.00  0.00    +0.022 C 
ENDBRANCH  24  25
ENDBRANCH   4   3
TORSDOF 4
ENDMDL
MODEL 2
REMARK VINA RESULT:      -9.5      0.984      6.793
REMARK  Name = 
REMARK  4 active torsions:
REMARK  status: ('A' for Active; 'I' for Inactive)
REMARK    1  A    between atoms: N_3  and  C_4
REMARK    2  A    between atoms: C_8  and  N_12
REMARK    3  A    between atoms: C_15  and  C_19
REMARK    4  A    between atoms: N_24  and  C_25
REMARK                            x       y       z     vdW  Elec       q    Type
REMARK                         _______ _______ _______ _____ _____    ______ ____
ROOT
ATOM      4  C   UNL     1       0.468   0.537  23.489  0.00  0.00    +0.156 C 
ATOM      5  C   UNL     1       0.450   1.360  23.537  0.00  0.00    +0.166 C 
ATOM      6  O   UNL     1      -0.231   1.575  23.949  0.00  0.00    -0.350 OA
ATOM      7  C   UNL     1      -0.634   0.886  24.156  0.00  0.00    +0.166 C 
ATOM      8  C   UNL     1      -1.303   0.592  24.538  0.00  0.00    +0.154 C 
ATOM      9  C   UNL     1      -1.285  -0.231  24.489  0.00  0.00    +0.166 C 
ATOM     10  O   UNL     1      -0.604  -0.446  24.077  0.00  0.00    -0.350 OA
ATOM     11  C   UNL     1      -0.202   0.244  23.871  0.00  0.00    +0.166 C 
ENDROOT
BRANCH   8  12
ATOM     12  N   UNL     1      -1.889   1.043  24.905  0.00  0.00    -0.200 NA
ATOM     13  C   UNL     1      -2.678   0.958  24.679  0.00  0.00    +0.237 A 
ATOM     14  N   UNL     1      -3.263   1.409  25.045  0.00  0.00    -0.209 NA
ATOM     15  C   UNL     1      -4.053   1.323  24.820  0.00  0.00    +0.120 A 
ATOM     16  C   UNL     1      -4.256   0.786  24.227  0.00  0.00    +0.043 A 
ATOM     17  C   UNL     1      -3.670   0.335  23.861  0.00  0.00    +0.104 A 
ATOM     18  N   UNL     1      -2.882   0.421  24.087  0.00  0.00    -0.211 NA
BRANCH  15  19
ATOM     19  C   UNL     1      -4.638   1.774  25.186  0.00  0.00    +0.163 A 
ATOM     20  C   UNL     1      -5.389   1.509  25.403  0.00  0.00    +0.042 A 
ATOM     21  C   UNL     1      -5.790   2.140  25.751  0.00  0.00    +0.044 A 
ATOM     22  C   UNL     1      -5.288   2.794  25.749  0.00  0.00    +0.180 A 
ATOM     23  O   UNL     1      -4.576   2.568  25.399  0.00  0.00    -0.449 OA
ENDBRANCH  15  19
ENDBRANCH   8  12
BRANCH   4   3
ATOM      1  O   UNL     1       2.052   0.983  23.613  0.00  0.00    -0.249 OA
ATOM      2  C   UNL     1       1.846   0.308  23.184  0.00  0.00    +0.339 C 
ATOM      3  N   UNL     1       1.054   0.085  23.122  0.00  0.00    -0.184 NA
ATOM     24  N   UNL     1       2.431  -0.143  22.817  0.00  0.00    -0.189 NA
BRANCH  24  25
ATOM     25  C   UNL     1       3.223   0.080  22.879  0.00  0.00    +0.097 C 
ATOM     26  C   UNL     1       3.503   0.730  22.456  0.00  0.00    +0.022 C 
ATOM     27  C   UNL     1       4.295   0.952  22.517  0.00  0.00    +0.002 C 
ATOM     28  C   UNL     1       4.807   0.525  23.003  0.00  0.00    +0.000 C 
ATOM     29  C   UNL     1       4.527  -0.126  23.427  0.00  0.00    +0.002 C 
ATOM     30  C   UNL     1       3.735  -0.348  23.364  0.00  0.00    +0.022 C 
ENDBRANCH  24  25
ENDBRANCH   4   3
TORSDOF 4
ENDMDL
MODEL 3
REMARK VINA RESULT:      -8.2      2.478      6.937
REMARK  Name = 
REMARK  4 active torsions:
REMARK  status: ('A' for Active; 'I' for Inactive)
REMARK    1  A    between atoms: N_3  and  C_4
REMARK    2  A    between atoms: C_8  and  N_12
REMARK    3  A    between atoms: C_15  and  C_19
REMARK    4  A    between atoms: N_24  and  C_25
REMARK                            x       y       z     vdW  Elec       q    Type
REMARK                         _______ _______ _______ _____ _____    ______ ____
ROOT
ATOM      4  C   UNL     1       1.973   0.509  22.886  0.00  0.00    +0.156 C 
ATOM      5  C   UNL     1       1.803  -0.149  22.418  0.00  0.00    +0.166 C 
ATOM      6  O   UNL     1       1.022  -0.370  22.563  0.00  0.00    -0.350 OA
ATOM      7  C   UNL     1       0.709   0.150  23.121  0.00  0.00    +0.166 C 
ATOM      8  C   UNL     1       0.033   0.336  23.556  0.00  0.00    +0.154 C 
ATOM      9  C   UNL     1       0.203   0.993  24.025  0.00  0.00    +0.166 C 
ATOM     10  O   UNL     1       0.984   1.214  23.879  0.00  0.00    -0.350 OA
ATOM     11  C   UNL     1       1.297   0.693  23.320  0.00  0.00    +0.166 C 
ENDROOT
BRANCH   8  12
ATOM     12  N   UNL     1      -0.687  -0.066  23.528  0.00  0.00    -0.200 NA
ATOM     13  C   UNL     1      -1.007  -0.390  24.217  0.00  0.00    +0.237 A 
ATOM     14  N   UNL     1      -1.726  -0.792  24.189  0.00  0.00    -0.209 NA
ATOM     15  C   UNL     1      -2.045  -1.115  24.877  0.00  0.00    +0.120 A 
ATOM     16  C   UNL     1      -1.645  -1.037  25.594  0.00  0.00    +0.043 A 
ATOM     17  C   UNL     1      -0.924  -0.635  25.622  0.00  0.00    +0.104 A 
ATOM     18  N   UNL     1      -0.606  -0.311  24.933  0.00  0.00    -0.211 NA
BRANCH  15  19
ATOM     19  C   UNL     1      -2.765  -1.517  24.849  0.00  0.00    +0.163 A 
ATOM     20  C   UNL     1      -3.514  -1.174  24.895  0.00  0.00    +0.042 A 
ATOM     21  C   UNL     1      -4.074  -1.777  24.845  0.00  0.00    +0.044 A 
ATOM     22  C   UNL     1      -3.672  -2.493  24.768  0.00  0.00    +0.180 A 
ATOM     23  O   UNL     1      -2.862  -2.332  24.770  0.00  0.00    -0.449 OA
ENDBRANCH  15  19
ENDBRANCH   8  12
BRANCH   4   3
ATOM      1  O   UNL     1       3.359  -0.307  23.256  0.00  0.00    -0.249 OA
ATOM      2  C   UNL     1       3.386   0.503  23.099  0.00  0.00    +0.339 C 
ATOM      3  N   UNL     1       2.693   0.911  22.914  0.00  0.00    -0.184 NA
ATOM     24  N   UNL     1       4.106   0.905  23.127  0.00  0.00    -0.189 NA
BRANCH  24  25
ATOM     25  C   UNL     1       4.799   0.498  23.313  0.00  0.00    +0.097 C 
ATOM     26  C   UNL     1       5.239   0.139  22.715  0.00  0.00    +0.022 C 
ATOM     27  C   UNL     1       5.933  -0.268  22.900  0.00  0.00    +0.002 C 
ATOM     28  C   UNL     1       6.185  -0.317  23.684  0.00  0.00    +0.000 C 
ATOM     29  C   UNL     1       5.745   0.042  24.282  0.00  0.00    +0.002 C 
ATOM     30  C   UNL     1       5.052   0.449  24.096  0.00  0.00    +0.022 C 
ENDBRANCH  24  25
ENDBRANCH   4   3
TORSDOF 4
ENDMDL
MODEL 4
REMARK VINA RESULT:      -7.8      1.414      1.862
REMARK  Name = 
REMARK  4 active torsions:
REMARK  status: ('A' for Active; 'I' for Inactive)
REMARK    1  A    between atoms: N_3  and  C_4
REMARK    2  A    between atoms: C_8  and  N_12
REMARK    3  A    between atoms: C_15  and  C_19
REMARK    4  A    between atoms: N_24  and  C_25
REMARK                            x       y       z     vdW  Elec       q    Type
REMARK                         _______ _______ _______ _____ _____    ______ ____
ROOT
ATOM      4  C   UNL     1      -3.205  -0.189  24.753  0.00  0.00    +0.156 C 
ATOM      5  C   UNL     1      -3.227  -0.374  23.950  0.00  0.00    +0.166 C 
ATOM      6  O   UNL     1      -2.453  -0.500  23.696  0.00  0.00    -0.350 OA
ATOM      7  C   UNL     1      -1.952  -0.394  24.342  0.00  0.00    +0.166 C 
ATOM      8  C   UNL     1      -1.163  -0.405  24.585  0.00  0.00    +0.154 C 
ATOM      9  C   UNL     1      -1.141  -0.220  25.388  0.00  0.00    +0.166 C 
ATOM     10  O   UNL     1      -1.915  -0.094  25.642  0.00  0.00    -0.350 OA
ATOM     11  C   UNL     1      -2.417  -0.201  24.995  0.00  0.00    +0.166 C 
ENDROOT
BRANCH   8  12
ATOM     12  N   UNL     1      -0.512  -0.573  24.107  0.00  0.00    -0.200 NA
ATOM     13  C   UNL     1       0.038   0.018  23.935  0.00  0.00    +0.237 A 
ATOM     14  N   UNL     1       0.689  -0.149  23.458  0.00  0.00    -0.209 NA
ATOM     15  C   UNL     1       1.238   0.442  23.287  0.00  0.00    +0.120 A 
ATOM     16  C   UNL     1       1.135   1.201  23.593  0.00  0.00    +0.043 A 
ATOM     17  C   UNL     1       0.484   1.369  24.070  0.00  0.00    +0.104 A 
ATOM     18  N   UNL     1      -0.065   0.777  24.241  0.00  0.00    -0.211 NA
BRANCH  15  19
ATOM     19  C   UNL     1       1.889   0.275  22.810  0.00  0.00    +0.163 A 
ATOM     20  C   UNL     1       2.678   0.434  22.992  0.00  0.00    +0.042 A 
ATOM     21  C   UNL     1       3.143   0.177  22.361  0.00  0.00    +0.044 A 
ATOM     22  C   UNL     1       2.642  -0.142  21.789  0.00  0.00    +0.180 A 
ATOM     23  O   UNL     1       1.867  -0.081  22.066  0.00  0.00    -0.449 OA
ENDBRANCH  15  19
ENDBRANCH   8  12
BRANCH   4   3
ATOM      1  O   UNL     1      -4.073   1.193  24.508  0.00  0.00    -0.249 OA
ATOM      2  C   UNL     1      -4.291   0.670  25.109  0.00  0.00    +0.339 C 
ATOM      3  N   UNL     1      -3.856  -0.021  25.231  0.00  0.00    -0.184 NA
ATOM     24  N   UNL     1      -4.942   0.838  25.586  0.00  0.00    -0.189 NA
BRANCH  24  25
ATOM     25  C   UNL     1      -5.377   1.528  25.464  0.00  0.00    +0.097 C 
ATOM     26  C   UNL     1      -5.110   2.244  25.774  0.00  0.00    +0.022 C 
ATOM     27  C   UNL     1      -5.545   2.935  25.652  0.00  0.00    +0.002 C 
ATOM     28  C   UNL     1      -6.246   2.909  25.219  0.00  0.00    +0.000 C 
ATOM     29  C   UNL     1      -6.513   2.193  24.907  0.00  0.00    +0.002 C 
ATOM     30  C   UNL     1      -6.078   1.503  25.030  0.00  0.00    +0.022 C 
ENDBRANCH  24  25
ENDBRANCH   4   3
TORSDOF 4
ENDMDL
