MODEL 1
REMARK VINA RESULT:     -10.3      0.000      0.000
REMARK  Name = 
REMARK  3 active torsions:
REMARK  status: ('A' for Active; 'I' for Inactive)
REMARK    1  A    between atoms: C_5  and  N_8
REMARK    2  A    between atoms: C_12  and  C_13
REMARK    3  A    between atoms: C_15  and  C_18
REMARK                            x       y       z     vdW  Elec       q    Type
REMARK                         _______ _______ _______ _____ _____    ______ ____
ROOT
ATOM      8  N   UNL     1      -4.615   0.838  24.827  0.00  0.00    -0.268 NA
ATOM      9  C   UNL     1      -5.410   1.006  24.968  0.00  0.00    +0.072 C 
ATOM     10  C   UNL     1      -5.509   1.824  24.924  0.00  0.00    +0.019 C 
ATOM     11  C   UNL     1      -4.775   2.161  24.756  0.00  0.00    +0.027 C 
ATOM     12  C   UNL     1      -4.222   1.550  24.696  0.00  0.00    +0.138 C 
ENDROOT
BRANCH   8   5
ATOM      1  C   UNL     1      -3.247  -2.166  24.791  0.00  0.00    +0.090 C 
ATOM      2  N   UNL     1      -3.589  -1.414  24.800  0.00  0.00    -0.271 NA
ATOM      3  C   UNL     1      -3.643  -0.995  25.508  0.00  0.00    +0.074 C 
ATOM      4  C   UNL     1      -3.985  -0.244  25.517  0.00  0.00    +0.033 C 
ATOM      5  C   UNL     1      -4.273   0.087  24.818  0.00  0.00    +0.061 C 
ATOM      6  C   UNL     1      -4.218  -0.333  24.110  0.00  0.00    +0.033 C 
ATOM      7  C   UNL     1      -3.876  -1.084  24.101  0.00  0.00    +0.074 C 
ENDBRANCH   8   5
BRANCH  12  13
ATOM     13  C   UNL     1      -3.419   1.638  24.534  0.00  0.00    +0.251 A 
ATOM     14  N   UNL     1      -2.831   1.825  25.082  0.00  0.00    -0.189 NA
ATOM     15  C   UNL     1      -2.110   1.857  24.682  0.00  0.00    +0.208 A 
ATOM     16  N   UNL     1      -2.252   1.690  23.887  0.00  0.00    -0.056 NA
ATOM     17  O   UNL     1      -3.060   1.555  23.796  0.00  0.00    -0.336 OA
BRANCH  15  18
ATOM     18  C   UNL     1      -1.376   2.026  25.018  0.00  0.00    +0.093 A 
ATOM     19  C   UNL     1      -0.729   1.539  24.861  0.00  0.00    +0.176 A 
ATOM     20  N   UNL     1      -0.815   0.883  24.368  0.00  0.00    -0.107 NA
ATOM     21  N   UNL     1       0.006   1.709  25.197  0.00  0.00    -0.206 NA
ATOM     22  C   UNL     1       0.093   2.364  25.690  0.00  0.00    +0.200 A 
ATOM     23  N   UNL     1      -0.555   2.851  25.847  0.00  0.00    -0.222 NA
ATOM     24  C   UNL     1      -1.289   2.682  25.511  0.00  0.00    +0.107 A 
ENDBRANCH  15  18
ENDBRANCH  12  13
TORSDOF 3
ENDMDL
MODEL 2
REMARK VINA RESULT:     -10.3      1.268      3.471
REMARK  Name = 
REMARK  3 active torsions:
REMARK  status: ('A' for Active; 'I' for Inactive)
REMARK    1  A    between atoms: C_5  and  N_8
REMARK    2  A    between atoms: C_12  and  C_13
REMARK    3  A    between atoms: C_15  and  C_18
REMARK                            x       y       z     vdW  Elec       q    Type
REMARK                         _______ _______ _______ _____ _____    ______ ____
ROOT
ATOM      8  N   UNL     1      -2.466  -0.623  24.685  0.00  0.00    -0.268 NA
ATOM      9  C   UNL     1      -2.393  -1.440  24.770  0.00  0.00    +0.072 C 
ATOM     10  C   UNL     1      -3.138  -1.776  24.653  0.00  0.00    +0.019 C 
ATOM     11  C   UNL     1      -3.670  -1.165  24.495  0.00  0.00    +0.027 C 
ATOM     12  C   UNL     1      -3.254  -0.453  24.514  0.00  0.00    +0.138 C 
ENDROOT
BRANCH   8   5
ATOM      1  C   UNL     1      -0.024   1.579  24.973  0.00  0.00    +0.090 C 
ATOM      2  N   UNL     1      -0.635   1.028  24.901  0.00  0.00    -0.271 NA
ATOM      3  C   UNL     1      -1.052   0.785  25.570  0.00  0.00    +0.074 C 
ATOM      4  C   UNL     1      -1.662   0.234  25.498  0.00  0.00    +0.033 C 
ATOM      5  C   UNL     1      -1.856  -0.073  24.757  0.00  0.00    +0.061 C 
ATOM      6  C   UNL     1      -1.439   0.172  24.088  0.00  0.00    +0.033 C 
ATOM      7  C   UNL     1      -0.829   0.722  24.160  0.00  0.00    +0.074 C 
ENDBRANCH   8   5
BRANCH  12  13
ATOM     13  C   UNL     1      -3.571   0.298  24.387  0.00  0.00    +0.251 A 
ATOM     14  N   UNL     1      -3.970   0.757  24.944  0.00  0.00    -0.189 NA
ATOM     15  C   UNL     1      -4.191   1.464  24.581  0.00  0.00    +0.208 A 
ATOM     16  N   UNL     1      -3.928   1.442  23.800  0.00  0.00    -0.056 NA
ATOM     17  O   UNL     1      -3.546   0.722  23.680  0.00  0.00    -0.336 OA
BRANCH  15  18
ATOM     18  C   UNL     1      -4.602   2.085  24.937  0.00  0.00    +0.093 A 
ATOM     19  C   UNL     1      -4.308   2.854  24.891  0.00  0.00    +0.176 A 
ATOM     20  N   UNL     1      -3.603   3.003  24.489  0.00  0.00    -0.107 NA
ATOM     21  N   UNL     1      -4.719   3.475  25.247  0.00  0.00    -0.206 NA
ATOM     22  C   UNL     1      -5.423   3.326  25.649  0.00  0.00    +0.200 A 
ATOM     23  N   UNL     1      -5.718   2.556  25.696  0.00  0.00    -0.222 NA
ATOM     24  C   UNL     1      -5.306   1.936  25.339  0.00  0.00    +0.107 A 
ENDBRANCH  15  18
ENDBRANCH  12  13
TORSDOF 3
ENDMDL
MODEL 3
REMARK VINA RESULT:     -10.2      1.786      3.918
REMARK  Name = 
REMARK  3 active torsions:
REMARK  status: ('A' for Active; 'I' for Inactive)
REMARK    1  A    between atoms: C_5  and  N_8
REMARK    2  A    between atoms: C_12  and  C_13
REMARK    3  A    between atoms: C_15  and  C_18
REMARK                            x       y       z     vdW  Elec       q    Type
REMARK                         _______ _______ _______ _____ _____    ______ ____
ROOT
ATOM      8  N   UNL     1      -1.219   3.367  24.959  0.00  0.00    -0.268 NA
ATOM      9  C   UNL     1      -0.633   3.922  25.128  0.00  0.00    +0.072 C 
ATOM     10  C   UNL     1      -0.988   4.666  25.156  0.00  0.00    +0.019 C 
ATOM     11  C   UNL     1      -1.793   4.571  25.005  0.00  0.00    +0.027 C 
ATOM     12  C   UNL     1      -1.936   3.767  24.884  0.00  0.00    +0.138 C 
ENDROOT
BRANCH   8   5
ATOM      1  C   UNL     1      -0.774   0.111  24.644  0.00  0.00    +0.090 C 
ATOM      2  N   UNL     1      -0.885   0.926  24.723  0.00  0.00    -0.271 NA
ATOM      3  C   UNL     1      -1.019   1.253  25.468  0.00  0.00    +0.074 C 
ATOM      4  C   UNL     1      -1.130   2.067  25.547  0.00  0.00    +0.033 C 
ATOM      5  C   UNL     1      -1.108   2.553  24.880  0.00  0.00    +0.061 C 
ATOM      6  C   UNL     1      -0.975   2.225  24.136  0.00  0.00    +0.033 C 
ATOM      7  C   UNL     1      -0.863   1.411  24.057  0.00  0.00    +0.074 C 
ENDBRANCH   8   5
BRANCH  12  13
ATOM     13  C   UNL     1      -2.667   3.424  24.716  0.00  0.00    +0.251 A 
ATOM     14  N   UNL     1      -3.253   3.238  25.267  0.00  0.00    -0.189 NA
ATOM     15  C   UNL     1      -3.889   2.906  24.860  0.00  0.00    +0.208 A 
ATOM     16  N   UNL     1      -3.697   2.888  24.058  0.00  0.00    -0.056 NA
ATOM     17  O   UNL     1      -2.943   3.208  23.970  0.00  0.00    -0.336 OA
BRANCH  15  18
ATOM     18  C   UNL     1      -4.594   2.640  25.196  0.00  0.00    +0.093 A 
ATOM     19  C   UNL     1      -4.874   1.884  25.021  0.00  0.00    +0.176 A 
ATOM     20  N   UNL     1      -4.450   1.394  24.510  0.00  0.00    -0.107 NA
ATOM     21  N   UNL     1      -5.579   1.617  25.357  0.00  0.00    -0.206 NA
ATOM     22  C   UNL     1      -6.003   2.106  25.868  0.00  0.00    +0.200 A 
ATOM     23  N   UNL     1      -5.723   2.862  26.043  0.00  0.00    -0.222 NA
ATOM     24  C   UNL     1      -5.018   3.129  25.707  0.00  0.00    +0.107 A 
ENDBRANCH  15  18
ENDBRANCH  12  13
TORSDOF 3
ENDMDL
MODEL 4
REMARK VINA RESULT:     -10.0      1.562      3.251
REMARK  Name = 
REMARK  3 active torsions:
REMARK  status: ('A' for Active; 'I' for Inactive)
REMARK    1  A    between atoms: C_5  and  N_8
REMARK    2  A    between atoms: C_12  and  C_13
REMARK    3  A    between atoms: C_15  and  C_18
REMARK                            x       y       z     vdW  Elec       q    Type
REMARK                         _______ _______ _______ _____ _____    ______ ____
ROOT
ATOM      8  N   UNL     1      -4.460   2.851  25.202  0.00  0.00    -0.268 NA
ATOM      9  C   UNL     1      -5.210   3.102  25.437  0.00  0.00    +0.072 C 
ATOM     10  C   UNL     1      -5.731   2.469  25.342  0.00  0.00    +0.019 C 
ATOM     11  C   UNL     1      -5.303   1.828  25.049  0.00  0.00    +0.027 C 
ATOM     12  C   UNL     1      -4.517   2.064  24.962  0.00  0.00    +0.138 C 
ENDROOT
BRANCH   8   5
ATOM      1  C   UNL     1      -1.711   4.678  25.219  0.00  0.00    +0.090 C 
ATOM      2  N   UNL     1      -2.399   4.221  25.215  0.00  0.00    -0.271 NA
ATOM      3  C   UNL     1      -2.648   3.845  25.906  0.00  0.00    +0.074 C 
ATOM      4  C   UNL     1      -3.335   3.388  25.901  0.00  0.00    +0.033 C 
ATOM      5  C   UNL     1      -3.773   3.307  25.206  0.00  0.00    +0.061 C 
ATOM      6  C   UNL     1      -3.523   3.684  24.516  0.00  0.00    +0.033 C 
ATOM      7  C   UNL     1      -2.836   4.141  24.521  0.00  0.00    +0.074 C 
ENDBRANCH   8   5
BRANCH  12  13
ATOM     13  C   UNL     1      -3.897   1.596  24.685  0.00  0.00    +0.251 A 
ATOM     14  N   UNL     1      -3.453   1.064  25.133  0.00  0.00    -0.189 NA
ATOM     15  C   UNL     1      -2.894   0.717  24.636  0.00  0.00    +0.208 A 
ATOM     16  N   UNL     1      -2.993   1.033  23.881  0.00  0.00    -0.056 NA
ATOM     17  O   UNL     1      -3.612   1.575  23.911  0.00  0.00    -0.336 OA
BRANCH  15  18
ATOM     18  C   UNL     1      -2.334   0.151  24.856  0.00  0.00    +0.093 A 
ATOM     19  C   UNL     1      -2.482  -0.649  24.721  0.00  0.00    +0.176 A 
ATOM     20  N   UNL     1      -3.189  -0.884  24.367  0.00  0.00    -0.107 NA
ATOM     21  N   UNL     1      -1.922  -1.214  24.941  0.00  0.00    -0.206 NA
ATOM     22  C   UNL     1      -1.215  -0.979  25.295  0.00  0.00    +0.200 A 
ATOM     23  N   UNL     1      -1.067  -0.178  25.429  0.00  0.00    -0.222 NA
ATOM     24  C   UNL     1      -1.627   0.387  25.210  0.00  0.00    +0.107 A 
ENDBRANCH  15  18
ENDBRANCH  12  13
TORSDOF 3
ENDMDL
MODEL 5
REMARK VINA RESULT:     -10.0      1.200      3.674
REMARK  Name = 
REMARK  3 active torsions:
REMARK  status: ('A' for Active; 'I' for Inactive)
REMARK    1  A    between atoms: C_5  and  N_8
REMARK    2  A    between atoms: C_12  and  C_13
REMARK    3  A    between atoms: C_15  and  C_18
REMARK                            x       y       z     vdW  Elec       q    Type
REMARK                         _______ _______ _______ _____ _____    ______ ____
ROOT
ATOM      8  N   UNL     1      -4.210   1.981  24.559  0.00  0.00    -0.268 NA
ATOM      9  C   UNL     1      -4.736   2.611  24.474  0.00  0.00    +0.072 C 
ATOM     10  C   UNL     1      -5.486   2.347  24.696  0.00  0.00    +0.019 C 
ATOM     11  C   UNL     1      -5.422   1.555  24.918  0.00  0.00    +0.027 C 
ATOM     12  C   UNL     1      -4.633   1.330  24.833  0.00  0.00    +0.138 C 
ENDROOT
BRANCH   8   5
ATOM      1  C   UNL     1      -0.974   2.061  23.914  0.00  0.00    +0.090 C 
ATOM      2  N   UNL     1      -1.783   2.041  24.075  0.00  0.00    -0.271 NA
ATOM      3  C   UNL     1      -2.319   1.855  23.475  0.00  0.00    +0.074 C 
ATOM      4  C   UNL     1      -3.128   1.836  23.637  0.00  0.00    +0.033 C 
ATOM      5  C   UNL     1      -3.401   2.001  24.398  0.00  0.00    +0.061 C 
ATOM      6  C   UNL     1      -2.865   2.187  24.997  0.00  0.00    +0.033 C 
ATOM      7  C   UNL     1      -2.056   2.206  24.836  0.00  0.00    +0.074 C 
ENDBRANCH   8   5
BRANCH  12  13
ATOM     13  C   UNL     1      -4.323   0.583  24.994  0.00  0.00    +0.251 A 
ATOM     14  N   UNL     1      -4.284  -0.051  24.467  0.00  0.00    -0.189 NA
ATOM     15  C   UNL     1      -3.934  -0.687  24.858  0.00  0.00    +0.208 A 
ATOM     16  N   UNL     1      -3.756  -0.447  25.626  0.00  0.00    -0.056 NA
ATOM     17  O   UNL     1      -3.996   0.337  25.710  0.00  0.00    -0.336 OA
BRANCH  15  18
ATOM     18  C   UNL     1      -3.787  -1.433  24.536  0.00  0.00    +0.093 A 
ATOM     19  C   UNL     1      -3.065  -1.806  24.675  0.00  0.00    +0.176 A 
ATOM     20  N   UNL     1      -2.490  -1.435  25.135  0.00  0.00    -0.107 NA
ATOM     21  N   UNL     1      -2.918  -2.552  24.353  0.00  0.00    -0.206 NA
ATOM     22  C   UNL     1      -3.494  -2.923  23.893  0.00  0.00    +0.200 A 
ATOM     23  N   UNL     1      -4.216  -2.549  23.754  0.00  0.00    -0.222 NA
ATOM     24  C   UNL     1      -4.362  -1.804  24.076  0.00  0.00    +0.107 A 
ENDBRANCH  15  18
ENDBRANCH  12  13
TORSDOF 3
ENDMDL
MODEL 6
REMARK VINA RESULT:     -10.0      1.867      3.561
REMARK  Name = 
REMARK  3 active torsions:
REMARK  status: ('A' for Active; 'I' for Inactive)
REMARK    1  A    between atoms: C_5  and  N_8
REMARK    2  A    between atoms: C_12  and  C_13
REMARK    3  A    between atoms: C_15  and  C_18
REMARK                            x       y       z     vdW  Elec       q    Type
REMARK                         _______ _______ _______ _____ _____    ______ ____
ROOT
ATOM      8  N   UNL     1      -2.073   4.077  25.060  0.00  0.00    -0.268 NA
ATOM      9  C   UNL     1      -1.770   4.827  25.224  0.00  0.00    +0.072 C 
ATOM     10  C   UNL     1      -0.961   4.816  25.060  0.00  0.00    +0.019 C 
ATOM     11  C   UNL     1      -0.765   4.060  24.794  0.00  0.00    +0.027 C 
ATOM     12  C   UNL     1      -1.453   3.603  24.794  0.00  0.00    +0.138 C 
ENDROOT
BRANCH   8   5
ATOM      1  C   UNL     1      -5.219   3.139  25.405  0.00  0.00    +0.090 C 
ATOM      2  N   UNL     1      -4.431   3.374  25.319  0.00  0.00    -0.271 NA
ATOM      3  C   UNL     1      -3.925   3.367  25.971  0.00  0.00    +0.074 C 
ATOM      4  C   UNL     1      -3.139   3.602  25.884  0.00  0.00    +0.033 C 
ATOM      5  C   UNL     1      -2.859   3.843  25.146  0.00  0.00    +0.061 C 
ATOM      6  C   UNL     1      -3.366   3.849  24.495  0.00  0.00    +0.033 C 
ATOM      7  C   UNL     1      -4.152   3.615  24.582  0.00  0.00    +0.074 C 
ENDBRANCH   8   5
BRANCH  12  13
ATOM     13  C   UNL     1      -1.509   2.812  24.568  0.00  0.00    +0.251 A 
ATOM     14  N   UNL     1      -1.294   2.160  25.027  0.00  0.00    -0.189 NA
ATOM     15  C   UNL     1      -1.443   1.479  24.586  0.00  0.00    +0.208 A 
ATOM     16  N   UNL     1      -1.750   1.709  23.857  0.00  0.00    -0.056 NA
ATOM     17  O   UNL     1      -1.791   2.532  23.846  0.00  0.00    -0.336 OA
BRANCH  15  18
ATOM     18  C   UNL     1      -1.308   0.703  24.833  0.00  0.00    +0.093 A 
ATOM     19  C   UNL     1      -0.658   0.286  24.543  0.00  0.00    +0.176 A 
ATOM     20  N   UNL     1      -0.144   0.643  24.006  0.00  0.00    -0.107 NA
ATOM     21  N   UNL     1      -0.523  -0.490  24.789  0.00  0.00    -0.206 NA
ATOM     22  C   UNL     1      -1.037  -0.848  25.326  0.00  0.00    +0.200 A 
ATOM     23  N   UNL     1      -1.687  -0.430  25.617  0.00  0.00    -0.222 NA
ATOM     24  C   UNL     1      -1.822   0.346  25.370  0.00  0.00    +0.107 A 
ENDBRANCH  15  18
ENDBRANCH  12  13
TORSDOF 3
ENDMDL
