MODEL 1
REMARK VINA RESULT:     -15.1      0.000      0.000
REMARK  Name = 
REMARK  2 active torsions:
REMARK  status: ('A' for Active; 'I' for Inactive)
REMARK    1  A    between atoms: C_5  and  C_8
REMARK    2  A    between atoms: C_16  and  C_18
REMARK                            x       y       z     vdW  Elec       q    Type
REMARK                         _______ _______ _______ _____ _____    ______ ____
ROOT
ATOM      8  C   UNL     1      -3.730   0.135  24.800  0.00  0.00    +0.012 A 
ATOM      9  C   UNL     1      -3.007   0.533  24.799  0.00  0.00    +0.041 A 
ATOM     10  C   UNL     1      -2.106   0.376  24.706  0.00  0.00    +0.058 C 
ATOM     11  C   UNL     1      -1.646  -0.142  24.595  0.00  0.00    +0.011 C 
ATOM     12  C   UNL     1      -1.629   0.664  24.709  0.00  0.00    +0.043 C 
ATOM     13  C   UNL     1      -1.404   1.619  24.828  0.00  0.00    +0.096 C 
ATOM     14  N   UNL     1      -2.171   1.932  24.933  0.00  0.00    -0.273 N 
ATOM     15  C   UNL     1      -1.873   1.295  24.819  0.00  0.00    +0.100 C 
ATOM     16  C   UNL     1      -2.763   2.493  25.060  0.00  0.00    +0.284 C 
ATOM     17  O   UNL     1      -3.554   2.259  25.090  0.00  0.00    -0.267 OA
ATOM     23  C   UNL     1      -2.568   0.837  24.808  0.00  0.00    +0.110 C 
ATOM     24  N   UNL     1      -2.986   1.350  24.915  0.00  0.00    -0.299 N 
ATOM     25  C   UNL     1      -3.687   1.769  25.030  0.00  0.00    +0.261 A 
ATOM     26  O   UNL     1      -3.920   2.549  25.160  0.00  0.00    -0.267 OA
ATOM     27  C   UNL     1      -4.409   1.371  25.031  0.00  0.00    +0.061 A 
ATOM     28  C   UNL     1      -4.431   0.554  24.915  0.00  0.00    +0.006 A 
ENDROOT
BRANCH   8   5
ATOM      1 CL   UNL     1      -3.815  -3.131  24.340  0.00  0.00    -0.082 Cl
ATOM      2  C   UNL     1      -3.794  -2.315  24.455  0.00  0.00    +0.058 A 
ATOM      3  C   UNL     1      -3.633  -2.008  25.203  0.00  0.00    +0.011 A 
ATOM      4  C   UNL     1      -3.611  -1.192  25.318  0.00  0.00    +0.001 A 
ATOM      5  C   UNL     1      -3.751  -0.682  24.685  0.00  0.00    +0.001 A 
ATOM      6  C   UNL     1      -3.912  -0.989  23.936  0.00  0.00    +0.001 A 
ATOM      7  C   UNL     1      -3.934  -1.805  23.821  0.00  0.00    +0.011 A 
ENDBRANCH   8   5
BRANCH  16  18
ATOM     18  C   UNL     1      -2.563   3.287  25.158  0.00  0.00    +0.199 A 
ATOM     19  C   UNL     1      -2.434   3.670  25.878  0.00  0.00    +0.045 A 
ATOM     20  C   UNL     1      -2.249   4.458  25.717  0.00  0.00    +0.044 A 
ATOM     21  C   UNL     1      -2.264   4.562  24.899  0.00  0.00    +0.180 A 
ATOM     22  O   UNL     1      -2.458   3.839  24.553  0.00  0.00    -0.446 OA
ENDBRANCH  16  18
TORSDOF 2
ENDMDL
MODEL 2
REMARK VINA RESULT:     -14.4      2.175      4.457
REMARK  Name = 
REMARK  2 active torsions:
REMARK  status: ('A' for Active; 'I' for Inactive)
REMARK    1  A    between atoms: C_5  and  C_8
REMARK    2  A    between atoms: C_16  and  C_18
REMARK                            x       y       z     vdW  Elec       q    Type
REMARK                         _______ _______ _______ _____ _____    ______ ____
ROOT
ATOM      8  C   UNL     1      -1.599   2.028  25.219  0.00  0.00    +0.012 A 
ATOM      9  C   UNL     1      -2.268   1.674  24.891  0.00  0.00    +0.041 A 
ATOM     10  C   UNL     1      -3.042   1.887  24.444  0.00  0.00    +0.058 C 
ATOM     11  C   UNL     1      -3.398   2.436  24.190  0.00  0.00    +0.011 C 
ATOM     12  C   UNL     1      -3.486   1.627  24.229  0.00  0.00    +0.043 C 
ATOM     13  C   UNL     1      -3.770   0.682  24.175  0.00  0.00    +0.096 C 
ATOM     14  N   UNL     1      -3.126   0.320  24.566  0.00  0.00    -0.273 N 
ATOM     15  C   UNL     1      -3.330   0.978  24.384  0.00  0.00    +0.100 C 
ATOM     16  C   UNL     1      -2.659  -0.280  24.887  0.00  0.00    +0.284 C 
ATOM     17  O   UNL     1      -1.945  -0.094  25.257  0.00  0.00    -0.267 OA
ATOM     23  C   UNL     1      -2.680   1.395  24.695  0.00  0.00    +0.110 C 
ATOM     24  N   UNL     1      -2.360   0.855  24.928  0.00  0.00    -0.299 N 
ATOM     25  C   UNL     1      -1.784   0.390  25.293  0.00  0.00    +0.261 A 
ATOM     26  O   UNL     1      -1.651  -0.408  25.452  0.00  0.00    -0.267 OA
ATOM     27  C   UNL     1      -1.116   0.745  25.621  0.00  0.00    +0.061 A 
ATOM     28  C   UNL     1      -1.023   1.564  25.584  0.00  0.00    +0.006 A 
ENDROOT
BRANCH   8   5
ATOM      1 CL   UNL     1      -1.228   5.304  25.069  0.00  0.00    -0.082 Cl
ATOM      2  C   UNL     1      -1.321   4.486  25.107  0.00  0.00    +0.058 A 
ATOM      3  C   UNL     1      -1.771   4.148  25.710  0.00  0.00    +0.011 A 
ATOM      4  C   UNL     1      -1.863   3.329  25.748  0.00  0.00    +0.001 A 
ATOM      5  C   UNL     1      -1.506   2.847  25.181  0.00  0.00    +0.001 A 
ATOM      6  C   UNL     1      -1.057   3.184  24.578  0.00  0.00    +0.001 A 
ATOM      7  C   UNL     1      -0.964   4.004  24.540  0.00  0.00    +0.011 A 
ENDBRANCH   8   5
BRANCH  16  18
ATOM     18  C   UNL     1      -2.905  -1.065  24.836  0.00  0.00    +0.199 A 
ATOM     19  C   UNL     1      -3.343  -1.474  25.404  0.00  0.00    +0.045 A 
ATOM     20  C   UNL     1      -3.465  -2.242  25.127  0.00  0.00    +0.044 A 
ATOM     21  C   UNL     1      -3.104  -2.308  24.388  0.00  0.00    +0.180 A 
ATOM     22  O   UNL     1      -2.758  -1.581  24.208  0.00  0.00    -0.446 OA
ENDBRANCH  16  18
TORSDOF 2
ENDMDL
