MODEL 1
REMARK VINA RESULT:     -10.8      0.000      0.000
REMARK  Name = 
REMARK  7 active torsions:
REMARK  status: ('A' for Active; 'I' for Inactive)
REMARK    1  A    between atoms: N_2  and  C_4
REMARK    2  A    between atoms: C_7  and  C_10
REMARK    3  A    between atoms: C_16  and  C_18
REMARK    4  A    between atoms: N_20  and  C_21
REMARK    5  A    between atoms: C_21  and  C_22
REMARK    6  A    between atoms: C_21  and  C_29
REMARK    7  A    between atoms: C_22  and  C_23
REMARK                            x       y       z     vdW  Elec       q    Type
REMARK                         _______ _______ _______ _____ _____    ______ ____
ROOT
ATOM     10  C   UNL     1      -3.109   0.256  24.797  0.00  0.00    +0.249 C 
ATOM     11  O   UNL     1      -2.321   0.499  24.829  0.00  0.00    -0.270 OA
ATOM     12  N   UNL     1      -3.716   0.806  24.900  0.00  0.00    -0.272 N 
ATOM     13  C   UNL     1      -4.504   0.562  24.868  0.00  0.00    +0.115 C 
ATOM     14  C   UNL     1      -5.110   1.112  24.971  0.00  0.00    +0.115 C 
ATOM     15  N   UNL     1      -4.929   1.905  25.104  0.00  0.00    -0.270 N 
ATOM     16  C   UNL     1      -4.141   2.150  25.136  0.00  0.00    +0.174 C 
ATOM     17  C   UNL     1      -3.535   1.600  25.033  0.00  0.00    +0.123 C 
ATOM     32  C   UNL     1      -5.535   2.455  25.207  0.00  0.00    +0.227 C 
ATOM     33  C   UNL     1      -5.354   3.250  25.340  0.00  0.00    +0.095 C 
ATOM     34  O   UNL     1      -6.323   2.211  25.175  0.00  0.00    -0.275 OA
ENDROOT
BRANCH  10   7
ATOM      4  C   UNL     1      -3.652  -2.126  24.397  0.00  0.00    +0.048 A 
ATOM      5  C   UNL     1      -3.656  -1.590  23.769  0.00  0.00    +0.015 A 
ATOM      6  C   UNL     1      -3.476  -0.797  23.902  0.00  0.00    +0.006 A 
ATOM      7  C   UNL     1      -3.291  -0.539  24.664  0.00  0.00    +0.054 A 
ATOM      8  C   UNL     1      -3.286  -1.074  25.291  0.00  0.00    +0.006 A 
ATOM      9  C   UNL     1      -3.467  -1.867  25.158  0.00  0.00    +0.015 A 
BRANCH   4   2
ATOM      1  C   UNL     1      -3.398  -3.511  24.639  0.00  0.00    +0.112 C 
ATOM      2  N   UNL     1      -3.833  -2.919  24.263  0.00  0.00    -0.304 N 
ATOM      3  C   UNL     1      -4.449  -3.122  23.753  0.00  0.00    +0.112 C 
ENDBRANCH   4   2
ENDBRANCH  10   7
BRANCH  16  18
ATOM     18  C   UNL     1      -3.960   2.943  25.269  0.00  0.00    +0.262 C 
ATOM     19  O   UNL     1      -4.510   3.528  25.084  0.00  0.00    -0.271 OA
ATOM     20  N   UNL     1      -3.228   3.151  25.588  0.00  0.00    -0.196 NA
BRANCH  20  21
ATOM     21  C   UNL     1      -3.046   3.944  25.721  0.00  0.00    +0.174 C 
BRANCH  21  29
ATOM     29  C   UNL     1      -3.148   4.269  26.473  0.00  0.00    +0.281 C 
ATOM     30  N   UNL     1      -3.529   4.996  26.559  0.00  0.00    -0.086 NA
ATOM     31  O   UNL     1      -2.870   3.868  27.138  0.00  0.00    -0.270 OA
ENDBRANCH  21  29
BRANCH  21  22
ATOM     22  C   UNL     1      -2.762   4.412  25.105  0.00  0.00    +0.031 C 
BRANCH  22  23
ATOM     23  C   UNL     1      -1.948   4.490  24.987  0.00  0.00    +0.002 C 
ATOM     24  C   UNL     1      -1.488   3.823  24.830  0.00  0.00    +0.000 C 
ATOM     25  C   UNL     1      -0.676   3.902  24.712  0.00  0.00    +0.000 C 
ATOM     26  C   UNL     1      -0.323   4.646  24.751  0.00  0.00    +0.000 C 
ATOM     27  C   UNL     1      -0.783   5.313  24.909  0.00  0.00    +0.000 C 
ATOM     28  C   UNL     1      -1.596   5.235  25.027  0.00  0.00    +0.000 C 
ENDBRANCH  22  23
ENDBRANCH  21  22
ENDBRANCH  20  21
ENDBRANCH  16  18
TORSDOF 7
ENDMDL
MODEL 2
REMARK VINA RESULT:     -10.3      2.040      3.222
REMARK  Name = 
REMARK  7 active torsions:
REMARK  status: ('A' for Active; 'I' for Inactive)
REMARK    1  A    between atoms: N_2  and  C_4
REMARK    2  A    between atoms: C_7  and  C_10
REMARK    3  A    between atoms: C_16  and  C_18
REMARK    4  A    between atoms: N_20  and  C_21
REMARK    5  A    between atoms: C_21  and  C_22
REMARK    6  A    between atoms: C_21  and  C_29
REMARK    7  A    between atoms: C_22  and  C_23
REMARK                            x       y       z     vdW  Elec       q    Type
REMARK                         _______ _______ _______ _____ _____    ______ ____
ROOT
ATOM     10  C   UNL     1      -2.587  -0.222  25.055  0.00  0.00    +0.249 C 
ATOM     11  O   UNL     1      -2.917   0.251  25.646  0.00  0.00    -0.270 OA
ATOM     12  N   UNL     1      -1.857  -0.023  24.727  0.00  0.00    -0.272 N 
ATOM     13  C   UNL     1      -1.527  -0.496  24.137  0.00  0.00    +0.115 C 
ATOM     14  C   UNL     1      -0.796  -0.298  23.808  0.00  0.00    +0.115 C 
ATOM     15  N   UNL     1      -0.396   0.375  24.071  0.00  0.00    -0.270 N 
ATOM     16  C   UNL     1      -0.725   0.848  24.661  0.00  0.00    +0.174 C 
ATOM     17  C   UNL     1      -1.455   0.649  24.989  0.00  0.00    +0.123 C 
ATOM     32  C   UNL     1       0.334   0.573  23.743  0.00  0.00    +0.227 C 
ATOM     33  C   UNL     1       0.736   1.246  24.005  0.00  0.00    +0.095 C 
ATOM     34  O   UNL     1       0.665   0.100  23.152  0.00  0.00    -0.275 OA
ENDROOT
BRANCH  10   7
ATOM      4  C   UNL     1      -3.790  -2.237  24.269  0.00  0.00    +0.048 A 
ATOM      5  C   UNL     1      -3.223  -2.301  24.866  0.00  0.00    +0.015 A 
ATOM      6  C   UNL     1      -2.822  -1.630  25.128  0.00  0.00    +0.006 A 
ATOM      7  C   UNL     1      -2.988  -0.894  24.793  0.00  0.00    +0.054 A 
ATOM      8  C   UNL     1      -3.555  -0.831  24.197  0.00  0.00    +0.006 A 
ATOM      9  C   UNL     1      -3.955  -1.502  23.935  0.00  0.00    +0.015 A 
BRANCH   4   2
ATOM      1  C   UNL     1      -3.924  -3.659  24.227  0.00  0.00    +0.112 C 
ATOM      2  N   UNL     1      -4.190  -2.910  24.008  0.00  0.00    -0.304 N 
ATOM      3  C   UNL     1      -4.856  -2.833  23.528  0.00  0.00    +0.112 C 
ENDBRANCH   4   2
ENDBRANCH  10   7
BRANCH  16  18
ATOM     18  C   UNL     1      -0.325   1.519  24.923  0.00  0.00    +0.262 C 
ATOM     19  O   UNL     1       0.457   1.648  24.697  0.00  0.00    -0.271 OA
ATOM     20  N   UNL     1      -0.707   2.063  25.412  0.00  0.00    -0.196 NA
BRANCH  20  21
ATOM     21  C   UNL     1      -0.307   2.735  25.675  0.00  0.00    +0.174 C 
BRANCH  21  29
ATOM     29  C   UNL     1       0.079   2.726  26.404  0.00  0.00    +0.281 C 
ATOM     30  N   UNL     1       0.864   2.974  26.457  0.00  0.00    -0.086 NA
ATOM     31  O   UNL     1      -0.319   2.468  27.079  0.00  0.00    -0.270 OA
ENDBRANCH  21  29
BRANCH  21  22
ATOM     22  C   UNL     1      -0.294   3.415  25.210  0.00  0.00    +0.031 C 
BRANCH  22  23
ATOM     23  C   UNL     1      -0.910   3.962  25.260  0.00  0.00    +0.002 C 
ATOM     24  C   UNL     1      -1.639   3.735  25.573  0.00  0.00    +0.000 C 
ATOM     25  C   UNL     1      -2.254   4.281  25.623  0.00  0.00    +0.000 C 
ATOM     26  C   UNL     1      -2.142   5.055  25.359  0.00  0.00    +0.000 C 
ATOM     27  C   UNL     1      -1.414   5.282  25.046  0.00  0.00    +0.000 C 
ATOM     28  C   UNL     1      -0.797   4.735  24.996  0.00  0.00    +0.000 C 
ENDBRANCH  22  23
ENDBRANCH  21  22
ENDBRANCH  20  21
ENDBRANCH  16  18
TORSDOF 7
ENDMDL
MODEL 3
REMARK VINA RESULT:      -9.4      2.156      6.311
REMARK  Name = 
REMARK  7 active torsions:
REMARK  status: ('A' for Active; 'I' for Inactive)
REMARK    1  A    between atoms: N_2  and  C_4
REMARK    2  A    between atoms: C_7  and  C_10
REMARK    3  A    between atoms: C_16  and  C_18
REMARK    4  A    between atoms: N_20  and  C_21
REMARK    5  A    between atoms: C_21  and  C_22
REMARK    6  A    between atoms: C_21  and  C_29
REMARK    7  A    between atoms: C_22  and  C_23
REMARK                            x       y       z     vdW  Elec       q    Type
REMARK                         _______ _______ _______ _____ _____    ______ ____
ROOT
ATOM     10  C   UNL     1      -1.692   2.106  25.171  0.00  0.00    +0.249 C 
ATOM     11  O   UNL     1      -2.287   1.754  25.623  0.00  0.00    -0.270 OA
ATOM     12  N   UNL     1      -1.160   1.637  24.750  0.00  0.00    -0.272 N 
ATOM     13  C   UNL     1      -0.566   1.990  24.298  0.00  0.00    +0.115 C 
ATOM     14  C   UNL     1      -0.034   1.520  23.878  0.00  0.00    +0.115 C 
ATOM     15  N   UNL     1      -0.096   0.698  23.909  0.00  0.00    -0.270 N 
ATOM     16  C   UNL     1      -0.690   0.345  24.360  0.00  0.00    +0.174 C 
ATOM     17  C   UNL     1      -1.222   0.814  24.781  0.00  0.00    +0.123 C 
ATOM     32  C   UNL     1       0.436   0.228  23.488  0.00  0.00    +0.227 C 
ATOM     33  C   UNL     1       0.374  -0.595  23.519  0.00  0.00    +0.095 C 
ATOM     34  O   UNL     1       1.030   0.581  23.036  0.00  0.00    -0.275 OA
ENDROOT
BRANCH  10   7
ATOM      4  C   UNL     1      -1.508   4.573  25.079  0.00  0.00    +0.048 A 
ATOM      5  C   UNL     1      -1.049   4.144  25.614  0.00  0.00    +0.015 A 
ATOM      6  C   UNL     1      -1.110   3.322  25.645  0.00  0.00    +0.006 A 
ATOM      7  C   UNL     1      -1.631   2.929  25.140  0.00  0.00    +0.054 A 
ATOM      8  C   UNL     1      -2.091   3.358  24.606  0.00  0.00    +0.006 A 
ATOM      9  C   UNL     1      -2.029   4.179  24.576  0.00  0.00    +0.015 A 
BRANCH   4   2
ATOM      1  C   UNL     1      -2.074   5.865  25.305  0.00  0.00    +0.112 C 
ATOM      2  N   UNL     1      -1.446   5.395  25.049  0.00  0.00    -0.304 N 
ATOM      3  C   UNL     1      -0.757   5.747  24.764  0.00  0.00    +0.112 C 
ENDBRANCH   4   2
ENDBRANCH  10   7
BRANCH  16  18
ATOM     18  C   UNL     1      -0.751  -0.477  24.391  0.00  0.00    +0.262 C 
ATOM     19  O   UNL     1      -0.140  -0.948  24.102  0.00  0.00    -0.271 OA
ATOM     20  N   UNL     1      -1.426  -0.828  24.711  0.00  0.00    -0.196 NA
BRANCH  20  21
ATOM     21  C   UNL     1      -1.488  -1.650  24.743  0.00  0.00    +0.174 C 
BRANCH  21  29
ATOM     29  C   UNL     1      -1.153  -2.065  25.373  0.00  0.00    +0.281 C 
ATOM     30  N   UNL     1      -0.733  -2.761  25.230  0.00  0.00    -0.086 NA
ATOM     31  O   UNL     1      -1.238  -1.784  26.144  0.00  0.00    -0.270 OA
ENDBRANCH  21  29
BRANCH  21  22
ATOM     22  C   UNL     1      -1.885  -2.056  24.146  0.00  0.00    +0.031 C 
BRANCH  22  23
ATOM     23  C   UNL     1      -2.709  -2.115  24.163  0.00  0.00    +0.002 C 
ATOM     24  C   UNL     1      -3.173  -1.489  23.894  0.00  0.00    +0.000 C 
ATOM     25  C   UNL     1      -3.995  -1.548  23.912  0.00  0.00    +0.000 C 
ATOM     26  C   UNL     1      -4.354  -2.233  24.198  0.00  0.00    +0.000 C 
ATOM     27  C   UNL     1      -3.890  -2.860  24.467  0.00  0.00    +0.000 C 
ATOM     28  C   UNL     1      -3.066  -2.801  24.450  0.00  0.00    +0.000 C 
ENDBRANCH  22  23
ENDBRANCH  21  22
ENDBRANCH  20  21
ENDBRANCH  16  18
TORSDOF 7
ENDMDL
MODEL 4
REMARK VINA RESULT:      -8.9      3.250      5.418
REMARK  Name = 
REMARK  7 active torsions:
REMARK  status: ('A' for Active; 'I' for Inactive)
REMARK    1  A    between atoms: N_2  and  C_4
REMARK    2  A    between atoms: C_7  and  C_10
REMARK    3  A    between atoms: C_16  and  C_18
REMARK    4  A    between atoms: N_20  and  C_21
REMARK    5  A    between atoms: C_21  and  C_22
REMARK    6  A    between atoms: C_21  and  C_29
REMARK    7  A    between atoms: C_22  and  C_23
REMARK                            x       y       z     vdW  Elec       q    Type
REMARK                         _______ _______ _______ _____ _____    ______ ____
ROOT
ATOM     10  C   UNL     1       0.194  -0.073  23.498  0.00  0.00    +0.249 C 
ATOM     11  O   UNL     1      -0.165  -0.814  23.428  0.00  0.00    -0.270 OA
ATOM     12  N   UNL     1      -0.214   0.551  23.852  0.00  0.00    -0.272 N 
ATOM     13  C   UNL     1       0.145   1.291  23.923  0.00  0.00    +0.115 C 
ATOM     14  C   UNL     1      -0.263   1.915  24.277  0.00  0.00    +0.115 C 
ATOM     15  N   UNL     1      -1.028   1.798  24.562  0.00  0.00    -0.270 N 
ATOM     16  C   UNL     1      -1.387   1.058  24.492  0.00  0.00    +0.174 C 
ATOM     17  C   UNL     1      -0.980   0.434  24.137  0.00  0.00    +0.123 C 
ATOM     32  C   UNL     1      -1.436   2.421  24.916  0.00  0.00    +0.227 C 
ATOM     33  C   UNL     1      -2.202   2.305  25.201  0.00  0.00    +0.095 C 
ATOM     34  O   UNL     1      -1.077   3.162  24.987  0.00  0.00    -0.275 OA
ENDROOT
BRANCH  10   7
ATOM      4  C   UNL     1       2.490   0.275  22.644  0.00  0.00    +0.048 A 
ATOM      5  C   UNL     1       1.882   0.076  22.123  0.00  0.00    +0.015 A 
ATOM      6  C   UNL     1       1.117  -0.040  22.407  0.00  0.00    +0.006 A 
ATOM      7  C   UNL     1       0.960   0.043  23.213  0.00  0.00    +0.054 A 
ATOM      8  C   UNL     1       1.568   0.242  23.733  0.00  0.00    +0.006 A 
ATOM      9  C   UNL     1       2.333   0.358  23.449  0.00  0.00    +0.015 A 
BRANCH   4   2
ATOM      1  C   UNL     1       3.818   0.769  22.829  0.00  0.00    +0.112 C 
ATOM      2  N   UNL     1       3.256   0.391  22.358  0.00  0.00    -0.304 N 
ATOM      3  C   UNL     1       3.459   0.130  21.603  0.00  0.00    +0.112 C 
ENDBRANCH   4   2
ENDBRANCH  10   7
BRANCH  16  18
ATOM     18  C   UNL     1      -2.152   0.942  24.776  0.00  0.00    +0.262 C 
ATOM     19  O   UNL     1      -2.392   1.307  25.476  0.00  0.00    -0.271 OA
ATOM     20  N   UNL     1      -2.678   0.460  24.361  0.00  0.00    -0.196 NA
BRANCH  20  21
ATOM     21  C   UNL     1      -3.443   0.343  24.645  0.00  0.00    +0.174 C 
BRANCH  21  29
ATOM     29  C   UNL     1      -4.056   0.834  24.391  0.00  0.00    +0.281 C 
ATOM     30  N   UNL     1      -4.626   1.094  24.928  0.00  0.00    -0.086 NA
ATOM     31  O   UNL     1      -4.100   1.063  23.599  0.00  0.00    -0.270 OA
ENDBRANCH  21  29
BRANCH  21  22
ATOM     22  C   UNL     1      -3.596  -0.263  25.182  0.00  0.00    +0.031 C 
BRANCH  22  23
ATOM     23  C   UNL     1      -3.654  -1.043  24.919  0.00  0.00    +0.002 C 
ATOM     24  C   UNL     1      -3.275  -1.648  25.334  0.00  0.00    +0.000 C 
ATOM     25  C   UNL     1      -3.333  -2.427  25.071  0.00  0.00    +0.000 C 
ATOM     26  C   UNL     1      -3.770  -2.603  24.393  0.00  0.00    +0.000 C 
ATOM     27  C   UNL     1      -4.149  -1.998  23.979  0.00  0.00    +0.000 C 
ATOM     28  C   UNL     1      -4.091  -1.218  24.242  0.00  0.00    +0.000 C 
ENDBRANCH  22  23
ENDBRANCH  21  22
ENDBRANCH  20  21
ENDBRANCH  16  18
TORSDOF 7
ENDMDL
MODEL 5
REMARK VINA RESULT:      -8.8      1.372      5.467
REMARK  Name = 
REMARK  7 active torsions:
REMARK  status: ('A' for Active; 'I' for Inactive)
REMARK    1  A    between atoms: N_2  and  C_4
REMARK    2  A    between atoms: C_7  and  C_10
REMARK    3  A    between atoms: C_16  and  C_18
REMARK    4  A    between atoms: N_20  and  C_21
REMARK    5  A    between atoms: C_21  and  C_22
REMARK    6  A    between atoms: C_21  and  C_29
REMARK    7  A    between atoms: C_22  and  C_23
REMARK                            x       y       z     vdW  Elec       q    Type
REMARK                         _______ _______ _______ _____ _____    ______ ____
ROOT
ATOM     10  C   UNL     1      -1.953   2.174  24.890  0.00  0.00    +0.249 C 
ATOM     11  O   UNL     1      -1.348   1.614  24.841  0.00  0.00    -0.270 OA
ATOM     12  N   UNL     1      -2.740   1.929  24.915  0.00  0.00    -0.272 N 
ATOM     13  C   UNL     1      -3.345   2.489  24.964  0.00  0.00    +0.115 C 
ATOM     14  C   UNL     1      -4.133   2.245  24.989  0.00  0.00    +0.115 C 
ATOM     15  N   UNL     1      -4.315   1.440  24.966  0.00  0.00    -0.270 N 
ATOM     16  C   UNL     1      -3.711   0.880  24.917  0.00  0.00    +0.174 C 
ATOM     17  C   UNL     1      -2.924   1.125  24.892  0.00  0.00    +0.123 C 
ATOM     32  C   UNL     1      -5.103   1.196  24.991  0.00  0.00    +0.227 C 
ATOM     33  C   UNL     1      -5.286   0.391  24.968  0.00  0.00    +0.095 C 
ATOM     34  O   UNL     1      -5.708   1.756  25.040  0.00  0.00    -0.275 OA
ENDROOT
BRANCH  10   7
ATOM      4  C   UNL     1      -1.402   4.586  24.960  0.00  0.00    +0.048 A 
ATOM      5  C   UNL     1      -1.567   4.180  25.659  0.00  0.00    +0.015 A 
ATOM      6  C   UNL     1      -1.751   3.376  25.636  0.00  0.00    +0.006 A 
ATOM      7  C   UNL     1      -1.769   2.978  24.913  0.00  0.00    +0.054 A 
ATOM      8  C   UNL     1      -1.604   3.385  24.214  0.00  0.00    +0.006 A 
ATOM      9  C   UNL     1      -1.421   4.188  24.238  0.00  0.00    +0.015 A 
BRANCH   4   2
ATOM      1  C   UNL     1      -0.460   5.646  24.785  0.00  0.00    +0.112 C 
ATOM      2  N   UNL     1      -1.219   5.390  24.984  0.00  0.00    -0.304 N 
ATOM      3  C   UNL     1      -1.793   5.938  25.207  0.00  0.00    +0.112 C 
ENDBRANCH   4   2
ENDBRANCH  10   7
BRANCH  16  18
ATOM     18  C   UNL     1      -3.894   0.077  24.894  0.00  0.00    +0.262 C 
ATOM     19  O   UNL     1      -4.523  -0.217  25.340  0.00  0.00    -0.271 OA
ATOM     20  N   UNL     1      -3.449  -0.434  24.424  0.00  0.00    -0.196 NA
BRANCH  20  21
ATOM     21  C   UNL     1      -3.631  -1.238  24.400  0.00  0.00    +0.174 C 
BRANCH  21  29
ATOM     29  C   UNL     1      -4.118  -1.533  23.802  0.00  0.00    +0.281 C 
ATOM     30  N   UNL     1      -4.673  -2.118  23.975  0.00  0.00    -0.086 NA
ATOM     31  O   UNL     1      -4.050  -1.241  23.034  0.00  0.00    -0.270 OA
ENDBRANCH  21  29
BRANCH  21  22
ATOM     22  C   UNL     1      -3.327  -1.748  24.972  0.00  0.00    +0.031 C 
BRANCH  22  23
ATOM     23  C   UNL     1      -2.539  -1.990  24.933  0.00  0.00    +0.002 C 
ATOM     24  C   UNL     1      -2.298  -2.520  24.348  0.00  0.00    +0.000 C 
ATOM     25  C   UNL     1      -1.511  -2.761  24.309  0.00  0.00    +0.000 C 
ATOM     26  C   UNL     1      -0.963  -2.473  24.854  0.00  0.00    +0.000 C 
ATOM     27  C   UNL     1      -1.203  -1.943  25.439  0.00  0.00    +0.000 C 
ATOM     28  C   UNL     1      -1.992  -1.701  25.479  0.00  0.00    +0.000 C 
ENDBRANCH  22  23
ENDBRANCH  21  22
ENDBRANCH  20  21
ENDBRANCH  16  18
TORSDOF 7
ENDMDL
MODEL 6
REMARK VINA RESULT:      -8.4      3.228      5.366
REMARK  Name = 
REMARK  7 active torsions:
REMARK  status: ('A' for Active; 'I' for Inactive)
REMARK    1  A    between atoms: N_2  and  C_4
REMARK    2  A    between atoms: C_7  and  C_10
REMARK    3  A    between atoms: C_16  and  C_18
REMARK    4  A    between atoms: N_20  and  C_21
REMARK    5  A    between atoms: C_21  and  C_22
REMARK    6  A    between atoms: C_21  and  C_29
REMARK    7  A    between atoms: C_22  and  C_23
REMARK                            x       y       z     vdW  Elec       q    Type
REMARK                         _______ _______ _______ _____ _____    ______ ____
ROOT
ATOM     10  C   UNL     1       0.005   0.567  23.506  0.00  0.00    +0.249 C 
ATOM     11  O   UNL     1      -0.442   1.223  23.279  0.00  0.00    -0.270 OA
ATOM     12  N   UNL     1      -0.349  -0.047  23.929  0.00  0.00    -0.272 N 
ATOM     13  C   UNL     1       0.098  -0.703  24.157  0.00  0.00    +0.115 C 
ATOM     14  C   UNL     1      -0.256  -1.316  24.580  0.00  0.00    +0.115 C 
ATOM     15  N   UNL     1      -1.056  -1.274  24.775  0.00  0.00    -0.270 N 
ATOM     16  C   UNL     1      -1.504  -0.619  24.549  0.00  0.00    +0.174 C 
ATOM     17  C   UNL     1      -1.150  -0.005  24.126  0.00  0.00    +0.123 C 
ATOM     32  C   UNL     1      -1.410  -1.888  25.199  0.00  0.00    +0.227 C 
ATOM     33  C   UNL     1      -2.211  -1.846  25.395  0.00  0.00    +0.095 C 
ATOM     34  O   UNL     1      -0.963  -2.544  25.426  0.00  0.00    -0.275 OA
ENDROOT
BRANCH  10   7
ATOM      4  C   UNL     1       2.405   0.442  22.918  0.00  0.00    +0.048 A 
ATOM      5  C   UNL     1       2.155   0.937  23.528  0.00  0.00    +0.015 A 
ATOM      6  C   UNL     1       1.355   0.979  23.724  0.00  0.00    +0.006 A 
ATOM      7  C   UNL     1       0.806   0.525  23.310  0.00  0.00    +0.054 A 
ATOM      8  C   UNL     1       1.056   0.030  22.700  0.00  0.00    +0.006 A 
ATOM      9  C   UNL     1       1.855  -0.012  22.504  0.00  0.00    +0.015 A 
BRANCH   4   2
ATOM      1  C   UNL     1       3.616  -0.310  22.813  0.00  0.00    +0.112 C 
ATOM      2  N   UNL     1       3.206   0.401  22.722  0.00  0.00    -0.304 N 
ATOM      3  C   UNL     1       3.596   1.068  22.436  0.00  0.00    +0.112 C 
ENDBRANCH   4   2
ENDBRANCH  10   7
BRANCH  16  18
ATOM     18  C   UNL     1      -2.303  -0.577  24.744  0.00  0.00    +0.262 C 
ATOM     19  O   UNL     1      -2.585  -0.966  25.414  0.00  0.00    -0.271 OA
ATOM     20  N   UNL     1      -2.822  -0.145  24.270  0.00  0.00    -0.196 NA
BRANCH  20  21
ATOM     21  C   UNL     1      -3.622  -0.102  24.465  0.00  0.00    +0.174 C 
BRANCH  21  29
ATOM     29  C   UNL     1      -4.167  -0.586  24.077  0.00  0.00    +0.281 C 
ATOM     30  N   UNL     1      -4.737  -0.995  24.511  0.00  0.00    -0.086 NA
ATOM     31  O   UNL     1      -4.142  -0.659  23.255  0.00  0.00    -0.270 OA
ENDBRANCH  21  29
BRANCH  21  22
ATOM     22  C   UNL     1      -3.877   0.422  25.047  0.00  0.00    +0.031 C 
BRANCH  22  23
ATOM     23  C   UNL     1      -4.168   1.165  24.835  0.00  0.00    +0.002 C 
ATOM     24  C   UNL     1      -3.669   1.717  24.479  0.00  0.00    +0.000 C 
ATOM     25  C   UNL     1      -3.959   2.459  24.267  0.00  0.00    +0.000 C 
ATOM     26  C   UNL     1      -4.749   2.650  24.410  0.00  0.00    +0.000 C 
ATOM     27  C   UNL     1      -5.249   2.098  24.766  0.00  0.00    +0.000 C 
ATOM     28  C   UNL     1      -4.958   1.355  24.978  0.00  0.00    +0.000 C 
ENDBRANCH  22  23
ENDBRANCH  21  22
ENDBRANCH  20  21
ENDBRANCH  16  18
TORSDOF 7
ENDMDL
MODEL 7
REMARK VINA RESULT:      -8.3      2.292      5.416
REMARK  Name = 
REMARK  7 active torsions:
REMARK  status: ('A' for Active; 'I' for Inactive)
REMARK    1  A    between atoms: N_2  and  C_4
REMARK    2  A    between atoms: C_7  and  C_10
REMARK    3  A    between atoms: C_16  and  C_18
REMARK    4  A    between atoms: N_20  and  C_21
REMARK    5  A    between atoms: C_21  and  C_22
REMARK    6  A    between atoms: C_21  and  C_29
REMARK    7  A    between atoms: C_22  and  C_23
REMARK                            x       y       z     vdW  Elec       q    Type
REMARK                         _______ _______ _______ _____ _____    ______ ____
ROOT
ATOM     10  C   UNL     1      -3.360   1.935  24.550  0.00  0.00    +0.249 C 
ATOM     11  O   UNL     1      -3.536   1.300  24.053  0.00  0.00    -0.270 OA
ATOM     12  N   UNL     1      -2.586   2.055  24.808  0.00  0.00    -0.272 N 
ATOM     13  C   UNL     1      -2.410   2.690  25.305  0.00  0.00    +0.115 C 
ATOM     14  C   UNL     1      -1.636   2.810  25.564  0.00  0.00    +0.115 C 
ATOM     15  N   UNL     1      -1.037   2.294  25.325  0.00  0.00    -0.270 N 
ATOM     16  C   UNL     1      -1.212   1.659  24.828  0.00  0.00    +0.174 C 
ATOM     17  C   UNL     1      -1.987   1.539  24.569  0.00  0.00    +0.123 C 
ATOM     32  C   UNL     1      -0.263   2.414  25.583  0.00  0.00    +0.227 C 
ATOM     33  C   UNL     1       0.336   1.898  25.344  0.00  0.00    +0.095 C 
ATOM     34  O   UNL     1      -0.087   3.049  26.080  0.00  0.00    -0.275 OA
ENDROOT
BRANCH  10   7
ATOM      4  C   UNL     1      -5.156   3.480  25.265  0.00  0.00    +0.048 A 
ATOM      5  C   UNL     1      -5.046   2.764  25.661  0.00  0.00    +0.015 A 
ATOM      6  C   UNL     1      -4.447   2.249  25.422  0.00  0.00    +0.006 A 
ATOM      7  C   UNL     1      -3.960   2.451  24.789  0.00  0.00    +0.054 A 
ATOM      8  C   UNL     1      -4.070   3.166  24.393  0.00  0.00    +0.006 A 
ATOM      9  C   UNL     1      -4.668   3.681  24.632  0.00  0.00    +0.015 A 
BRANCH   4   2
ATOM      1  C   UNL     1      -5.643   4.810  25.454  0.00  0.00    +0.112 C 
ATOM      2  N   UNL     1      -5.756   3.995  25.504  0.00  0.00    -0.304 N 
ATOM      3  C   UNL     1      -6.467   3.695  25.794  0.00  0.00    +0.112 C 
ENDBRANCH   4   2
ENDBRANCH  10   7
BRANCH  16  18
ATOM     18  C   UNL     1      -0.614   1.144  24.589  0.00  0.00    +0.262 C 
ATOM     19  O   UNL     1       0.175   1.334  24.733  0.00  0.00    -0.271 OA
ATOM     20  N   UNL     1      -0.806   0.439  24.207  0.00  0.00    -0.196 NA
BRANCH  20  21
ATOM     21  C   UNL     1      -0.208  -0.077  23.968  0.00  0.00    +0.174 C 
BRANCH  21  29
ATOM     29  C   UNL     1       0.205   0.067  23.267  0.00  0.00    +0.281 C 
ATOM     30  N   UNL     1       1.015  -0.079  23.229  0.00  0.00    -0.086 NA
ATOM     31  O   UNL     1      -0.194   0.356  22.605  0.00  0.00    -0.270 OA
ENDBRANCH  21  29
BRANCH  21  22
ATOM     22  C   UNL     1      -0.022  -0.735  24.428  0.00  0.00    +0.031 C 
BRANCH  22  23
ATOM     23  C   UNL     1      -0.589  -1.322  24.557  0.00  0.00    +0.002 C 
ATOM     24  C   UNL     1      -0.815  -1.515  25.326  0.00  0.00    +0.000 C 
ATOM     25  C   UNL     1      -1.380  -2.101  25.455  0.00  0.00    +0.000 C 
ATOM     26  C   UNL     1      -1.720  -2.494  24.814  0.00  0.00    +0.000 C 
ATOM     27  C   UNL     1      -1.494  -2.301  24.045  0.00  0.00    +0.000 C 
ATOM     28  C   UNL     1      -0.928  -1.714  23.916  0.00  0.00    +0.000 C 
ENDBRANCH  22  23
ENDBRANCH  21  22
ENDBRANCH  20  21
ENDBRANCH  16  18
TORSDOF 7
ENDMDL
