MODEL 1
REMARK VINA RESULT:     -12.1      0.000      0.000
REMARK  Name = 
REMARK  6 active torsions:
REMARK  status: ('A' for Active; 'I' for Inactive)
REMARK    1  A    between atoms: C_2  and  C_4
REMARK    2  A    between atoms: C_6  and  C_7
REMARK    3  A    between atoms: C_7  and  C_8
REMARK    4  A    between atoms: C_21  and  C_22
REMARK    5  A    between atoms: C_22  and  N_23
REMARK    6  A    between atoms: N_23  and  C_24
REMARK                            x       y       z     vdW  Elec       q    Type
REMARK                         _______ _______ _______ _____ _____    ______ ____
ROOT
ATOM      4  C   UNL     1      -2.956   1.830  23.937  0.00  0.00    +0.006 C 
ATOM      5  C   UNL     1      -3.498   1.208  23.964  0.00  0.00    +0.005 C 
ATOM      6  C   UNL     1      -4.114   1.221  24.512  0.00  0.00    +0.026 C 
ATOM     18  C   UNL     1      -4.189   1.857  25.034  0.00  0.00    -0.048 C 
ATOM     19  C   UNL     1      -4.805   1.870  25.582  0.00  0.00    +0.026 C 
ATOM     20  C   UNL     1      -3.647   2.478  25.007  0.00  0.00    -0.033 C 
ATOM     21  C   UNL     1      -3.030   2.465  24.458  0.00  0.00    +0.039 C 
ENDROOT
BRANCH   4   2
ATOM      1  C   UNL     1      -1.617   1.474  23.589  0.00  0.00    +0.000 C 
ATOM      2  C   UNL     1      -2.340   1.817  23.389  0.00  0.00    +0.000 C 
ATOM      3  C   UNL     1      -2.447   2.147  22.639  0.00  0.00    +0.000 C 
ENDBRANCH   4   2
BRANCH   6   7
ATOM      7  C   UNL     1      -4.656   0.600  24.539  0.00  0.00    +0.070 C 
BRANCH   7   8
ATOM      8  C   UNL     1      -4.389  -0.178  24.595  0.00  0.00    +0.139 A 
ATOM      9  N   UNL     1      -4.017  -0.518  25.248  0.00  0.00    -0.229 NA
ATOM     10  C   UNL     1      -3.846  -1.303  25.065  0.00  0.00    +0.100 A 
ATOM     11  C   UNL     1      -4.112  -1.449  24.297  0.00  0.00    +0.101 A 
ATOM     12  N   UNL     1      -4.448  -0.755  24.007  0.00  0.00    -0.229 NA
ATOM     13  C   UNL     1      -4.014  -2.197  23.963  0.00  0.00    +0.032 A 
ATOM     14  C   UNL     1      -3.650  -2.798  24.395  0.00  0.00    +0.059 A 
ATOM     15 CL   UNL     1      -3.552  -3.545  24.060  0.00  0.00    -0.082 Cl
ATOM     16  C   UNL     1      -3.384  -2.652  25.162  0.00  0.00    +0.013 A 
ATOM     17  C   UNL     1      -3.482  -1.905  25.497  0.00  0.00    +0.022 A 
ENDBRANCH   7   8
ENDBRANCH   6   7
BRANCH  21  22
ATOM     22  C   UNL     1      -2.489   3.087  24.432  0.00  0.00    +0.093 C 
BRANCH  22  23
ATOM     23  N   UNL     1      -2.392   3.578  25.087  0.00  0.00    -0.219 NA
BRANCH  23  24
ATOM     24  C   UNL     1      -1.863   4.211  25.054  0.00  0.00    +0.078 C 
ATOM     25  C   UNL     1      -1.051   4.070  25.051  0.00  0.00    +0.050 C 
ATOM     26  C   UNL     1      -0.522   4.703  25.019  0.00  0.00    +0.144 C 
ATOM     27  O   UNL     1      -0.807   5.476  24.990  0.00  0.00    -0.354 OA
ATOM     28  C   UNL     1      -1.620   5.618  24.993  0.00  0.00    +0.144 C 
ATOM     29  C   UNL     1      -2.148   4.985  25.025  0.00  0.00    +0.050 C 
ENDBRANCH  23  24
ENDBRANCH  22  23
ENDBRANCH  21  22
TORSDOF 6
ENDMDL
MODEL 2
REMARK VINA RESULT:     -11.7      2.602      5.471
REMARK  Name = 
REMARK  6 active torsions:
REMARK  status: ('A' for Active; 'I' for Inactive)
REMARK    1  A    between atoms: C_2  and  C_4
REMARK    2  A    between atoms: C_6  and  C_7
REMARK    3  A    between atoms: C_7  and  C_8
REMARK    4  A    between atoms: C_21  and  C_22
REMARK    5  A    between atoms: C_22  and  N_23
REMARK    6  A    between atoms: N_23  and  C_24
REMARK                            x       y       z     vdW  Elec       q    Type
REMARK                         _______ _______ _______ _____ _____    ______ ____
ROOT
ATOM      4  C   UNL     1      -3.446   0.995  23.999  0.00  0.00    +0.006 C 
ATOM      5  C   UNL     1      -3.596   1.794  24.143  0.00  0.00    +0.005 C 
ATOM      6  C   UNL     1      -4.257   2.016  24.584  0.00  0.00    +0.026 C 
ATOM     18  C   UNL     1      -4.768   1.439  24.881  0.00  0.00    -0.048 C 
ATOM     19  C   UNL     1      -5.429   1.661  25.322  0.00  0.00    +0.026 C 
ATOM     20  C   UNL     1      -4.617   0.641  24.736  0.00  0.00    -0.033 C 
ATOM     21  C   UNL     1      -3.956   0.419  24.296  0.00  0.00    +0.039 C 
ENDROOT
BRANCH   4   2
ATOM      1  C   UNL     1      -2.834   0.725  22.737  0.00  0.00    +0.000 C 
ATOM      2  C   UNL     1      -2.785   0.774  23.559  0.00  0.00    +0.000 C 
ATOM      3  C   UNL     1      -2.073   0.601  23.940  0.00  0.00    +0.000 C 
ENDBRANCH   4   2
BRANCH   6   7
ATOM      7  C   UNL     1      -4.408   2.814  24.729  0.00  0.00    +0.070 C 
BRANCH   7   8
ATOM      8  C   UNL     1      -3.789   3.323  24.921  0.00  0.00    +0.139 A 
ATOM      9  N   UNL     1      -3.460   3.426  25.670  0.00  0.00    -0.229 NA
ATOM     10  C   UNL     1      -2.858   3.986  25.610  0.00  0.00    +0.100 A 
ATOM     11  C   UNL     1      -2.814   4.229  24.823  0.00  0.00    +0.101 A 
ATOM     12  N   UNL     1      -3.389   3.820  24.397  0.00  0.00    -0.229 NA
ATOM     13  C   UNL     1      -2.255   4.793  24.596  0.00  0.00    +0.032 A 
ATOM     14  C   UNL     1      -1.741   5.112  25.156  0.00  0.00    +0.059 A 
ATOM     15 CL   UNL     1      -1.183   5.675  24.929  0.00  0.00    -0.082 Cl
ATOM     16  C   UNL     1      -1.784   4.868  25.943  0.00  0.00    +0.013 A 
ATOM     17  C   UNL     1      -2.342   4.305  26.170  0.00  0.00    +0.022 A 
ENDBRANCH   7   8
ENDBRANCH   6   7
BRANCH  21  22
ATOM     22  C   UNL     1      -3.806  -0.379  24.151  0.00  0.00    +0.093 C 
BRANCH  22  23
ATOM     23  N   UNL     1      -4.254  -0.958  24.530  0.00  0.00    -0.219 NA
BRANCH  23  24
ATOM     24  C   UNL     1      -4.038  -1.753  24.470  0.00  0.00    +0.078 C 
ATOM     25  C   UNL     1      -4.298  -2.204  23.831  0.00  0.00    +0.050 C 
ATOM     26  C   UNL     1      -4.082  -2.998  23.771  0.00  0.00    +0.144 C 
ATOM     27  O   UNL     1      -3.606  -3.341  24.351  0.00  0.00    -0.354 OA
ATOM     28  C   UNL     1      -3.345  -2.889  24.991  0.00  0.00    +0.144 C 
ATOM     29  C   UNL     1      -3.562  -2.095  25.050  0.00  0.00    +0.050 C 
ENDBRANCH  23  24
ENDBRANCH  22  23
ENDBRANCH  21  22
TORSDOF 6
ENDMDL
MODEL 3
REMARK VINA RESULT:     -10.2      1.345      1.951
REMARK  Name = 
REMARK  6 active torsions:
REMARK  status: ('A' for Active; 'I' for Inactive)
REMARK    1  A    between atoms: C_2  and  C_4
REMARK    2  A    between atoms: C_6  and  C_7
REMARK    3  A    between atoms: C_7  and  C_8
REMARK    4  A    between atoms: C_21  and  C_22
REMARK    5  A    between atoms: C_22  and  N_23
REMARK    6  A    between atoms: N_23  and  C_24
REMARK                            x       y       z     vdW  Elec       q    Type
REMARK                         _______ _______ _______ _____ _____    ______ ____
ROOT
ATOM      4  C   UNL     1      -1.796   1.556  24.266  0.00  0.00    +0.006 C 
ATOM      5  C   UNL     1      -1.643   0.748  24.327  0.00  0.00    +0.005 C 
ATOM      6  C   UNL     1      -1.182   0.462  24.948  0.00  0.00    +0.026 C 
ATOM     18  C   UNL     1      -0.875   0.985  25.509  0.00  0.00    -0.048 C 
ATOM     19  C   UNL     1      -0.414   0.699  26.131  0.00  0.00    +0.026 C 
ATOM     20  C   UNL     1      -1.029   1.793  25.447  0.00  0.00    -0.033 C 
ATOM     21  C   UNL     1      -1.490   2.078  24.825  0.00  0.00    +0.039 C 
ENDROOT
BRANCH   4   2
ATOM      1  C   UNL     1      -1.907   2.025  22.920  0.00  0.00    +0.000 C 
ATOM      2  C   UNL     1      -2.257   1.842  23.644  0.00  0.00    +0.000 C 
ATOM      3  C   UNL     1      -3.070   1.946  23.746  0.00  0.00    +0.000 C 
ENDBRANCH   4   2
BRANCH   6   7
ATOM      7  C   UNL     1      -1.028  -0.346  25.011  0.00  0.00    +0.070 C 
BRANCH   7   8
ATOM      8  C   UNL     1      -1.647  -0.889  24.963  0.00  0.00    +0.139 A 
ATOM      9  N   UNL     1      -2.227  -1.015  25.535  0.00  0.00    -0.229 NA
ATOM     10  C   UNL     1      -2.733  -1.605  25.261  0.00  0.00    +0.100 A 
ATOM     11  C   UNL     1      -2.465  -1.846  24.518  0.00  0.00    +0.101 A 
ATOM     12  N   UNL     1      -1.794  -1.403  24.334  0.00  0.00    -0.229 NA
ATOM     13  C   UNL     1      -2.867  -2.437  24.107  0.00  0.00    +0.032 A 
ATOM     14  C   UNL     1      -3.537  -2.787  24.436  0.00  0.00    +0.059 A 
ATOM     15 CL   UNL     1      -3.938  -3.377  24.024  0.00  0.00    -0.082 Cl
ATOM     16  C   UNL     1      -3.805  -2.547  25.178  0.00  0.00    +0.013 A 
ATOM     17  C   UNL     1      -3.403  -1.956  25.591  0.00  0.00    +0.022 A 
ENDBRANCH   7   8
ENDBRANCH   6   7
BRANCH  21  22
ATOM     22  C   UNL     1      -1.643   2.887  24.764  0.00  0.00    +0.093 C 
BRANCH  22  23
ATOM     23  N   UNL     1      -1.383   3.402  25.352  0.00  0.00    -0.219 NA
BRANCH  23  24
ATOM     24  C   UNL     1      -1.426   4.218  25.236  0.00  0.00    +0.078 C 
ATOM     25  C   UNL     1      -2.105   4.631  25.455  0.00  0.00    +0.050 C 
ATOM     26  C   UNL     1      -2.148   5.447  25.338  0.00  0.00    +0.144 C 
ATOM     27  O   UNL     1      -1.511   5.849  25.003  0.00  0.00    -0.354 OA
ATOM     28  C   UNL     1      -0.831   5.436  24.783  0.00  0.00    +0.144 C 
ATOM     29  C   UNL     1      -0.789   4.621  24.900  0.00  0.00    +0.050 C 
ENDBRANCH  23  24
ENDBRANCH  22  23
ENDBRANCH  21  22
TORSDOF 6
ENDMDL
MODEL 4
REMARK VINA RESULT:      -9.9      2.824      5.818
REMARK  Name = 
REMARK  6 active torsions:
REMARK  status: ('A' for Active; 'I' for Inactive)
REMARK    1  A    between atoms: C_2  and  C_4
REMARK    2  A    between atoms: C_6  and  C_7
REMARK    3  A    between atoms: C_7  and  C_8
REMARK    4  A    between atoms: C_21  and  C_22
REMARK    5  A    between atoms: C_22  and  N_23
REMARK    6  A    between atoms: N_23  and  C_24
REMARK                            x       y       z     vdW  Elec       q    Type
REMARK                         _______ _______ _______ _____ _____    ______ ____
ROOT
ATOM      4  C   UNL     1      -2.813   0.916  24.906  0.00  0.00    +0.006 C 
ATOM      5  C   UNL     1      -2.294   1.466  25.237  0.00  0.00    +0.005 C 
ATOM      6  C   UNL     1      -1.542   1.229  25.480  0.00  0.00    +0.026 C 
ATOM     18  C   UNL     1      -1.309   0.442  25.392  0.00  0.00    -0.048 C 
ATOM     19  C   UNL     1      -0.557   0.205  25.634  0.00  0.00    +0.026 C 
ATOM     20  C   UNL     1      -1.828  -0.107  25.061  0.00  0.00    -0.033 C 
ATOM     21  C   UNL     1      -2.580   0.130  24.818  0.00  0.00    +0.039 C 
ENDROOT
BRANCH   4   2
ATOM      1  C   UNL     1      -4.198   1.120  25.190  0.00  0.00    +0.000 C 
ATOM      2  C   UNL     1      -3.565   1.153  24.663  0.00  0.00    +0.000 C 
ATOM      3  C   UNL     1      -3.684   1.423  23.892  0.00  0.00    +0.000 C 
ENDBRANCH   4   2
BRANCH   6   7
ATOM      7  C   UNL     1      -1.023   1.777  25.811  0.00  0.00    +0.070 C 
BRANCH   7   8
ATOM      8  C   UNL     1      -1.029   2.561  25.552  0.00  0.00    +0.139 A 
ATOM      9  N   UNL     1      -0.578   2.872  24.936  0.00  0.00    -0.229 NA
ATOM     10  C   UNL     1      -0.758   3.673  24.867  0.00  0.00    +0.100 A 
ATOM     11  C   UNL     1      -1.321   3.858  25.441  0.00  0.00    +0.101 A 
ATOM     12  N   UNL     1      -1.489   3.171  25.865  0.00  0.00    -0.229 NA
ATOM     13  C   UNL     1      -1.608   4.629  25.503  0.00  0.00    +0.032 A 
ATOM     14  C   UNL     1      -1.333   5.215  24.993  0.00  0.00    +0.059 A 
ATOM     15 CL   UNL     1      -1.619   5.985  25.055  0.00  0.00    -0.082 Cl
ATOM     16  C   UNL     1      -0.770   5.030  24.419  0.00  0.00    +0.013 A 
ATOM     17  C   UNL     1      -0.482   4.259  24.355  0.00  0.00    +0.022 A 
ENDBRANCH   7   8
ENDBRANCH   6   7
BRANCH  21  22
ATOM     22  C   UNL     1      -3.098  -0.420  24.487  0.00  0.00    +0.093 C 
BRANCH  22  23
ATOM     23  N   UNL     1      -2.816  -1.150  24.227  0.00  0.00    -0.219 NA
BRANCH  23  24
ATOM     24  C   UNL     1      -3.326  -1.797  24.177  0.00  0.00    +0.078 C 
ATOM     25  C   UNL     1      -3.965  -1.778  23.657  0.00  0.00    +0.050 C 
ATOM     26  C   UNL     1      -4.476  -2.425  23.607  0.00  0.00    +0.144 C 
ATOM     27  O   UNL     1      -4.346  -3.090  24.077  0.00  0.00    -0.354 OA
ATOM     28  C   UNL     1      -3.705  -3.109  24.598  0.00  0.00    +0.144 C 
ATOM     29  C   UNL     1      -3.196  -2.462  24.648  0.00  0.00    +0.050 C 
ENDBRANCH  23  24
ENDBRANCH  22  23
ENDBRANCH  21  22
TORSDOF 6
ENDMDL
MODEL 5
REMARK VINA RESULT:      -8.9      2.980      4.293
REMARK  Name = 
REMARK  6 active torsions:
REMARK  status: ('A' for Active; 'I' for Inactive)
REMARK    1  A    between atoms: C_2  and  C_4
REMARK    2  A    between atoms: C_6  and  C_7
REMARK    3  A    between atoms: C_7  and  C_8
REMARK    4  A    between atoms: C_21  and  C_22
REMARK    5  A    between atoms: C_22  and  N_23
REMARK    6  A    between atoms: N_23  and  C_24
REMARK                            x       y       z     vdW  Elec       q    Type
REMARK                         _______ _______ _______ _____ _____    ______ ____
ROOT
ATOM      4  C   UNL     1      -1.503   2.145  24.402  0.00  0.00    +0.006 C 
ATOM      5  C   UNL     1      -2.203   2.578  24.348  0.00  0.00    +0.005 C 
ATOM      6  C   UNL     1      -2.661   2.537  23.663  0.00  0.00    +0.026 C 
ATOM     18  C   UNL     1      -2.418   2.064  23.031  0.00  0.00    -0.048 C 
ATOM     19  C   UNL     1      -2.876   2.024  22.346  0.00  0.00    +0.026 C 
ATOM     20  C   UNL     1      -1.718   1.632  23.086  0.00  0.00    -0.033 C 
ATOM     21  C   UNL     1      -1.260   1.672  23.772  0.00  0.00    +0.039 C 
ENDROOT
BRANCH   4   2
ATOM      1  C   UNL     1      -1.143   1.622  25.682  0.00  0.00    +0.000 C 
ATOM      2  C   UNL     1      -1.045   2.185  25.087  0.00  0.00    +0.000 C 
ATOM      3  C   UNL     1      -0.490   2.789  25.178  0.00  0.00    +0.000 C 
ENDBRANCH   4   2
BRANCH   6   7
ATOM      7  C   UNL     1      -3.361   2.970  23.608  0.00  0.00    +0.070 C 
BRANCH   7   8
ATOM      8  C   UNL     1      -3.959   2.861  24.166  0.00  0.00    +0.139 A 
ATOM      9  N   UNL     1      -4.193   3.406  24.739  0.00  0.00    -0.229 NA
ATOM     10  C   UNL     1      -4.805   3.070  25.176  0.00  0.00    +0.100 A 
ATOM     11  C   UNL     1      -4.950   2.316  24.874  0.00  0.00    +0.101 A 
ATOM     12  N   UNL     1      -4.428   2.186  24.250  0.00  0.00    -0.229 NA
ATOM     13  C   UNL     1      -5.541   1.845  25.207  0.00  0.00    +0.032 A 
ATOM     14  C   UNL     1      -5.985   2.127  25.841  0.00  0.00    +0.059 A 
ATOM     15 CL   UNL     1      -6.575   1.657  26.174  0.00  0.00    -0.082 Cl
ATOM     16  C   UNL     1      -5.840   2.881  26.144  0.00  0.00    +0.013 A 
ATOM     17  C   UNL     1      -5.251   3.353  25.812  0.00  0.00    +0.022 A 
ENDBRANCH   7   8
ENDBRANCH   6   7
BRANCH  21  22
ATOM     22  C   UNL     1      -0.560   1.239  23.825  0.00  0.00    +0.093 C 
BRANCH  22  23
ATOM     23  N   UNL     1      -0.329   0.748  23.205  0.00  0.00    -0.219 NA
BRANCH  23  24
ATOM     24  C   UNL     1       0.362   0.302  23.266  0.00  0.00    +0.078 C 
ATOM     25  C   UNL     1       0.349  -0.431  23.643  0.00  0.00    +0.050 C 
ATOM     26  C   UNL     1       1.041  -0.877  23.703  0.00  0.00    +0.144 C 
ATOM     27  O   UNL     1       1.746  -0.589  23.387  0.00  0.00    -0.354 OA
ATOM     28  C   UNL     1       1.759   0.145  23.009  0.00  0.00    +0.144 C 
ATOM     29  C   UNL     1       1.067   0.590  22.949  0.00  0.00    +0.050 C 
ENDBRANCH  23  24
ENDBRANCH  22  23
ENDBRANCH  21  22
TORSDOF 6
ENDMDL
MODEL 6
REMARK VINA RESULT:      -8.5      2.780      4.263
REMARK  Name = 
REMARK  6 active torsions:
REMARK  status: ('A' for Active; 'I' for Inactive)
REMARK    1  A    between atoms: C_2  and  C_4
REMARK    2  A    between atoms: C_6  and  C_7
REMARK    3  A    between atoms: C_7  and  C_8
REMARK    4  A    between atoms: C_21  and  C_22
REMARK    5  A    between atoms: C_22  and  N_23
REMARK    6  A    between atoms: N_23  and  C_24
REMARK                            x       y       z     vdW  Elec       q    Type
REMARK                         _______ _______ _______ _____ _____    ______ ____
ROOT
ATOM      4  C   UNL     1      -2.546   1.003  23.975  0.00  0.00    +0.006 C 
ATOM      5  C   UNL     1      -1.891   0.502  23.944  0.00  0.00    +0.005 C 
ATOM      6  C   UNL     1      -1.776  -0.063  24.533  0.00  0.00    +0.026 C 
ATOM     18  C   UNL     1      -2.316  -0.128  25.154  0.00  0.00    -0.048 C 
ATOM     19  C   UNL     1      -2.202  -0.694  25.743  0.00  0.00    +0.026 C 
ATOM     20  C   UNL     1      -2.971   0.373  25.185  0.00  0.00    -0.033 C 
ATOM     21  C   UNL     1      -3.086   0.938  24.595  0.00  0.00    +0.039 C 
ENDROOT
BRANCH   4   2
ATOM      1  C   UNL     1      -2.384   2.338  23.492  0.00  0.00    +0.000 C 
ATOM      2  C   UNL     1      -2.661   1.569  23.386  0.00  0.00    +0.000 C 
ATOM      3  C   UNL     1      -3.054   1.365  22.689  0.00  0.00    +0.000 C 
ENDBRANCH   4   2
BRANCH   6   7
ATOM      7  C   UNL     1      -1.122  -0.565  24.502  0.00  0.00    +0.070 C 
BRANCH   7   8
ATOM      8  C   UNL     1      -0.425  -0.312  24.140  0.00  0.00    +0.139 A 
ATOM      9  N   UNL     1       0.035   0.333  24.370  0.00  0.00    -0.229 NA
ATOM     10  C   UNL     1       0.678   0.383  23.856  0.00  0.00    +0.100 A 
ATOM     11  C   UNL     1       0.616  -0.232  23.309  0.00  0.00    +0.101 A 
ATOM     12  N   UNL     1      -0.065  -0.661  23.485  0.00  0.00    -0.229 NA
ATOM     13  C   UNL     1       1.190  -0.320  22.723  0.00  0.00    +0.032 A 
ATOM     14  C   UNL     1       1.824   0.205  22.682  0.00  0.00    +0.059 A 
ATOM     15 CL   UNL     1       2.396   0.117  22.096  0.00  0.00    -0.082 Cl
ATOM     16  C   UNL     1       1.885   0.820  23.229  0.00  0.00    +0.013 A 
ATOM     17  C   UNL     1       1.313   0.909  23.816  0.00  0.00    +0.022 A 
ENDBRANCH   7   8
ENDBRANCH   6   7
BRANCH  21  22
ATOM     22  C   UNL     1      -3.741   1.439  24.627  0.00  0.00    +0.093 C 
BRANCH  22  23
ATOM     23  N   UNL     1      -4.263   1.396  25.263  0.00  0.00    -0.219 NA
BRANCH  23  24
ATOM     24  C   UNL     1      -4.915   1.901  25.298  0.00  0.00    +0.078 C 
ATOM     25  C   UNL     1      -5.648   1.649  25.017  0.00  0.00    +0.050 C 
ATOM     26  C   UNL     1      -6.300   2.153  25.051  0.00  0.00    +0.144 C 
ATOM     27  O   UNL     1      -6.218   2.911  25.368  0.00  0.00    -0.354 OA
ATOM     28  C   UNL     1      -5.484   3.164  25.649  0.00  0.00    +0.144 C 
ATOM     29  C   UNL     1      -4.833   2.659  25.614  0.00  0.00    +0.050 C 
ENDBRANCH  23  24
ENDBRANCH  22  23
ENDBRANCH  21  22
TORSDOF 6
ENDMDL
