MODEL 1
REMARK VINA RESULT:      -9.2      0.000      0.000
REMARK  Name = 
REMARK  8 active torsions:
REMARK  status: ('A' for Active; 'I' for Inactive)
REMARK    1  A    between atoms: O_2  and  C_3
REMARK    2  A    between atoms: C_3  and  C_4
REMARK    3  A    between atoms: C_4  and  N_5
REMARK    4  A    between atoms: N_5  and  C_6
REMARK    5  A    between atoms: C_8  and  C_12
REMARK    6  A    between atoms: C_15  and  C_17
REMARK    7  A    between atoms: N_21  and  C_22
REMARK    8  A    between atoms: C_22  and  C_23
REMARK                            x       y       z     vdW  Elec       q    Type
REMARK                         _______ _______ _______ _____ _____    ______ ____
ROOT
ATOM     12  C   UNL     1      -3.951   1.200  24.408  0.00  0.00    +0.203 A 
ATOM     13  N   UNL     1      -3.738   1.087  23.619  0.00  0.00    -0.056 NA
ATOM     14  O   UNL     1      -3.546   0.292  23.518  0.00  0.00    -0.336 OA
ATOM     15  C   UNL     1      -3.640  -0.087  24.244  0.00  0.00    +0.251 A 
ATOM     16  N   UNL     1      -3.891   0.474  24.795  0.00  0.00    -0.190 NA
ENDROOT
BRANCH  12   8
ATOM      6  C   UNL     1      -3.852   3.135  25.414  0.00  0.00    +0.148 A 
ATOM      7  C   UNL     1      -3.619   2.421  25.071  0.00  0.00    +0.039 A 
ATOM      8  C   UNL     1      -4.185   1.914  24.750  0.00  0.00    +0.043 A 
ATOM      9  C   UNL     1      -4.982   2.119  24.772  0.00  0.00    +0.024 A 
ATOM     10  C   UNL     1      -5.216   2.832  25.114  0.00  0.00    +0.100 A 
ATOM     11  N   UNL     1      -4.650   3.340  25.435  0.00  0.00    -0.228 NA
BRANCH   6   5
ATOM      5  N   UNL     1      -3.286   3.642  25.734  0.00  0.00    -0.218 NA
BRANCH   5   4
ATOM      4  C   UNL     1      -2.799   4.084  25.235  0.00  0.00    +0.146 C 
BRANCH   4   3
ATOM      3  C   UNL     1      -2.116   4.437  25.534  0.00  0.00    +0.166 C 
BRANCH   3   2
ATOM      1  C   UNL     1      -0.952   5.071  24.998  0.00  0.00    +0.174 C 
ATOM      2  O   UNL     1      -1.768   5.066  25.129  0.00  0.00    -0.349 OA
ENDBRANCH   3   2
ENDBRANCH   4   3
ENDBRANCH   5   4
ENDBRANCH   6   5
ENDBRANCH  12   8
BRANCH  15  17
ATOM     17  C   UNL     1      -3.507  -0.888  24.394  0.00  0.00    +0.138 C 
ATOM     18  C   UNL     1      -4.071  -1.488  24.357  0.00  0.00    +0.027 C 
ATOM     19  C   UNL     1      -3.700  -2.200  24.548  0.00  0.00    +0.019 C 
ATOM     20  C   UNL     1      -2.906  -2.039  24.704  0.00  0.00    +0.073 C 
ATOM     21  N   UNL     1      -2.787  -1.229  24.609  0.00  0.00    -0.266 NA
BRANCH  21  22
ATOM     22  C   UNL     1      -2.072  -0.828  24.710  0.00  0.00    +0.072 C 
BRANCH  22  23
ATOM     23  C   UNL     1      -1.407  -1.234  24.981  0.00  0.00    +0.016 C 
ATOM     24  C   UNL     1      -0.944  -1.667  24.454  0.00  0.00    +0.001 C 
ATOM     25  C   UNL     1      -1.206  -1.208  25.781  0.00  0.00    +0.001 C 
ENDBRANCH  22  23
ENDBRANCH  21  22
ENDBRANCH  15  17
TORSDOF 8
ENDMDL
MODEL 2
REMARK VINA RESULT:      -9.1      1.430      4.560
REMARK  Name = 
REMARK  8 active torsions:
REMARK  status: ('A' for Active; 'I' for Inactive)
REMARK    1  A    between atoms: O_2  and  C_3
REMARK    2  A    between atoms: C_3  and  C_4
REMARK    3  A    between atoms: C_4  and  N_5
REMARK    4  A    between atoms: N_5  and  C_6
REMARK    5  A    between atoms: C_8  and  C_12
REMARK    6  A    between atoms: C_15  and  C_17
REMARK    7  A    between atoms: N_21  and  C_22
REMARK    8  A    between atoms: C_22  and  C_23
REMARK                            x       y       z     vdW  Elec       q    Type
REMARK                         _______ _______ _______ _____ _____    ______ ____
ROOT
ATOM     12  C   UNL     1      -3.783   3.197  25.532  0.00  0.00    +0.203 A 
ATOM     13  N   UNL     1      -3.786   3.681  26.200  0.00  0.00    -0.056 NA
ATOM     14  O   UNL     1      -3.080   4.108  26.209  0.00  0.00    -0.336 OA
ATOM     15  C   UNL     1      -2.641   3.886  25.547  0.00  0.00    +0.251 A 
ATOM     16  N   UNL     1      -3.075   3.323  25.128  0.00  0.00    -0.190 NA
ENDROOT
BRANCH  12   8
ATOM      6  C   UNL     1      -4.793   1.425  24.753  0.00  0.00    +0.148 A 
ATOM      7  C   UNL     1      -4.192   1.945  24.978  0.00  0.00    +0.039 A 
ATOM      8  C   UNL     1      -4.384   2.677  25.308  0.00  0.00    +0.043 A 
ATOM      9  C   UNL     1      -5.173   2.888  25.413  0.00  0.00    +0.024 A 
ATOM     10  C   UNL     1      -5.773   2.369  25.189  0.00  0.00    +0.100 A 
ATOM     11  N   UNL     1      -5.582   1.636  24.858  0.00  0.00    -0.228 NA
BRANCH   6   5
ATOM      5  N   UNL     1      -4.602   0.694  24.423  0.00  0.00    -0.218 NA
BRANCH   5   4
ATOM      4  C   UNL     1      -4.394   0.062  24.913  0.00  0.00    +0.146 C 
BRANCH   4   3
ATOM      3  C   UNL     1      -4.107  -0.637  24.583  0.00  0.00    +0.166 C 
BRANCH   3   2
ATOM      1  C   UNL     1      -3.625  -1.973  24.744  0.00  0.00    +0.174 C 
ATOM      2  O   UNL     1      -3.949  -1.286  25.068  0.00  0.00    -0.349 OA
ENDBRANCH   3   2
ENDBRANCH   4   3
ENDBRANCH   5   4
ENDBRANCH   6   5
ENDBRANCH  12   8
BRANCH  15  17
ATOM     17  C   UNL     1      -1.896   4.177  25.338  0.00  0.00    +0.138 C 
ATOM     18  C   UNL     1      -1.738   4.925  25.029  0.00  0.00    +0.027 C 
ATOM     19  C   UNL     1      -0.924   4.981  24.902  0.00  0.00    +0.019 C 
ATOM     20  C   UNL     1      -0.581   4.267  25.133  0.00  0.00    +0.073 C 
ATOM     21  N   UNL     1      -1.181   3.771  25.402  0.00  0.00    -0.266 NA
BRANCH  21  22
ATOM     22  C   UNL     1      -1.084   3.002  25.687  0.00  0.00    +0.072 C 
BRANCH  22  23
ATOM     23  C   UNL     1      -0.333   2.662  25.708  0.00  0.00    +0.016 C 
ATOM     24  C   UNL     1      -0.022   2.304  25.033  0.00  0.00    +0.001 C 
ATOM     25  C   UNL     1       0.108   2.681  26.406  0.00  0.00    +0.001 C 
ENDBRANCH  22  23
ENDBRANCH  21  22
ENDBRANCH  15  17
TORSDOF 8
ENDMDL
MODEL 3
REMARK VINA RESULT:      -9.0      1.896      5.582
REMARK  Name = 
REMARK  8 active torsions:
REMARK  status: ('A' for Active; 'I' for Inactive)
REMARK    1  A    between atoms: O_2  and  C_3
REMARK    2  A    between atoms: C_3  and  C_4
REMARK    3  A    between atoms: C_4  and  N_5
REMARK    4  A    between atoms: N_5  and  C_6
REMARK    5  A    between atoms: C_8  and  C_12
REMARK    6  A    between atoms: C_15  and  C_17
REMARK    7  A    between atoms: N_21  and  C_22
REMARK    8  A    between atoms: C_22  and  C_23
REMARK                            x       y       z     vdW  Elec       q    Type
REMARK                         _______ _______ _______ _____ _____    ______ ____
ROOT
ATOM     12  C   UNL     1      -0.626   1.581  25.131  0.00  0.00    +0.203 A 
ATOM     13  N   UNL     1      -0.494   1.736  25.930  0.00  0.00    -0.056 NA
ATOM     14  O   UNL     1      -0.729   2.512  26.082  0.00  0.00    -0.336 OA
ATOM     15  C   UNL     1      -1.006   2.836  25.376  0.00  0.00    +0.251 A 
ATOM     16  N   UNL     1      -0.942   2.261  24.788  0.00  0.00    -0.190 NA
ENDROOT
BRANCH  12   8
ATOM      6  C   UNL     1      -0.679  -0.537  24.603  0.00  0.00    +0.148 A 
ATOM      7  C   UNL     1      -0.836   0.174  24.992  0.00  0.00    +0.039 A 
ATOM      8  C   UNL     1      -0.469   0.870  24.742  0.00  0.00    +0.043 A 
ATOM      9  C   UNL     1       0.053   0.855  24.105  0.00  0.00    +0.024 A 
ATOM     10  C   UNL     1       0.211   0.145  23.716  0.00  0.00    +0.100 A 
ATOM     11  N   UNL     1      -0.156  -0.552  23.966  0.00  0.00    -0.228 NA
BRANCH   6   5
ATOM      5  N   UNL     1      -1.045  -1.232  24.852  0.00  0.00    -0.218 NA
BRANCH   5   4
ATOM      4  C   UNL     1      -1.730  -1.496  24.473  0.00  0.00    +0.146 C 
BRANCH   4   3
ATOM      3  C   UNL     1      -2.127  -2.161  24.757  0.00  0.00    +0.166 C 
BRANCH   3   2
ATOM      1  C   UNL     1      -3.425  -2.751  24.661  0.00  0.00    +0.174 C 
ATOM      2  O   UNL     1      -2.721  -2.510  24.303  0.00  0.00    -0.349 OA
ENDBRANCH   3   2
ENDBRANCH   4   3
ENDBRANCH   5   4
ENDBRANCH   6   5
ENDBRANCH  12   8
BRANCH  15  17
ATOM     17  C   UNL     1      -1.296   3.603  25.275  0.00  0.00    +0.138 C 
ATOM     18  C   UNL     1      -0.841   4.283  25.173  0.00  0.00    +0.027 C 
ATOM     19  C   UNL     1      -1.354   4.924  25.092  0.00  0.00    +0.019 C 
ATOM     20  C   UNL     1      -2.127   4.639  25.145  0.00  0.00    +0.073 C 
ATOM     21  N   UNL     1      -2.090   3.823  25.258  0.00  0.00    -0.266 NA
BRANCH  21  22
ATOM     22  C   UNL     1      -2.736   3.315  25.339  0.00  0.00    +0.072 C 
BRANCH  22  23
ATOM     23  C   UNL     1      -3.503   3.612  25.282  0.00  0.00    +0.016 C 
ATOM     24  C   UNL     1      -3.879   3.646  24.549  0.00  0.00    +0.001 C 
ATOM     25  C   UNL     1      -3.895   3.876  25.959  0.00  0.00    +0.001 C 
ENDBRANCH  22  23
ENDBRANCH  21  22
ENDBRANCH  15  17
TORSDOF 8
ENDMDL
MODEL 4
REMARK VINA RESULT:      -8.8      1.497      4.475
REMARK  Name = 
REMARK  8 active torsions:
REMARK  status: ('A' for Active; 'I' for Inactive)
REMARK    1  A    between atoms: O_2  and  C_3
REMARK    2  A    between atoms: C_3  and  C_4
REMARK    3  A    between atoms: C_4  and  N_5
REMARK    4  A    between atoms: N_5  and  C_6
REMARK    5  A    between atoms: C_8  and  C_12
REMARK    6  A    between atoms: C_15  and  C_17
REMARK    7  A    between atoms: N_21  and  C_22
REMARK    8  A    between atoms: C_22  and  C_23
REMARK                            x       y       z     vdW  Elec       q    Type
REMARK                         _______ _______ _______ _____ _____    ______ ____
ROOT
ATOM     12  C   UNL     1      -3.984  -0.049  24.798  0.00  0.00    +0.203 A 
ATOM     13  N   UNL     1      -4.424   0.078  24.112  0.00  0.00    -0.056 NA
ATOM     14  O   UNL     1      -4.863   0.769  24.215  0.00  0.00    -0.336 OA
ATOM     15  C   UNL     1      -4.694   1.068  24.964  0.00  0.00    +0.251 A 
ATOM     16  N   UNL     1      -4.150   0.562  25.325  0.00  0.00    -0.190 NA
ENDROOT
BRANCH  12   8
ATOM      6  C   UNL     1      -2.135  -1.182  25.054  0.00  0.00    +0.148 A 
ATOM      7  C   UNL     1      -2.652  -0.553  24.919  0.00  0.00    +0.039 A 
ATOM      8  C   UNL     1      -3.467  -0.679  24.933  0.00  0.00    +0.043 A 
ATOM      9  C   UNL     1      -3.765  -1.432  25.082  0.00  0.00    +0.024 A 
ATOM     10  C   UNL     1      -3.249  -2.061  25.218  0.00  0.00    +0.100 A 
ATOM     11  N   UNL     1      -2.433  -1.936  25.203  0.00  0.00    -0.228 NA
BRANCH   6   5
ATOM      5  N   UNL     1      -1.320  -1.056  25.040  0.00  0.00    -0.218 NA
BRANCH   5   4
ATOM      4  C   UNL     1      -0.920  -1.029  24.318  0.00  0.00    +0.146 C 
BRANCH   4   3
ATOM      3  C   UNL     1      -0.161  -0.709  24.280  0.00  0.00    +0.166 C 
BRANCH   3   2
ATOM      1  C   UNL     1       0.738  -0.092  23.356  0.00  0.00    +0.174 C 
ATOM      2  O   UNL     1       0.259  -0.729  23.570  0.00  0.00    -0.349 OA
ENDBRANCH   3   2
ENDBRANCH   4   3
ENDBRANCH   5   4
ENDBRANCH   6   5
ENDBRANCH  12   8
BRANCH  15  17
ATOM     17  C   UNL     1      -5.013   1.753  25.296  0.00  0.00    +0.138 C 
ATOM     18  C   UNL     1      -5.737   1.811  25.687  0.00  0.00    +0.027 C 
ATOM     19  C   UNL     1      -5.836   2.594  25.929  0.00  0.00    +0.019 C 
ATOM     20  C   UNL     1      -5.171   3.020  25.687  0.00  0.00    +0.073 C 
ATOM     21  N   UNL     1      -4.664   2.501  25.297  0.00  0.00    -0.266 NA
BRANCH  21  22
ATOM     22  C   UNL     1      -3.933   2.694  24.964  0.00  0.00    +0.072 C 
BRANCH  22  23
ATOM     23  C   UNL     1      -3.665   3.474  24.986  0.00  0.00    +0.016 C 
ATOM     24  C   UNL     1      -3.832   3.985  24.361  0.00  0.00    +0.001 C 
ATOM     25  C   UNL     1      -3.228   3.742  25.633  0.00  0.00    +0.001 C 
ENDBRANCH  22  23
ENDBRANCH  21  22
ENDBRANCH  15  17
TORSDOF 8
ENDMDL
MODEL 5
REMARK VINA RESULT:      -8.6      1.564      2.728
REMARK  Name = 
REMARK  8 active torsions:
REMARK  status: ('A' for Active; 'I' for Inactive)
REMARK    1  A    between atoms: O_2  and  C_3
REMARK    2  A    between atoms: C_3  and  C_4
REMARK    3  A    between atoms: C_4  and  N_5
REMARK    4  A    between atoms: N_5  and  C_6
REMARK    5  A    between atoms: C_8  and  C_12
REMARK    6  A    between atoms: C_15  and  C_17
REMARK    7  A    between atoms: N_21  and  C_22
REMARK    8  A    between atoms: C_22  and  C_23
REMARK                            x       y       z     vdW  Elec       q    Type
REMARK                         _______ _______ _______ _____ _____    ______ ____
ROOT
ATOM     12  C   UNL     1      -1.546   1.676  24.621  0.00  0.00    +0.203 A 
ATOM     13  N   UNL     1      -1.383   1.485  23.835  0.00  0.00    -0.056 NA
ATOM     14  O   UNL     1      -1.250   0.672  23.792  0.00  0.00    -0.336 OA
ATOM     15  C   UNL     1      -1.331   0.361  24.552  0.00  0.00    +0.251 A 
ATOM     16  N   UNL     1      -1.514   0.982  25.064  0.00  0.00    -0.190 NA
ENDROOT
BRANCH  12   8
ATOM      6  C   UNL     1      -2.645   3.485  25.158  0.00  0.00    +0.148 A 
ATOM      7  C   UNL     1      -2.479   2.730  24.867  0.00  0.00    +0.039 A 
ATOM      8  C   UNL     1      -1.712   2.430  24.912  0.00  0.00    +0.043 A 
ATOM      9  C   UNL     1      -1.111   2.883  25.249  0.00  0.00    +0.024 A 
ATOM     10  C   UNL     1      -1.277   3.637  25.541  0.00  0.00    +0.100 A 
ATOM     11  N   UNL     1      -2.044   3.937  25.495  0.00  0.00    -0.228 NA
BRANCH   6   5
ATOM      5  N   UNL     1      -3.412   3.784  25.112  0.00  0.00    -0.218 NA
BRANCH   5   4
ATOM      4  C   UNL     1      -4.004   3.479  25.600  0.00  0.00    +0.146 C 
BRANCH   4   3
ATOM      3  C   UNL     1      -4.796   3.640  25.437  0.00  0.00    +0.166 C 
BRANCH   3   2
ATOM      1  C   UNL     1      -5.973   2.901  25.769  0.00  0.00    +0.174 C 
ATOM      2  O   UNL     1      -5.379   3.433  25.983  0.00  0.00    -0.349 OA
ENDBRANCH   3   2
ENDBRANCH   4   3
ENDBRANCH   5   4
ENDBRANCH   6   5
ENDBRANCH  12   8
BRANCH  15  17
ATOM     17  C   UNL     1      -1.244  -0.432  24.763  0.00  0.00    +0.138 C 
ATOM     18  C   UNL     1      -0.535  -0.808  24.952  0.00  0.00    +0.027 C 
ATOM     19  C   UNL     1      -0.703  -1.597  25.129  0.00  0.00    +0.019 C 
ATOM     20  C   UNL     1      -1.517  -1.707  25.048  0.00  0.00    +0.073 C 
ATOM     21  N   UNL     1      -1.851  -0.988  24.823  0.00  0.00    -0.266 NA
BRANCH  21  22
ATOM     22  C   UNL     1      -2.652  -0.849  24.681  0.00  0.00    +0.072 C 
BRANCH  22  23
ATOM     23  C   UNL     1      -3.207  -1.437  24.842  0.00  0.00    +0.016 C 
ATOM     24  C   UNL     1      -3.525  -1.507  25.599  0.00  0.00    +0.001 C 
ATOM     25  C   UNL     1      -3.445  -1.954  24.244  0.00  0.00    +0.001 C 
ENDBRANCH  22  23
ENDBRANCH  21  22
ENDBRANCH  15  17
TORSDOF 8
ENDMDL
MODEL 6
REMARK VINA RESULT:      -8.5      1.341      4.559
REMARK  Name = 
REMARK  8 active torsions:
REMARK  status: ('A' for Active; 'I' for Inactive)
REMARK    1  A    between atoms: O_2  and  C_3
REMARK    2  A    between atoms: C_3  and  C_4
REMARK    3  A    between atoms: C_4  and  N_5
REMARK    4  A    between atoms: N_5  and  C_6
REMARK    5  A    between atoms: C_8  and  C_12
REMARK    6  A    between atoms: C_15  and  C_17
REMARK    7  A    between atoms: N_21  and  C_22
REMARK    8  A    between atoms: C_22  and  C_23
REMARK                            x       y       z     vdW  Elec       q    Type
REMARK                         _______ _______ _______ _____ _____    ______ ____
ROOT
ATOM     12  C   UNL     1      -4.087   0.494  24.754  0.00  0.00    +0.203 A 
ATOM     13  N   UNL     1      -4.682   0.747  25.265  0.00  0.00    -0.056 NA
ATOM     14  O   UNL     1      -4.747   1.566  25.197  0.00  0.00    -0.336 OA
ATOM     15  C   UNL     1      -4.191   1.820  24.643  0.00  0.00    +0.251 A 
ATOM     16  N   UNL     1      -3.783   1.157  24.369  0.00  0.00    -0.190 NA
ENDROOT
BRANCH  12   8
ATOM      6  C   UNL     1      -2.841  -1.298  24.793  0.00  0.00    +0.148 A 
ATOM      7  C   UNL     1      -3.089  -0.518  24.901  0.00  0.00    +0.039 A 
ATOM      8  C   UNL     1      -3.839  -0.286  24.646  0.00  0.00    +0.043 A 
ATOM      9  C   UNL     1      -4.339  -0.831  24.283  0.00  0.00    +0.024 A 
ATOM     10  C   UNL     1      -4.091  -1.611  24.175  0.00  0.00    +0.100 A 
ATOM     11  N   UNL     1      -3.341  -1.844  24.430  0.00  0.00    -0.228 NA
BRANCH   6   5
ATOM      5  N   UNL     1      -2.092  -1.531  25.048  0.00  0.00    -0.218 NA
BRANCH   5   4
ATOM      4  C   UNL     1      -1.439  -1.432  24.552  0.00  0.00    +0.146 C 
BRANCH   4   3
ATOM      3  C   UNL     1      -0.687  -1.333  24.877  0.00  0.00    +0.166 C 
BRANCH   3   2
ATOM      1  C   UNL     1       0.266  -0.644  24.065  0.00  0.00    +0.174 C 
ATOM      2  O   UNL     1      -0.023  -1.347  24.388  0.00  0.00    -0.349 OA
ENDBRANCH   3   2
ENDBRANCH   4   3
ENDBRANCH   5   4
ENDBRANCH   6   5
ENDBRANCH  12   8
BRANCH  15  17
ATOM     17  C   UNL     1      -4.065   2.600  24.404  0.00  0.00    +0.138 C 
ATOM     18  C   UNL     1      -4.403   2.966  23.747  0.00  0.00    +0.027 C 
ATOM     19  C   UNL     1      -4.126   3.742  23.716  0.00  0.00    +0.019 C 
ATOM     20  C   UNL     1      -3.615   3.855  24.355  0.00  0.00    +0.073 C 
ATOM     21  N   UNL     1      -3.578   3.150  24.779  0.00  0.00    -0.266 NA
BRANCH  21  22
ATOM     22  C   UNL     1      -3.132   3.017  25.461  0.00  0.00    +0.072 C 
BRANCH  22  23
ATOM     23  C   UNL     1      -2.651   3.615  25.762  0.00  0.00    +0.016 C 
ATOM     24  C   UNL     1      -2.965   4.177  26.277  0.00  0.00    +0.001 C 
ATOM     25  C   UNL     1      -1.855   3.652  25.546  0.00  0.00    +0.001 C 
ENDBRANCH  22  23
ENDBRANCH  21  22
ENDBRANCH  15  17
TORSDOF 8
ENDMDL
MODEL 7
REMARK VINA RESULT:      -8.4      2.748      5.493
REMARK  Name = 
REMARK  8 active torsions:
REMARK  status: ('A' for Active; 'I' for Inactive)
REMARK    1  A    between atoms: O_2  and  C_3
REMARK    2  A    between atoms: C_3  and  C_4
REMARK    3  A    between atoms: C_4  and  N_5
REMARK    4  A    between atoms: N_5  and  C_6
REMARK    5  A    between atoms: C_8  and  C_12
REMARK    6  A    between atoms: C_15  and  C_17
REMARK    7  A    between atoms: N_21  and  C_22
REMARK    8  A    between atoms: C_22  and  C_23
REMARK                            x       y       z     vdW  Elec       q    Type
REMARK                         _______ _______ _______ _____ _____    ______ ____
ROOT
ATOM     12  C   UNL     1      -0.682   1.476  25.103  0.00  0.00    +0.203 A 
ATOM     13  N   UNL     1      -0.607   1.607  25.914  0.00  0.00    -0.056 NA
ATOM     14  O   UNL     1      -0.855   2.378  26.072  0.00  0.00    -0.336 OA
ATOM     15  C   UNL     1      -1.084   2.722  25.359  0.00  0.00    +0.251 A 
ATOM     16  N   UNL     1      -0.977   2.165  24.759  0.00  0.00    -0.190 NA
ENDROOT
BRANCH  12   8
ATOM      6  C   UNL     1       0.207   0.097  23.663  0.00  0.00    +0.148 A 
ATOM      7  C   UNL     1       0.020   0.796  24.061  0.00  0.00    +0.039 A 
ATOM      8  C   UNL     1      -0.495   0.777  24.705  0.00  0.00    +0.043 A 
ATOM      9  C   UNL     1      -0.823   0.062  24.951  0.00  0.00    +0.024 A 
ATOM     10  C   UNL     1      -0.636  -0.636  24.554  0.00  0.00    +0.100 A 
ATOM     11  N   UNL     1      -0.121  -0.618  23.909  0.00  0.00    -0.228 NA
BRANCH   6   5
ATOM      5  N   UNL     1       0.722   0.115  23.019  0.00  0.00    -0.218 NA
BRANCH   5   4
ATOM      4  C   UNL     1       1.529  -0.018  23.132  0.00  0.00    +0.146 C 
BRANCH   4   3
ATOM      3  C   UNL     1       2.061   0.132  22.520  0.00  0.00    +0.166 C 
BRANCH   3   2
ATOM      1  C   UNL     1       3.432   0.523  22.418  0.00  0.00    +0.174 C 
ATOM      2  O   UNL     1       2.861  -0.040  22.620  0.00  0.00    -0.349 OA
ENDBRANCH   3   2
ENDBRANCH   4   3
ENDBRANCH   5   4
ENDBRANCH   6   5
ENDBRANCH  12   8
BRANCH  15  17
ATOM     17  C   UNL     1      -1.371   3.490  25.260  0.00  0.00    +0.138 C 
ATOM     18  C   UNL     1      -0.913   4.174  25.198  0.00  0.00    +0.027 C 
ATOM     19  C   UNL     1      -1.423   4.816  25.106  0.00  0.00    +0.019 C 
ATOM     20  C   UNL     1      -2.196   4.528  25.112  0.00  0.00    +0.073 C 
ATOM     21  N   UNL     1      -2.164   3.710  25.207  0.00  0.00    -0.266 NA
BRANCH  21  22
ATOM     22  C   UNL     1      -2.811   3.200  25.243  0.00  0.00    +0.072 C 
BRANCH  22  23
ATOM     23  C   UNL     1      -3.575   3.495  25.144  0.00  0.00    +0.016 C 
ATOM     24  C   UNL     1      -4.009   3.746  25.799  0.00  0.00    +0.001 C 
ATOM     25  C   UNL     1      -3.905   3.540  24.389  0.00  0.00    +0.001 C 
ENDBRANCH  22  23
ENDBRANCH  21  22
ENDBRANCH  15  17
TORSDOF 8
ENDMDL
MODEL 8
REMARK VINA RESULT:      -8.3      2.027      4.704
REMARK  Name = 
REMARK  8 active torsions:
REMARK  status: ('A' for Active; 'I' for Inactive)
REMARK    1  A    between atoms: O_2  and  C_3
REMARK    2  A    between atoms: C_3  and  C_4
REMARK    3  A    between atoms: C_4  and  N_5
REMARK    4  A    between atoms: N_5  and  C_6
REMARK    5  A    between atoms: C_8  and  C_12
REMARK    6  A    between atoms: C_15  and  C_17
REMARK    7  A    between atoms: N_21  and  C_22
REMARK    8  A    between atoms: C_22  and  C_23
REMARK                            x       y       z     vdW  Elec       q    Type
REMARK                         _______ _______ _______ _____ _____    ______ ____
ROOT
ATOM     12  C   UNL     1      -2.588   0.989  24.186  0.00  0.00    +0.203 A 
ATOM     13  N   UNL     1      -3.010   1.074  23.482  0.00  0.00    -0.056 NA
ATOM     14  O   UNL     1      -3.550   1.690  23.581  0.00  0.00    -0.336 OA
ATOM     15  C   UNL     1      -3.462   1.985  24.346  0.00  0.00    +0.251 A 
ATOM     16  N   UNL     1      -2.867   1.552  24.721  0.00  0.00    -0.190 NA
ENDROOT
BRANCH  12   8
ATOM      6  C   UNL     1      -0.614   0.063  24.280  0.00  0.00    +0.148 A 
ATOM      7  C   UNL     1      -1.210   0.615  24.135  0.00  0.00    +0.039 A 
ATOM      8  C   UNL     1      -1.992   0.437  24.331  0.00  0.00    +0.043 A 
ATOM      9  C   UNL     1      -2.177  -0.291  24.670  0.00  0.00    +0.024 A 
ATOM     10  C   UNL     1      -1.581  -0.842  24.815  0.00  0.00    +0.100 A 
ATOM     11  N   UNL     1      -0.799  -0.665  24.619  0.00  0.00    -0.228 NA
BRANCH   6   5
ATOM      5  N   UNL     1       0.168   0.240  24.084  0.00  0.00    -0.218 NA
BRANCH   5   4
ATOM      4  C   UNL     1       0.483  -0.023  23.368  0.00  0.00    +0.146 C 
BRANCH   4   3
ATOM      3  C   UNL     1       1.224   0.243  23.122  0.00  0.00    +0.166 C 
BRANCH   3   2
ATOM      1  C   UNL     1       2.419   0.036  22.365  0.00  0.00    +0.174 C 
ATOM      2  O   UNL     1       1.642  -0.177  22.548  0.00  0.00    -0.349 OA
ENDBRANCH   3   2
ENDBRANCH   4   3
ENDBRANCH   5   4
ENDBRANCH   6   5
ENDBRANCH  12   8
BRANCH  15  17
ATOM     17  C   UNL     1      -3.892   2.605  24.680  0.00  0.00    +0.138 C 
ATOM     18  C   UNL     1      -3.648   3.391  24.733  0.00  0.00    +0.027 C 
ATOM     19  C   UNL     1      -4.246   3.821  25.104  0.00  0.00    +0.019 C 
ATOM     20  C   UNL     1      -4.861   3.299  25.281  0.00  0.00    +0.073 C 
ATOM     21  N   UNL     1      -4.642   2.549  25.019  0.00  0.00    -0.266 NA
BRANCH  21  22
ATOM     22  C   UNL     1      -5.094   1.861  25.084  0.00  0.00    +0.072 C 
BRANCH  22  23
ATOM     23  C   UNL     1      -5.867   1.902  25.369  0.00  0.00    +0.016 C 
ATOM     24  C   UNL     1      -6.006   1.923  26.181  0.00  0.00    +0.001 C 
ATOM     25  C   UNL     1      -6.501   1.921  24.841  0.00  0.00    +0.001 C 
ENDBRANCH  22  23
ENDBRANCH  21  22
ENDBRANCH  15  17
TORSDOF 8
ENDMDL
