MODEL 1
REMARK VINA RESULT:     -11.1      0.000      0.000
REMARK  Name = 
REMARK  4 active torsions:
REMARK  status: ('A' for Active; 'I' for Inactive)
REMARK    1  A    between atoms: C_2  and  C_3
REMARK    2  A    between atoms: C_3  and  C_4
REMARK    3  A    between atoms: C_7  and  C_9
REMARK    4  A    between atoms: C_14  and  C_16
REMARK                            x       y       z     vdW  Elec       q    Type
REMARK                         _______ _______ _______ _____ _____    ______ ____
ROOT
ATOM      9  C   UNL     1      -4.625   1.363  24.874  0.00  0.00    +0.100 C 
ATOM     10  C   UNL     1      -5.432   1.523  24.939  0.00  0.00    +0.033 C 
ATOM     11  C   UNL     1      -5.519   2.322  25.124  0.00  0.00    +0.094 C 
ATOM     12  N   UNL     1      -4.767   2.656  25.174  0.00  0.00    -0.276 N 
ATOM     13  C   UNL     1      -4.214   2.064  25.019  0.00  0.00    +0.103 C 
ATOM     14  C   UNL     1      -4.597   3.445  25.347  0.00  0.00    +0.249 C 
ATOM     15  O   UNL     1      -5.211   3.977  25.490  0.00  0.00    -0.270 OA
ENDROOT
BRANCH  14  16
ATOM     16  C   UNL     1      -3.814   3.701  25.378  0.00  0.00    +0.054 A 
ATOM     17  C   UNL     1      -3.423   3.748  26.104  0.00  0.00    +0.005 A 
ATOM     18  C   UNL     1      -2.639   4.004  26.134  0.00  0.00    +0.000 A 
ATOM     19  C   UNL     1      -2.246   4.213  25.440  0.00  0.00    +0.000 A 
ATOM     20  C   UNL     1      -2.637   4.167  24.715  0.00  0.00    +0.000 A 
ATOM     21  C   UNL     1      -3.421   3.911  24.683  0.00  0.00    +0.005 A 
ENDBRANCH  14  16
BRANCH   9   7
ATOM      4  C   UNL     1      -3.849  -0.625  24.807  0.00  0.00    +0.226 A 
ATOM      5  N   UNL     1      -3.691  -0.365  24.040  0.00  0.00    -0.112 NA
ATOM      6  N   UNL     1      -3.962   0.411  23.971  0.00  0.00    -0.112 NA
ATOM      7  C   UNL     1      -4.288   0.632  24.696  0.00  0.00    +0.227 A 
ATOM      8  O   UNL     1      -4.218  -0.009  25.212  0.00  0.00    -0.423 OA
BRANCH   4   3
ATOM      3  C   UNL     1      -3.670  -1.369  25.113  0.00  0.00    +0.087 C 
BRANCH   3   2
ATOM      1  C   UNL     1      -3.415  -2.760  24.912  0.00  0.00    +0.001 C 
ATOM      2  C   UNL     1      -3.634  -2.024  24.612  0.00  0.00    +0.010 C 
ENDBRANCH   3   2
ENDBRANCH   4   3
ENDBRANCH   9   7
TORSDOF 4
ENDMDL
MODEL 2
REMARK VINA RESULT:     -10.4      1.279      4.347
REMARK  Name = 
REMARK  4 active torsions:
REMARK  status: ('A' for Active; 'I' for Inactive)
REMARK    1  A    between atoms: C_2  and  C_3
REMARK    2  A    between atoms: C_3  and  C_4
REMARK    3  A    between atoms: C_7  and  C_9
REMARK    4  A    between atoms: C_14  and  C_16
REMARK                            x       y       z     vdW  Elec       q    Type
REMARK                         _______ _______ _______ _____ _____    ______ ____
ROOT
ATOM      9  C   UNL     1      -4.095   2.964  25.326  0.00  0.00    +0.100 C 
ATOM     10  C   UNL     1      -4.877   3.216  25.255  0.00  0.00    +0.033 C 
ATOM     11  C   UNL     1      -5.339   2.561  25.057  0.00  0.00    +0.094 C 
ATOM     12  N   UNL     1      -4.842   1.905  25.004  0.00  0.00    -0.276 N 
ATOM     13  C   UNL     1      -4.073   2.154  25.170  0.00  0.00    +0.103 C 
ATOM     14  C   UNL     1      -5.073   1.135  24.818  0.00  0.00    +0.249 C 
ATOM     15  O   UNL     1      -5.867   0.969  24.665  0.00  0.00    -0.270 OA
ENDROOT
BRANCH  14  16
ATOM     16  C   UNL     1      -4.512   0.532  24.786  0.00  0.00    +0.054 A 
ATOM     17  C   UNL     1      -4.102   0.386  24.085  0.00  0.00    +0.005 A 
ATOM     18  C   UNL     1      -3.540  -0.217  24.052  0.00  0.00    +0.000 A 
ATOM     19  C   UNL     1      -3.388  -0.674  24.722  0.00  0.00    +0.000 A 
ATOM     20  C   UNL     1      -3.797  -0.530  25.423  0.00  0.00    +0.000 A 
ATOM     21  C   UNL     1      -4.359   0.074  25.456  0.00  0.00    +0.005 A 
ENDBRANCH  14  16
BRANCH   9   7
ATOM      4  C   UNL     1      -2.257   4.041  25.471  0.00  0.00    +0.226 A 
ATOM      5  N   UNL     1      -2.646   4.296  26.152  0.00  0.00    -0.112 NA
ATOM      6  N   UNL     1      -3.382   3.924  26.181  0.00  0.00    -0.112 NA
ATOM      7  C   UNL     1      -3.448   3.438  25.517  0.00  0.00    +0.227 A 
ATOM      8  O   UNL     1      -2.753   3.511  25.078  0.00  0.00    -0.423 OA
BRANCH   4   3
ATOM      3  C   UNL     1      -1.505   4.275  25.225  0.00  0.00    +0.087 C 
BRANCH   3   2
ATOM      1  C   UNL     1      -0.639   5.289  24.713  0.00  0.00    +0.001 C 
ATOM      2  C   UNL     1      -1.355   5.069  25.058  0.00  0.00    +0.010 C 
ENDBRANCH   3   2
ENDBRANCH   4   3
ENDBRANCH   9   7
TORSDOF 4
ENDMDL
MODEL 3
REMARK VINA RESULT:     -10.3      1.644      2.046
REMARK  Name = 
REMARK  4 active torsions:
REMARK  status: ('A' for Active; 'I' for Inactive)
REMARK    1  A    between atoms: C_2  and  C_3
REMARK    2  A    between atoms: C_3  and  C_4
REMARK    3  A    between atoms: C_7  and  C_9
REMARK    4  A    between atoms: C_14  and  C_16
REMARK                            x       y       z     vdW  Elec       q    Type
REMARK                         _______ _______ _______ _____ _____    ______ ____
ROOT
ATOM      9  C   UNL     1      -3.612   2.147  24.746  0.00  0.00    +0.100 C 
ATOM     10  C   UNL     1      -4.030   2.848  24.622  0.00  0.00    +0.033 C 
ATOM     11  C   UNL     1      -3.507   3.478  24.728  0.00  0.00    +0.094 C 
ATOM     12  N   UNL     1      -2.767   3.167  24.916  0.00  0.00    -0.276 N 
ATOM     13  C   UNL     1      -2.831   2.344  24.927  0.00  0.00    +0.103 C 
ATOM     14  C   UNL     1      -2.082   3.602  25.066  0.00  0.00    +0.249 C 
ATOM     15  O   UNL     1      -2.102   4.426  25.035  0.00  0.00    -0.270 OA
ENDROOT
BRANCH  14  16
ATOM     16  C   UNL     1      -1.378   3.213  25.248  0.00  0.00    +0.054 A 
ATOM     17  C   UNL     1      -1.195   3.036  26.034  0.00  0.00    +0.005 A 
ATOM     18  C   UNL     1      -0.491   2.647  26.216  0.00  0.00    +0.000 A 
ATOM     19  C   UNL     1       0.030   2.434  25.613  0.00  0.00    +0.000 A 
ATOM     20  C   UNL     1      -0.152   2.610  24.828  0.00  0.00    +0.000 A 
ATOM     21  C   UNL     1      -0.856   3.000  24.645  0.00  0.00    +0.005 A 
ENDBRANCH  14  16
BRANCH   9   7
ATOM      4  C   UNL     1      -4.093   0.104  24.358  0.00  0.00    +0.226 A 
ATOM      5  N   UNL     1      -4.695   0.313  24.882  0.00  0.00    -0.112 NA
ATOM      6  N   UNL     1      -4.589   1.104  25.091  0.00  0.00    -0.112 NA
ATOM      7  C   UNL     1      -3.920   1.384  24.697  0.00  0.00    +0.227 A 
ATOM      8  O   UNL     1      -3.614   0.765  24.244  0.00  0.00    -0.423 OA
BRANCH   4   3
ATOM      3  C   UNL     1      -3.989  -0.637  24.011  0.00  0.00    +0.087 C 
BRANCH   3   2
ATOM      1  C   UNL     1      -3.933  -2.060  24.127  0.00  0.00    +0.001 C 
ATOM      2  C   UNL     1      -3.990  -1.316  24.480  0.00  0.00    +0.010 C 
ENDBRANCH   3   2
ENDBRANCH   4   3
ENDBRANCH   9   7
TORSDOF 4
ENDMDL
MODEL 4
REMARK VINA RESULT:     -10.3      2.138      2.747
REMARK  Name = 
REMARK  4 active torsions:
REMARK  status: ('A' for Active; 'I' for Inactive)
REMARK    1  A    between atoms: C_2  and  C_3
REMARK    2  A    between atoms: C_3  and  C_4
REMARK    3  A    between atoms: C_7  and  C_9
REMARK    4  A    between atoms: C_14  and  C_16
REMARK                            x       y       z     vdW  Elec       q    Type
REMARK                         _______ _______ _______ _____ _____    ______ ____
ROOT
ATOM      9  C   UNL     1      -1.826   1.042  24.999  0.00  0.00    +0.100 C 
ATOM     10  C   UNL     1      -1.197   0.640  25.352  0.00  0.00    +0.033 C 
ATOM     11  C   UNL     1      -0.696   1.201  25.693  0.00  0.00    +0.094 C 
ATOM     12  N   UNL     1      -1.015   1.948  25.551  0.00  0.00    -0.276 N 
ATOM     13  C   UNL     1      -1.713   1.850  25.122  0.00  0.00    +0.103 C 
ATOM     14  C   UNL     1      -0.692   2.668  25.794  0.00  0.00    +0.249 C 
ATOM     15  O   UNL     1       0.013   2.679  26.221  0.00  0.00    -0.270 OA
ENDROOT
BRANCH  14  16
ATOM     16  C   UNL     1      -1.075   3.375  25.610  0.00  0.00    +0.054 A 
ATOM     17  C   UNL     1      -0.783   3.858  25.008  0.00  0.00    +0.005 A 
ATOM     18  C   UNL     1      -1.166   4.565  24.825  0.00  0.00    +0.000 A 
ATOM     19  C   UNL     1      -1.841   4.789  25.243  0.00  0.00    +0.000 A 
ATOM     20  C   UNL     1      -2.133   4.306  25.844  0.00  0.00    +0.000 A 
ATOM     21  C   UNL     1      -1.750   3.599  26.028  0.00  0.00    +0.005 A 
ENDBRANCH  14  16
BRANCH   9   7
ATOM      4  C   UNL     1      -3.466  -0.117  24.275  0.00  0.00    +0.226 A 
ATOM      5  N   UNL     1      -3.386   0.442  23.673  0.00  0.00    -0.112 NA
ATOM      6  N   UNL     1      -2.762   0.944  23.870  0.00  0.00    -0.112 NA
ATOM      7  C   UNL     1      -2.456   0.696  24.595  0.00  0.00    +0.227 A 
ATOM      8  O   UNL     1      -2.891   0.041  24.845  0.00  0.00    -0.423 OA
BRANCH   4   3
ATOM      3  C   UNL     1      -4.023  -0.725  24.302  0.00  0.00    +0.087 C 
BRANCH   3   2
ATOM      1  C   UNL     1      -4.385  -2.057  23.934  0.00  0.00    +0.001 C 
ATOM      2  C   UNL     1      -3.956  -1.367  23.788  0.00  0.00    +0.010 C 
ENDBRANCH   3   2
ENDBRANCH   4   3
ENDBRANCH   9   7
TORSDOF 4
ENDMDL
MODEL 5
REMARK VINA RESULT:     -10.2      1.518      2.254
REMARK  Name = 
REMARK  4 active torsions:
REMARK  status: ('A' for Active; 'I' for Inactive)
REMARK    1  A    between atoms: C_2  and  C_3
REMARK    2  A    between atoms: C_3  and  C_4
REMARK    3  A    between atoms: C_7  and  C_9
REMARK    4  A    between atoms: C_14  and  C_16
REMARK                            x       y       z     vdW  Elec       q    Type
REMARK                         _______ _______ _______ _____ _____    ______ ____
ROOT
ATOM      9  C   UNL     1      -2.775   0.986  24.186  0.00  0.00    +0.100 C 
ATOM     10  C   UNL     1      -2.433   1.394  23.555  0.00  0.00    +0.033 C 
ATOM     11  C   UNL     1      -2.865   2.087  23.436  0.00  0.00    +0.094 C 
ATOM     12  N   UNL     1      -3.473   2.107  23.992  0.00  0.00    -0.276 N 
ATOM     13  C   UNL     1      -3.418   1.427  24.456  0.00  0.00    +0.103 C 
ATOM     14  C   UNL     1      -4.038   2.704  24.072  0.00  0.00    +0.249 C 
ATOM     15  O   UNL     1      -4.024   3.355  23.565  0.00  0.00    -0.270 OA
ENDROOT
BRANCH  14  16
ATOM     16  C   UNL     1      -4.616   2.649  24.657  0.00  0.00    +0.054 A 
ATOM     17  C   UNL     1      -4.542   3.086  25.353  0.00  0.00    +0.005 A 
ATOM     18  C   UNL     1      -5.121   3.031  25.939  0.00  0.00    +0.000 A 
ATOM     19  C   UNL     1      -5.773   2.539  25.828  0.00  0.00    +0.000 A 
ATOM     20  C   UNL     1      -5.848   2.102  25.133  0.00  0.00    +0.000 A 
ATOM     21  C   UNL     1      -5.269   2.156  24.547  0.00  0.00    +0.005 A 
ENDBRANCH  14  16
BRANCH   9   7
ATOM      4  C   UNL     1      -2.409  -1.044  24.735  0.00  0.00    +0.226 A 
ATOM      5  N   UNL     1      -1.843  -0.651  25.189  0.00  0.00    -0.112 NA
ATOM      6  N   UNL     1      -1.911   0.157  25.038  0.00  0.00    -0.112 NA
ATOM      7  C   UNL     1      -2.519   0.264  24.492  0.00  0.00    +0.227 A 
ATOM      8  O   UNL     1      -2.827  -0.479  24.304  0.00  0.00    -0.423 OA
BRANCH   4   3
ATOM      3  C   UNL     1      -2.535  -1.859  24.716  0.00  0.00    +0.087 C 
BRANCH   3   2
ATOM      1  C   UNL     1      -3.447  -2.958  24.769  0.00  0.00    +0.001 C 
ATOM      2  C   UNL     1      -3.271  -2.167  24.927  0.00  0.00    +0.010 C 
ENDBRANCH   3   2
ENDBRANCH   4   3
ENDBRANCH   9   7
TORSDOF 4
ENDMDL
MODEL 6
REMARK VINA RESULT:     -10.2      2.573      5.209
REMARK  Name = 
REMARK  4 active torsions:
REMARK  status: ('A' for Active; 'I' for Inactive)
REMARK    1  A    between atoms: C_2  and  C_3
REMARK    2  A    between atoms: C_3  and  C_4
REMARK    3  A    between atoms: C_7  and  C_9
REMARK    4  A    between atoms: C_14  and  C_16
REMARK                            x       y       z     vdW  Elec       q    Type
REMARK                         _______ _______ _______ _____ _____    ______ ____
ROOT
ATOM      9  C   UNL     1      -0.851   1.009  25.063  0.00  0.00    +0.100 C 
ATOM     10  C   UNL     1      -0.210   0.615  24.723  0.00  0.00    +0.033 C 
ATOM     11  C   UNL     1      -0.461  -0.143  24.512  0.00  0.00    +0.094 C 
ATOM     12  N   UNL     1      -1.255  -0.216  24.722  0.00  0.00    -0.276 N 
ATOM     13  C   UNL     1      -1.496   0.496  25.063  0.00  0.00    +0.103 C 
ATOM     14  C   UNL     1      -1.726  -0.885  24.611  0.00  0.00    +0.249 C 
ATOM     15  O   UNL     1      -1.407  -1.560  24.261  0.00  0.00    -0.270 OA
ENDROOT
BRANCH  14  16
ATOM     16  C   UNL     1      -2.515  -0.878  24.850  0.00  0.00    +0.054 A 
ATOM     17  C   UNL     1      -2.718  -1.118  25.613  0.00  0.00    +0.005 A 
ATOM     18  C   UNL     1      -3.507  -1.110  25.852  0.00  0.00    +0.000 A 
ATOM     19  C   UNL     1      -4.094  -0.863  25.328  0.00  0.00    +0.000 A 
ATOM     20  C   UNL     1      -3.893  -0.623  24.565  0.00  0.00    +0.000 A 
ATOM     21  C   UNL     1      -3.103  -0.630  24.326  0.00  0.00    +0.005 A 
ENDBRANCH  14  16
BRANCH   9   7
ATOM      4  C   UNL     1      -1.134   3.073  25.529  0.00  0.00    +0.226 A 
ATOM      5  N   UNL     1      -0.543   2.868  26.067  0.00  0.00    -0.112 NA
ATOM      6  N   UNL     1      -0.365   2.070  25.958  0.00  0.00    -0.112 NA
ATOM      7  C   UNL     1      -0.845   1.782  25.353  0.00  0.00    +0.227 A 
ATOM      8  O   UNL     1      -1.321   2.402  25.088  0.00  0.00    -0.423 OA
BRANCH   4   3
ATOM      3  C   UNL     1      -1.477   3.819  25.447  0.00  0.00    +0.087 C 
BRANCH   3   2
ATOM      1  C   UNL     1      -1.374   5.191  25.063  0.00  0.00    +0.001 C 
ATOM      2  C   UNL     1      -1.049   4.434  25.102  0.00  0.00    +0.010 C 
ENDBRANCH   3   2
ENDBRANCH   4   3
ENDBRANCH   9   7
TORSDOF 4
ENDMDL
MODEL 7
REMARK VINA RESULT:      -9.9      1.855      4.785
REMARK  Name = 
REMARK  4 active torsions:
REMARK  status: ('A' for Active; 'I' for Inactive)
REMARK    1  A    between atoms: C_2  and  C_3
REMARK    2  A    between atoms: C_3  and  C_4
REMARK    3  A    between atoms: C_7  and  C_9
REMARK    4  A    between atoms: C_14  and  C_16
REMARK                            x       y       z     vdW  Elec       q    Type
REMARK                         _______ _______ _______ _____ _____    ______ ____
ROOT
ATOM      9  C   UNL     1      -2.224   1.201  24.832  0.00  0.00    +0.100 C 
ATOM     10  C   UNL     1      -1.442   1.326  25.063  0.00  0.00    +0.033 C 
ATOM     11  C   UNL     1      -1.119   0.597  25.277  0.00  0.00    +0.094 C 
ATOM     12  N   UNL     1      -1.702   0.022  25.178  0.00  0.00    -0.276 N 
ATOM     13  C   UNL     1      -2.385   0.395  24.903  0.00  0.00    +0.103 C 
ATOM     14  C   UNL     1      -1.617  -0.786  25.328  0.00  0.00    +0.249 C 
ATOM     15  O   UNL     1      -0.897  -1.080  25.603  0.00  0.00    -0.270 OA
ENDROOT
BRANCH  14  16
ATOM     16  C   UNL     1      -2.252  -1.297  25.203  0.00  0.00    +0.054 A 
ATOM     17  C   UNL     1      -2.279  -1.763  24.522  0.00  0.00    +0.005 A 
ATOM     18  C   UNL     1      -2.913  -2.275  24.397  0.00  0.00    +0.000 A 
ATOM     19  C   UNL     1      -3.521  -2.321  24.953  0.00  0.00    +0.000 A 
ATOM     20  C   UNL     1      -3.495  -1.856  25.634  0.00  0.00    +0.000 A 
ATOM     21  C   UNL     1      -2.860  -1.343  25.759  0.00  0.00    +0.005 A 
ENDBRANCH  14  16
BRANCH   9   7
ATOM      4  C   UNL     1      -3.685   2.736  24.571  0.00  0.00    +0.226 A 
ATOM      5  N   UNL     1      -3.447   2.607  23.792  0.00  0.00    -0.112 NA
ATOM      6  N   UNL     1      -2.871   2.016  23.794  0.00  0.00    -0.112 NA
ATOM      7  C   UNL     1      -2.752   1.780  24.575  0.00  0.00    +0.227 A 
ATOM      8  O   UNL     1      -3.255   2.224  25.055  0.00  0.00    -0.423 OA
BRANCH   4   3
ATOM      3  C   UNL     1      -4.252   3.280  24.821  0.00  0.00    +0.087 C 
BRANCH   3   2
ATOM      1  C   UNL     1      -5.468   3.545  25.522  0.00  0.00    +0.001 C 
ATOM      2  C   UNL     1      -4.965   3.014  25.140  0.00  0.00    +0.010 C 
ENDBRANCH   3   2
ENDBRANCH   4   3
ENDBRANCH   9   7
TORSDOF 4
ENDMDL
