MODEL 1
REMARK VINA RESULT:     -12.3      0.000      0.000
REMARK  Name = 
REMARK  6 active torsions:
REMARK  status: ('A' for Active; 'I' for Inactive)
REMARK    1  A    between atoms: C_2  and  C_22
REMARK    2  A    between atoms: C_9  and  N_10
REMARK    3  A    between atoms: N_13  and  C_14
REMARK    4  A    between atoms: C_22  and  C_24
REMARK    5  A    between atoms: N_26  and  C_27
REMARK    6  A    between atoms: C_27  and  C_28
REMARK                            x       y       z     vdW  Elec       q    Type
REMARK                         _______ _______ _______ _____ _____    ______ ____
ROOT
ATOM      1  C   UNL     1      -4.034   2.837  24.539  0.00  0.00    +0.052 C 
ATOM      2  C   UNL     1      -4.649   2.883  25.087  0.00  0.00    -0.001 C 
ATOM      3  C   UNL     1      -5.049   2.200  25.316  0.00  0.00    -0.000 C 
ATOM      4  C   UNL     1      -4.834   1.469  24.997  0.00  0.00    -0.001 C 
ATOM      5  C   UNL     1      -5.449   1.515  25.545  0.00  0.00    -0.000 C 
ATOM      6  C   UNL     1      -5.235   0.785  25.226  0.00  0.00    +0.002 C 
ATOM      7  C   UNL     1      -5.020   0.055  24.907  0.00  0.00    +0.022 C 
ATOM      8  C   UNL     1      -4.405   0.009  24.358  0.00  0.00    +0.097 C 
ATOM     15  C   UNL     1      -4.005   0.693  24.130  0.00  0.00    +0.019 C 
ATOM     16  C   UNL     1      -3.391   0.647  23.582  0.00  0.00    +0.002 C 
ATOM     17  C   UNL     1      -4.220   1.423  24.449  0.00  0.00    +0.045 C 
ATOM     18  C   UNL     1      -3.820   2.106  24.220  0.00  0.00    +0.145 C 
ATOM     19  O   UNL     1      -3.205   2.061  23.671  0.00  0.00    -0.224 OA
ENDROOT
BRANCH   8   9
ATOM      9  N   UNL     1      -4.191  -0.720  24.040  0.00  0.00    -0.189 NA
ATOM     10  C   UNL     1      -3.959  -1.337  24.538  0.00  0.00    +0.339 C 
ATOM     11  O   UNL     1      -3.943  -1.223  25.355  0.00  0.00    -0.249 OA
ATOM     12  N   UNL     1      -3.745  -2.067  24.219  0.00  0.00    -0.187 NA
BRANCH  12  13
ATOM     13  C   UNL     1      -3.514  -2.682  24.717  0.00  0.00    +0.117 C 
ATOM     14  C   UNL     1      -3.164  -3.359  24.401  0.00  0.00    +0.025 C 
ENDBRANCH  12  13
ENDBRANCH   8   9
BRANCH   1  20
ATOM     20  C   UNL     1      -3.634   3.521  24.310  0.00  0.00    +0.077 C 
ATOM     21  C   UNL     1      -3.799   3.870  23.581  0.00  0.00    +0.009 C 
BRANCH  20  22
ATOM     22  C   UNL     1      -3.068   3.855  24.808  0.00  0.00    +0.241 C 
ATOM     23  O   UNL     1      -3.267   4.500  25.285  0.00  0.00    -0.273 OA
ATOM     24  N   UNL     1      -2.303   3.547  24.831  0.00  0.00    -0.201 NA
BRANCH  24  25
ATOM     25  C   UNL     1      -1.738   3.881  25.329  0.00  0.00    +0.141 C 
BRANCH  25  26
ATOM     26  C   UNL     1      -1.058   3.457  25.526  0.00  0.00    -0.001 A 
ATOM     27  C   UNL     1      -0.398   3.483  25.033  0.00  0.00    -0.003 A 
ATOM     28  C   UNL     1       0.282   3.059  25.230  0.00  0.00    -0.000 A 
ATOM     29  C   UNL     1       0.301   2.608  25.921  0.00  0.00    -0.000 A 
ATOM     30  C   UNL     1      -0.360   2.581  26.414  0.00  0.00    -0.000 A 
ATOM     31  C   UNL     1      -1.039   3.006  26.216  0.00  0.00    -0.003 A 
ENDBRANCH  25  26
ENDBRANCH  24  25
ENDBRANCH  20  22
ENDBRANCH   1  20
TORSDOF 6
ENDMDL
MODEL 2
REMARK VINA RESULT:     -12.0      1.854      4.998
REMARK  Name = 
REMARK  6 active torsions:
REMARK  status: ('A' for Active; 'I' for Inactive)
REMARK    1  A    between atoms: C_2  and  C_22
REMARK    2  A    between atoms: C_9  and  N_10
REMARK    3  A    between atoms: N_13  and  C_14
REMARK    4  A    between atoms: C_22  and  C_24
REMARK    5  A    between atoms: N_26  and  C_27
REMARK    6  A    between atoms: C_27  and  C_28
REMARK                            x       y       z     vdW  Elec       q    Type
REMARK                         _______ _______ _______ _____ _____    ______ ____
ROOT
ATOM      1  C   UNL     1      -0.772   1.061  24.570  0.00  0.00    +0.052 C 
ATOM      2  C   UNL     1      -0.310   1.333  25.197  0.00  0.00    -0.001 C 
ATOM      3  C   UNL     1      -0.538   2.005  25.616  0.00  0.00    -0.000 C 
ATOM      4  C   UNL     1      -1.230   2.406  25.408  0.00  0.00    -0.001 C 
ATOM      5  C   UNL     1      -0.767   2.678  26.035  0.00  0.00    -0.000 C 
ATOM      6  C   UNL     1      -1.458   3.079  25.828  0.00  0.00    +0.002 C 
ATOM      7  C   UNL     1      -2.148   3.480  25.621  0.00  0.00    +0.022 C 
ATOM      8  C   UNL     1      -2.611   3.208  24.993  0.00  0.00    +0.097 C 
ATOM     15  C   UNL     1      -2.382   2.535  24.574  0.00  0.00    +0.019 C 
ATOM     16  C   UNL     1      -2.845   2.264  23.948  0.00  0.00    +0.002 C 
ATOM     17  C   UNL     1      -1.692   2.135  24.782  0.00  0.00    +0.045 C 
ATOM     18  C   UNL     1      -1.464   1.462  24.363  0.00  0.00    +0.145 C 
ATOM     19  O   UNL     1      -1.926   1.190  23.735  0.00  0.00    -0.224 OA
ENDROOT
BRANCH   8   9
ATOM      9  N   UNL     1      -3.301   3.608  24.786  0.00  0.00    -0.189 NA
ATOM     10  C   UNL     1      -3.928   3.654  25.321  0.00  0.00    +0.339 C 
ATOM     11  O   UNL     1      -3.864   3.299  26.064  0.00  0.00    -0.249 OA
ATOM     12  N   UNL     1      -4.619   4.055  25.114  0.00  0.00    -0.187 NA
BRANCH  12  13
ATOM     13  C   UNL     1      -5.245   4.100  25.649  0.00  0.00    +0.117 C 
ATOM     14  C   UNL     1      -5.971   4.412  25.408  0.00  0.00    +0.025 C 
ENDBRANCH  12  13
ENDBRANCH   8   9
BRANCH   1  20
ATOM     20  C   UNL     1      -0.544   0.388  24.150  0.00  0.00    +0.077 C 
ATOM     21  C   UNL     1      -0.247   0.462  23.384  0.00  0.00    +0.009 C 
BRANCH  20  22
ATOM     22  C   UNL     1      -0.614  -0.357  24.495  0.00  0.00    +0.241 C 
ATOM     23  O   UNL     1       0.030  -0.691  24.891  0.00  0.00    -0.273 OA
ATOM     24  N   UNL     1      -1.327  -0.771  24.446  0.00  0.00    -0.201 NA
BRANCH  24  25
ATOM     25  C   UNL     1      -1.396  -1.516  24.791  0.00  0.00    +0.141 C 
BRANCH  25  26
ATOM     26  C   UNL     1      -2.130  -1.893  24.816  0.00  0.00    -0.001 A 
ATOM     27  C   UNL     1      -2.678  -1.693  25.398  0.00  0.00    -0.003 A 
ATOM     28  C   UNL     1      -3.411  -2.070  25.423  0.00  0.00    -0.000 A 
ATOM     29  C   UNL     1      -3.596  -2.648  24.864  0.00  0.00    -0.000 A 
ATOM     30  C   UNL     1      -3.048  -2.849  24.281  0.00  0.00    -0.000 A 
ATOM     31  C   UNL     1      -2.315  -2.471  24.257  0.00  0.00    -0.003 A 
ENDBRANCH  25  26
ENDBRANCH  24  25
ENDBRANCH  20  22
ENDBRANCH   1  20
TORSDOF 6
ENDMDL
MODEL 3
REMARK VINA RESULT:     -11.8      2.026      3.661
REMARK  Name = 
REMARK  6 active torsions:
REMARK  status: ('A' for Active; 'I' for Inactive)
REMARK    1  A    between atoms: C_2  and  C_22
REMARK    2  A    between atoms: C_9  and  N_10
REMARK    3  A    between atoms: N_13  and  C_14
REMARK    4  A    between atoms: C_22  and  C_24
REMARK    5  A    between atoms: N_26  and  C_27
REMARK    6  A    between atoms: C_27  and  C_28
REMARK                            x       y       z     vdW  Elec       q    Type
REMARK                         _______ _______ _______ _____ _____    ______ ____
ROOT
ATOM      1  C   UNL     1      -0.268   1.965  25.197  0.00  0.00    +0.052 C 
ATOM      2  C   UNL     1       0.140   1.994  24.481  0.00  0.00    -0.001 C 
ATOM      3  C   UNL     1       0.188   1.322  24.006  0.00  0.00    -0.000 C 
ATOM      4  C   UNL     1      -0.172   0.619  24.247  0.00  0.00    -0.001 C 
ATOM      5  C   UNL     1       0.237   0.649  23.530  0.00  0.00    -0.000 C 
ATOM      6  C   UNL     1      -0.123  -0.053  23.771  0.00  0.00    +0.002 C 
ATOM      7  C   UNL     1      -0.483  -0.755  24.011  0.00  0.00    +0.022 C 
ATOM      8  C   UNL     1      -0.892  -0.785  24.728  0.00  0.00    +0.097 C 
ATOM     15  C   UNL     1      -0.940  -0.112  25.203  0.00  0.00    +0.019 C 
ATOM     16  C   UNL     1      -1.348  -0.143  25.919  0.00  0.00    +0.002 C 
ATOM     17  C   UNL     1      -0.580   0.590  24.963  0.00  0.00    +0.045 C 
ATOM     18  C   UNL     1      -0.628   1.262  25.438  0.00  0.00    +0.145 C 
ATOM     19  O   UNL     1      -1.036   1.232  26.155  0.00  0.00    -0.224 OA
ENDROOT
BRANCH   8   9
ATOM      9  N   UNL     1      -1.251  -1.486  24.969  0.00  0.00    -0.189 NA
ATOM     10  C   UNL     1      -1.891  -1.789  24.544  0.00  0.00    +0.339 C 
ATOM     11  O   UNL     1      -2.171  -1.389  23.878  0.00  0.00    -0.249 OA
ATOM     12  N   UNL     1      -2.251  -2.492  24.784  0.00  0.00    -0.187 NA
BRANCH  12  13
ATOM     13  C   UNL     1      -2.891  -2.794  24.359  0.00  0.00    +0.117 C 
ATOM     14  C   UNL     1      -3.487  -3.208  24.751  0.00  0.00    +0.025 C 
ENDBRANCH  12  13
ENDBRANCH   8   9
BRANCH   1  20
ATOM     20  C   UNL     1      -0.316   2.637  25.673  0.00  0.00    +0.077 C 
ATOM     21  C   UNL     1       0.089   2.663  26.391  0.00  0.00    +0.009 C 
BRANCH  20  22
ATOM     22  C   UNL     1      -0.770   3.282  25.432  0.00  0.00    +0.241 C 
ATOM     23  O   UNL     1      -0.414   3.911  25.034  0.00  0.00    -0.273 OA
ATOM     24  N   UNL     1      -1.580   3.298  25.588  0.00  0.00    -0.201 NA
BRANCH  24  25
ATOM     25  C   UNL     1      -2.034   3.943  25.347  0.00  0.00    +0.141 C 
BRANCH  25  26
ATOM     26  C   UNL     1      -2.856   3.880  25.311  0.00  0.00    -0.001 A 
ATOM     27  C   UNL     1      -3.305   3.934  26.001  0.00  0.00    -0.003 A 
ATOM     28  C   UNL     1      -4.127   3.871  25.964  0.00  0.00    -0.000 A 
ATOM     29  C   UNL     1      -4.499   3.753  25.238  0.00  0.00    -0.000 A 
ATOM     30  C   UNL     1      -4.050   3.698  24.547  0.00  0.00    -0.000 A 
ATOM     31  C   UNL     1      -3.228   3.762  24.585  0.00  0.00    -0.003 A 
ENDBRANCH  25  26
ENDBRANCH  24  25
ENDBRANCH  20  22
ENDBRANCH   1  20
TORSDOF 6
ENDMDL
MODEL 4
REMARK VINA RESULT:     -11.7      1.417      4.502
REMARK  Name = 
REMARK  6 active torsions:
REMARK  status: ('A' for Active; 'I' for Inactive)
REMARK    1  A    between atoms: C_2  and  C_22
REMARK    2  A    between atoms: C_9  and  N_10
REMARK    3  A    between atoms: N_13  and  C_14
REMARK    4  A    between atoms: C_22  and  C_24
REMARK    5  A    between atoms: N_26  and  C_27
REMARK    6  A    between atoms: C_27  and  C_28
REMARK                            x       y       z     vdW  Elec       q    Type
REMARK                         _______ _______ _______ _____ _____    ______ ____
ROOT
ATOM      1  C   UNL     1      -4.368   0.449  24.562  0.00  0.00    +0.052 C 
ATOM      2  C   UNL     1      -5.003   0.595  25.066  0.00  0.00    -0.001 C 
ATOM      3  C   UNL     1      -5.151   1.361  25.332  0.00  0.00    -0.000 C 
ATOM      4  C   UNL     1      -4.662   1.983  25.093  0.00  0.00    -0.001 C 
ATOM      5  C   UNL     1      -5.298   2.129  25.598  0.00  0.00    -0.000 C 
ATOM      6  C   UNL     1      -4.810   2.749  25.359  0.00  0.00    +0.002 C 
ATOM      7  C   UNL     1      -4.322   3.370  25.120  0.00  0.00    +0.022 C 
ATOM      8  C   UNL     1      -3.686   3.224  24.615  0.00  0.00    +0.097 C 
ATOM     15  C   UNL     1      -3.539   2.457  24.349  0.00  0.00    +0.019 C 
ATOM     16  C   UNL     1      -2.903   2.312  23.844  0.00  0.00    +0.002 C 
ATOM     17  C   UNL     1      -4.027   1.836  24.588  0.00  0.00    +0.045 C 
ATOM     18  C   UNL     1      -3.879   1.070  24.322  0.00  0.00    +0.145 C 
ATOM     19  O   UNL     1      -3.243   0.923  23.817  0.00  0.00    -0.224 OA
ENDROOT
BRANCH   8   9
ATOM      9  N   UNL     1      -3.198   3.844  24.376  0.00  0.00    -0.189 NA
ATOM     10  C   UNL     1      -2.697   4.208  24.921  0.00  0.00    +0.339 C 
ATOM     11  O   UNL     1      -2.683   3.951  25.706  0.00  0.00    -0.249 OA
ATOM     12  N   UNL     1      -2.208   4.829  24.682  0.00  0.00    -0.187 NA
BRANCH  12  13
ATOM     13  C   UNL     1      -1.707   5.192  25.228  0.00  0.00    +0.117 C 
ATOM     14  C   UNL     1      -0.998   5.529  24.975  0.00  0.00    +0.025 C 
ENDBRANCH  12  13
ENDBRANCH   8   9
BRANCH   1  20
ATOM     20  C   UNL     1      -4.219  -0.318  24.295  0.00  0.00    +0.077 C 
ATOM     21  C   UNL     1      -4.432  -0.536  23.528  0.00  0.00    +0.009 C 
BRANCH  20  22
ATOM     22  C   UNL     1      -3.859  -0.866  24.795  0.00  0.00    +0.241 C 
ATOM     23  O   UNL     1      -4.294  -1.220  25.402  0.00  0.00    -0.273 OA
ATOM     24  N   UNL     1      -3.065  -1.062  24.689  0.00  0.00    -0.201 NA
BRANCH  24  25
ATOM     25  C   UNL     1      -2.705  -1.611  25.188  0.00  0.00    +0.141 C 
BRANCH  25  26
ATOM     26  C   UNL     1      -1.888  -1.727  25.155  0.00  0.00    -0.001 A 
ATOM     27  C   UNL     1      -1.382  -1.222  25.566  0.00  0.00    -0.003 A 
ATOM     28  C   UNL     1      -0.566  -1.338  25.533  0.00  0.00    -0.000 A 
ATOM     29  C   UNL     1      -0.256  -1.959  25.087  0.00  0.00    -0.000 A 
ATOM     30  C   UNL     1      -0.763  -2.465  24.675  0.00  0.00    -0.000 A 
ATOM     31  C   UNL     1      -1.578  -2.348  24.710  0.00  0.00    -0.003 A 
ENDBRANCH  25  26
ENDBRANCH  24  25
ENDBRANCH  20  22
ENDBRANCH   1  20
TORSDOF 6
ENDMDL
MODEL 5
REMARK VINA RESULT:     -11.3      2.400      4.310
REMARK  Name = 
REMARK  6 active torsions:
REMARK  status: ('A' for Active; 'I' for Inactive)
REMARK    1  A    between atoms: C_2  and  C_22
REMARK    2  A    between atoms: C_9  and  N_10
REMARK    3  A    between atoms: N_13  and  C_14
REMARK    4  A    between atoms: C_22  and  C_24
REMARK    5  A    between atoms: N_26  and  C_27
REMARK    6  A    between atoms: C_27  and  C_28
REMARK                            x       y       z     vdW  Elec       q    Type
REMARK                         _______ _______ _______ _____ _____    ______ ____
ROOT
ATOM      1  C   UNL     1      -2.035   3.453  25.226  0.00  0.00    +0.052 C 
ATOM      2  C   UNL     1      -1.592   3.515  25.919  0.00  0.00    -0.001 C 
ATOM      3  C   UNL     1      -0.954   3.009  26.047  0.00  0.00    -0.000 C 
ATOM      4  C   UNL     1      -0.758   2.440  25.482  0.00  0.00    -0.001 C 
ATOM      5  C   UNL     1      -0.315   2.502  26.176  0.00  0.00    -0.000 C 
ATOM      6  C   UNL     1      -0.120   1.933  25.611  0.00  0.00    +0.002 C 
ATOM      7  C   UNL     1       0.076   1.364  25.046  0.00  0.00    +0.022 C 
ATOM      8  C   UNL     1      -0.368   1.302  24.352  0.00  0.00    +0.097 C 
ATOM     15  C   UNL     1      -1.006   1.809  24.224  0.00  0.00    +0.019 C 
ATOM     16  C   UNL     1      -1.448   1.746  23.531  0.00  0.00    +0.002 C 
ATOM     17  C   UNL     1      -1.201   2.378  24.789  0.00  0.00    +0.045 C 
ATOM     18  C   UNL     1      -1.839   2.884  24.661  0.00  0.00    +0.145 C 
ATOM     19  O   UNL     1      -2.282   2.822  23.967  0.00  0.00    -0.224 OA
ENDROOT
BRANCH   8   9
ATOM      9  N   UNL     1      -0.172   0.734  23.788  0.00  0.00    -0.189 NA
ATOM     10  C   UNL     1       0.606   0.667  23.522  0.00  0.00    +0.339 C 
ATOM     11  O   UNL     1       1.189   1.169  23.821  0.00  0.00    -0.249 OA
ATOM     12  N   UNL     1       0.802   0.098  22.957  0.00  0.00    -0.187 NA
BRANCH  12  13
ATOM     13  C   UNL     1       1.580   0.032  22.691  0.00  0.00    +0.117 C 
ATOM     14  C   UNL     1       1.740  -0.341  21.973  0.00  0.00    +0.025 C 
ENDBRANCH  12  13
ENDBRANCH   8   9
BRANCH   1  20
ATOM     20  C   UNL     1      -2.673   3.960  25.097  0.00  0.00    +0.077 C 
ATOM     21  C   UNL     1      -2.634   4.528  24.500  0.00  0.00    +0.009 C 
BRANCH  20  22
ATOM     22  C   UNL     1      -3.350   3.898  25.563  0.00  0.00    +0.241 C 
ATOM     23  O   UNL     1      -3.378   4.268  26.301  0.00  0.00    -0.273 OA
ATOM     24  N   UNL     1      -4.000   3.467  25.294  0.00  0.00    -0.201 NA
BRANCH  24  25
ATOM     25  C   UNL     1      -4.677   3.405  25.761  0.00  0.00    +0.141 C 
BRANCH  25  26
ATOM     26  C   UNL     1      -5.224   2.805  25.617  0.00  0.00    -0.001 A 
ATOM     27  C   UNL     1      -5.618   2.446  26.246  0.00  0.00    -0.003 A 
ATOM     28  C   UNL     1      -6.166   1.845  26.103  0.00  0.00    -0.000 A 
ATOM     29  C   UNL     1      -6.319   1.604  25.329  0.00  0.00    -0.000 A 
ATOM     30  C   UNL     1      -5.925   1.963  24.699  0.00  0.00    -0.000 A 
ATOM     31  C   UNL     1      -5.378   2.563  24.843  0.00  0.00    -0.003 A 
ENDBRANCH  25  26
ENDBRANCH  24  25
ENDBRANCH  20  22
ENDBRANCH   1  20
TORSDOF 6
ENDMDL
MODEL 6
REMARK VINA RESULT:     -11.2      1.661      4.989
REMARK  Name = 
REMARK  6 active torsions:
REMARK  status: ('A' for Active; 'I' for Inactive)
REMARK    1  A    between atoms: C_2  and  C_22
REMARK    2  A    between atoms: C_9  and  N_10
REMARK    3  A    between atoms: N_13  and  C_14
REMARK    4  A    between atoms: C_22  and  C_24
REMARK    5  A    between atoms: N_26  and  C_27
REMARK    6  A    between atoms: C_27  and  C_28
REMARK                            x       y       z     vdW  Elec       q    Type
REMARK                         _______ _______ _______ _____ _____    ______ ____
ROOT
ATOM      1  C   UNL     1      -2.739   1.951  24.240  0.00  0.00    +0.052 C 
ATOM      2  C   UNL     1      -3.167   2.618  24.466  0.00  0.00    -0.001 C 
ATOM      3  C   UNL     1      -2.834   3.165  24.987  0.00  0.00    -0.000 C 
ATOM      4  C   UNL     1      -2.073   3.043  25.282  0.00  0.00    -0.001 C 
ATOM      5  C   UNL     1      -2.501   3.711  25.508  0.00  0.00    -0.000 C 
ATOM      6  C   UNL     1      -1.741   3.589  25.804  0.00  0.00    +0.002 C 
ATOM      7  C   UNL     1      -0.980   3.468  26.099  0.00  0.00    +0.022 C 
ATOM      8  C   UNL     1      -0.551   2.799  25.873  0.00  0.00    +0.097 C 
ATOM     15  C   UNL     1      -0.884   2.253  25.352  0.00  0.00    +0.019 C 
ATOM     16  C   UNL     1      -0.456   1.586  25.126  0.00  0.00    +0.002 C 
ATOM     17  C   UNL     1      -1.645   2.375  25.057  0.00  0.00    +0.045 C 
ATOM     18  C   UNL     1      -1.977   1.829  24.536  0.00  0.00    +0.145 C 
ATOM     19  O   UNL     1      -1.550   1.161  24.310  0.00  0.00    -0.224 OA
ENDROOT
BRANCH   8   9
ATOM      9  N   UNL     1       0.209   2.678  26.167  0.00  0.00    -0.189 NA
ATOM     10  C   UNL     1       0.339   2.671  26.983  0.00  0.00    +0.339 C 
ATOM     11  O   UNL     1      -0.292   2.786  27.503  0.00  0.00    -0.249 OA
ATOM     12  N   UNL     1       1.100   2.549  27.278  0.00  0.00    -0.187 NA
BRANCH  12  13
ATOM     13  C   UNL     1       1.229   2.543  28.093  0.00  0.00    +0.117 C 
ATOM     14  C   UNL     1       1.986   2.684  28.391  0.00  0.00    +0.025 C 
ENDBRANCH  12  13
ENDBRANCH   8   9
BRANCH   1  20
ATOM     20  C   UNL     1      -3.071   1.404  23.719  0.00  0.00    +0.077 C 
ATOM     21  C   UNL     1      -2.804   1.364  22.940  0.00  0.00    +0.009 C 
BRANCH  20  22
ATOM     22  C   UNL     1      -3.669   0.898  23.977  0.00  0.00    +0.241 C 
ATOM     23  O   UNL     1      -4.410   1.204  24.178  0.00  0.00    -0.273 OA
ATOM     24  N   UNL     1      -3.528   0.087  24.035  0.00  0.00    -0.201 NA
BRANCH  24  25
ATOM     25  C   UNL     1      -4.126  -0.418  24.293  0.00  0.00    +0.141 C 
BRANCH  25  26
ATOM     26  C   UNL     1      -3.973  -1.223  24.391  0.00  0.00    -0.001 A 
ATOM     27  C   UNL     1      -3.598  -1.492  25.074  0.00  0.00    -0.003 A 
ATOM     28  C   UNL     1      -3.445  -2.297  25.172  0.00  0.00    -0.000 A 
ATOM     29  C   UNL     1      -3.667  -2.833  24.585  0.00  0.00    -0.000 A 
ATOM     30  C   UNL     1      -4.043  -2.564  23.901  0.00  0.00    -0.000 A 
ATOM     31  C   UNL     1      -4.195  -1.759  23.804  0.00  0.00    -0.003 A 
ENDBRANCH  25  26
ENDBRANCH  24  25
ENDBRANCH  20  22
ENDBRANCH   1  20
TORSDOF 6
ENDMDL
MODEL 7
REMARK VINA RESULT:     -11.2      2.578      4.458
REMARK  Name = 
REMARK  6 active torsions:
REMARK  status: ('A' for Active; 'I' for Inactive)
REMARK    1  A    between atoms: C_2  and  C_22
REMARK    2  A    between atoms: C_9  and  N_10
REMARK    3  A    between atoms: N_13  and  C_14
REMARK    4  A    between atoms: C_22  and  C_24
REMARK    5  A    between atoms: N_26  and  C_27
REMARK    6  A    between atoms: C_27  and  C_28
REMARK                            x       y       z     vdW  Elec       q    Type
REMARK                         _______ _______ _______ _____ _____    ______ ____
ROOT
ATOM      1  C   UNL     1      -3.164  -0.266  24.639  0.00  0.00    +0.052 C 
ATOM      2  C   UNL     1      -2.989  -0.846  25.198  0.00  0.00    -0.001 C 
ATOM      3  C   UNL     1      -2.204  -1.049  25.350  0.00  0.00    -0.000 C 
ATOM      4  C   UNL     1      -1.594  -0.671  24.942  0.00  0.00    -0.001 C 
ATOM      5  C   UNL     1      -1.418  -1.252  25.502  0.00  0.00    -0.000 C 
ATOM      6  C   UNL     1      -0.808  -0.874  25.094  0.00  0.00    +0.002 C 
ATOM      7  C   UNL     1      -0.199  -0.496  24.687  0.00  0.00    +0.022 C 
ATOM      8  C   UNL     1      -0.374   0.085  24.127  0.00  0.00    +0.097 C 
ATOM     15  C   UNL     1      -1.159   0.287  23.975  0.00  0.00    +0.019 C 
ATOM     16  C   UNL     1      -1.334   0.868  23.416  0.00  0.00    +0.002 C 
ATOM     17  C   UNL     1      -1.769  -0.091  24.383  0.00  0.00    +0.045 C 
ATOM     18  C   UNL     1      -2.554   0.112  24.231  0.00  0.00    +0.145 C 
ATOM     19  O   UNL     1      -2.730   0.692  23.672  0.00  0.00    -0.224 OA
ENDROOT
BRANCH   8   9
ATOM      9  N   UNL     1       0.235   0.462  23.720  0.00  0.00    -0.189 NA
ATOM     10  C   UNL     1       0.831   0.016  23.363  0.00  0.00    +0.339 C 
ATOM     11  O   UNL     1       0.817  -0.808  23.414  0.00  0.00    -0.249 OA
ATOM     12  N   UNL     1       1.441   0.394  22.955  0.00  0.00    -0.187 NA
BRANCH  12  13
ATOM     13  C   UNL     1       2.037  -0.052  22.599  0.00  0.00    +0.117 C 
ATOM     14  C   UNL     1       2.743   0.310  22.373  0.00  0.00    +0.025 C 
ENDBRANCH  12  13
ENDBRANCH   8   9
BRANCH   1  20
ATOM     20  C   UNL     1      -3.949  -0.063  24.487  0.00  0.00    +0.077 C 
ATOM     21  C   UNL     1      -4.293  -0.262  23.764  0.00  0.00    +0.009 C 
BRANCH  20  22
ATOM     22  C   UNL     1      -4.390   0.339  25.056  0.00  0.00    +0.241 C 
ATOM     23  O   UNL     1      -4.680  -0.066  25.715  0.00  0.00    -0.273 OA
ATOM     24  N   UNL     1      -4.541   1.145  24.968  0.00  0.00    -0.201 NA
BRANCH  24  25
ATOM     25  C   UNL     1      -4.982   1.547  25.538  0.00  0.00    +0.141 C 
BRANCH  25  26
ATOM     26  C   UNL     1      -5.041   2.369  25.510  0.00  0.00    -0.001 A 
ATOM     27  C   UNL     1      -4.360   2.833  25.517  0.00  0.00    -0.003 A 
ATOM     28  C   UNL     1      -4.419   3.656  25.489  0.00  0.00    -0.000 A 
ATOM     29  C   UNL     1      -5.161   4.014  25.454  0.00  0.00    -0.000 A 
ATOM     30  C   UNL     1      -5.844   3.550  25.447  0.00  0.00    -0.000 A 
ATOM     31  C   UNL     1      -5.783   2.728  25.475  0.00  0.00    -0.003 A 
ENDBRANCH  25  26
ENDBRANCH  24  25
ENDBRANCH  20  22
ENDBRANCH   1  20
TORSDOF 6
ENDMDL
MODEL 8
REMARK VINA RESULT:     -10.9      1.991      4.824
REMARK  Name = 
REMARK  6 active torsions:
REMARK  status: ('A' for Active; 'I' for Inactive)
REMARK    1  A    between atoms: C_2  and  C_22
REMARK    2  A    between atoms: C_9  and  N_10
REMARK    3  A    between atoms: N_13  and  C_14
REMARK    4  A    between atoms: C_22  and  C_24
REMARK    5  A    between atoms: N_26  and  C_27
REMARK    6  A    between atoms: C_27  and  C_28
REMARK                            x       y       z     vdW  Elec       q    Type
REMARK                         _______ _______ _______ _____ _____    ______ ____
ROOT
ATOM      1  C   UNL     1      -1.234   1.090  24.069  0.00  0.00    +0.052 C 
ATOM      2  C   UNL     1      -1.418   1.029  23.268  0.00  0.00    -0.001 C 
ATOM      3  C   UNL     1      -2.022   1.491  22.948  0.00  0.00    -0.000 C 
ATOM      4  C   UNL     1      -2.441   2.014  23.430  0.00  0.00    -0.001 C 
ATOM      5  C   UNL     1      -2.626   1.954  22.628  0.00  0.00    -0.000 C 
ATOM      6  C   UNL     1      -3.045   2.476  23.109  0.00  0.00    +0.002 C 
ATOM      7  C   UNL     1      -3.464   2.999  23.590  0.00  0.00    +0.022 C 
ATOM      8  C   UNL     1      -3.279   3.060  24.393  0.00  0.00    +0.097 C 
ATOM     15  C   UNL     1      -2.675   2.598  24.712  0.00  0.00    +0.019 C 
ATOM     16  C   UNL     1      -2.491   2.659  25.514  0.00  0.00    +0.002 C 
ATOM     17  C   UNL     1      -2.256   2.075  24.231  0.00  0.00    +0.045 C 
ATOM     18  C   UNL     1      -1.653   1.613  24.551  0.00  0.00    +0.145 C 
ATOM     19  O   UNL     1      -1.468   1.674  25.353  0.00  0.00    -0.224 OA
ENDROOT
BRANCH   8   9
ATOM      9  N   UNL     1      -3.698   3.582  24.874  0.00  0.00    -0.189 NA
ATOM     10  C   UNL     1      -4.516   3.504  24.954  0.00  0.00    +0.339 C 
ATOM     11  O   UNL     1      -4.914   2.903  24.552  0.00  0.00    -0.249 OA
ATOM     12  N   UNL     1      -4.935   4.027  25.435  0.00  0.00    -0.187 NA
BRANCH  12  13
ATOM     13  C   UNL     1      -5.752   3.948  25.515  0.00  0.00    +0.117 C 
ATOM     14  C   UNL     1      -6.204   4.589  25.773  0.00  0.00    +0.025 C 
ENDBRANCH  12  13
ENDBRANCH   8   9
BRANCH   1  20
ATOM     20  C   UNL     1      -0.630   0.628  24.390  0.00  0.00    +0.077 C 
ATOM     21  C   UNL     1       0.022   0.990  24.744  0.00  0.00    +0.009 C 
BRANCH  20  22
ATOM     22  C   UNL     1      -0.677  -0.194  24.358  0.00  0.00    +0.241 C 
ATOM     23  O   UNL     1      -0.111  -0.624  23.937  0.00  0.00    -0.273 OA
ATOM     24  N   UNL     1      -1.290  -0.589  24.746  0.00  0.00    -0.201 NA
BRANCH  24  25
ATOM     25  C   UNL     1      -1.337  -1.411  24.713  0.00  0.00    +0.141 C 
BRANCH  25  26
ATOM     26  C   UNL     1      -2.061  -1.788  24.833  0.00  0.00    -0.001 A 
ATOM     27  C   UNL     1      -2.525  -1.593  25.486  0.00  0.00    -0.003 A 
ATOM     28  C   UNL     1      -3.249  -1.970  25.606  0.00  0.00    -0.000 A 
ATOM     29  C   UNL     1      -3.508  -2.544  25.072  0.00  0.00    -0.000 A 
ATOM     30  C   UNL     1      -3.043  -2.740  24.419  0.00  0.00    -0.000 A 
ATOM     31  C   UNL     1      -2.320  -2.362  24.300  0.00  0.00    -0.003 A 
ENDBRANCH  25  26
ENDBRANCH  24  25
ENDBRANCH  20  22
ENDBRANCH   1  20
TORSDOF 6
ENDMDL
MODEL 9
REMARK VINA RESULT:     -10.8      1.747      4.418
REMARK  Name = 
REMARK  6 active torsions:
REMARK  status: ('A' for Active; 'I' for Inactive)
REMARK    1  A    between atoms: C_2  and  C_22
REMARK    2  A    between atoms: C_9  and  N_10
REMARK    3  A    between atoms: N_13  and  C_14
REMARK    4  A    between atoms: C_22  and  C_24
REMARK    5  A    between atoms: N_26  and  C_27
REMARK    6  A    between atoms: C_27  and  C_28
REMARK                            x       y       z     vdW  Elec       q    Type
REMARK                         _______ _______ _______ _____ _____    ______ ____
ROOT
ATOM      1  C   UNL     1      -3.407   2.671  24.793  0.00  0.00    +0.052 C 
ATOM      2  C   UNL     1      -3.300   3.072  25.506  0.00  0.00    -0.001 C 
ATOM      3  C   UNL     1      -2.543   3.297  25.743  0.00  0.00    -0.000 C 
ATOM      4  C   UNL     1      -1.891   3.120  25.267  0.00  0.00    -0.001 C 
ATOM      5  C   UNL     1      -1.784   3.521  25.980  0.00  0.00    -0.000 C 
ATOM      6  C   UNL     1      -1.134   3.345  25.505  0.00  0.00    +0.002 C 
ATOM      7  C   UNL     1      -0.483   3.168  25.029  0.00  0.00    +0.022 C 
ATOM      8  C   UNL     1      -0.590   2.767  24.315  0.00  0.00    +0.097 C 
ATOM     15  C   UNL     1      -1.348   2.543  24.079  0.00  0.00    +0.019 C 
ATOM     16  C   UNL     1      -1.454   2.142  23.366  0.00  0.00    +0.002 C 
ATOM     17  C   UNL     1      -1.998   2.719  24.554  0.00  0.00    +0.045 C 
ATOM     18  C   UNL     1      -2.755   2.495  24.317  0.00  0.00    +0.145 C 
ATOM     19  O   UNL     1      -2.863   2.094  23.604  0.00  0.00    -0.224 OA
ENDROOT
BRANCH   8   9
ATOM      9  N   UNL     1       0.060   2.591  23.840  0.00  0.00    -0.189 NA
ATOM     10  C   UNL     1       0.586   1.996  24.065  0.00  0.00    +0.339 C 
ATOM     11  O   UNL     1       0.462   1.578  24.766  0.00  0.00    -0.249 OA
ATOM     12  N   UNL     1       1.237   1.819  23.589  0.00  0.00    -0.187 NA
BRANCH  12  13
ATOM     13  C   UNL     1       1.763   1.225  23.815  0.00  0.00    +0.117 C 
ATOM     14  C   UNL     1       2.263   0.883  23.255  0.00  0.00    +0.025 C 
ENDBRANCH  12  13
ENDBRANCH   8   9
BRANCH   1  20
ATOM     20  C   UNL     1      -4.164   2.447  24.555  0.00  0.00    +0.077 C 
ATOM     21  C   UNL     1      -4.559   2.880  23.975  0.00  0.00    +0.009 C 
BRANCH  20  22
ATOM     22  C   UNL     1      -4.526   1.789  24.897  0.00  0.00    +0.241 C 
ATOM     23  O   UNL     1      -5.116   1.892  25.466  0.00  0.00    -0.273 OA
ATOM     24  N   UNL     1      -4.300   1.029  24.670  0.00  0.00    -0.201 NA
BRANCH  24  25
ATOM     25  C   UNL     1      -4.662   0.371  25.012  0.00  0.00    +0.141 C 
BRANCH  25  26
ATOM     26  C   UNL     1      -4.346  -0.382  24.894  0.00  0.00    -0.001 A 
ATOM     27  C   UNL     1      -4.513  -0.795  24.200  0.00  0.00    -0.003 A 
ATOM     28  C   UNL     1      -4.197  -1.549  24.082  0.00  0.00    -0.000 A 
ATOM     29  C   UNL     1      -3.715  -1.888  24.659  0.00  0.00    -0.000 A 
ATOM     30  C   UNL     1      -3.548  -1.475  25.354  0.00  0.00    -0.000 A 
ATOM     31  C   UNL     1      -3.864  -0.722  25.471  0.00  0.00    -0.003 A 
ENDBRANCH  25  26
ENDBRANCH  24  25
ENDBRANCH  20  22
ENDBRANCH   1  20
TORSDOF 6
ENDMDL
MODEL 10
REMARK VINA RESULT:     -10.4      2.043      2.973
REMARK  Name = 
REMARK  6 active torsions:
REMARK  status: ('A' for Active; 'I' for Inactive)
REMARK    1  A    between atoms: C_2  and  C_22
REMARK    2  A    between atoms: C_9  and  N_10
REMARK    3  A    between atoms: N_13  and  C_14
REMARK    4  A    between atoms: C_22  and  C_24
REMARK    5  A    between atoms: N_26  and  C_27
REMARK    6  A    between atoms: C_27  and  C_28
REMARK                            x       y       z     vdW  Elec       q    Type
REMARK                         _______ _______ _______ _____ _____    ______ ____
ROOT
ATOM      1  C   UNL     1      -0.661   0.924  24.903  0.00  0.00    +0.052 C 
ATOM      2  C   UNL     1      -0.438   0.571  25.614  0.00  0.00    -0.001 C 
ATOM      3  C   UNL     1      -0.894  -0.036  25.934  0.00  0.00    -0.000 C 
ATOM      4  C   UNL     1      -1.575  -0.291  25.542  0.00  0.00    -0.001 C 
ATOM      5  C   UNL     1      -1.352  -0.644  26.254  0.00  0.00    -0.000 C 
ATOM      6  C   UNL     1      -2.032  -0.899  25.863  0.00  0.00    +0.002 C 
ATOM      7  C   UNL     1      -2.712  -1.154  25.472  0.00  0.00    +0.022 C 
ATOM      8  C   UNL     1      -2.936  -0.801  24.760  0.00  0.00    +0.097 C 
ATOM     15  C   UNL     1      -2.479  -0.193  24.440  0.00  0.00    +0.019 C 
ATOM     16  C   UNL     1      -2.703   0.159  23.729  0.00  0.00    +0.002 C 
ATOM     17  C   UNL     1      -1.798   0.061  24.831  0.00  0.00    +0.045 C 
ATOM     18  C   UNL     1      -1.342   0.669  24.511  0.00  0.00    +0.145 C 
ATOM     19  O   UNL     1      -1.565   1.022  23.799  0.00  0.00    -0.224 OA
ENDROOT
BRANCH   8   9
ATOM      9  N   UNL     1      -3.616  -1.055  24.369  0.00  0.00    -0.189 NA
ATOM     10  C   UNL     1      -3.734  -1.860  24.229  0.00  0.00    +0.339 C 
ATOM     11  O   UNL     1      -3.172  -2.410  24.480  0.00  0.00    -0.249 OA
ATOM     12  N   UNL     1      -4.415  -2.115  23.838  0.00  0.00    -0.187 NA
BRANCH  12  13
ATOM     13  C   UNL     1      -4.532  -2.919  23.698  0.00  0.00    +0.117 C 
ATOM     14  C   UNL     1      -5.099  -3.163  23.150  0.00  0.00    +0.025 C 
ENDBRANCH  12  13
ENDBRANCH   8   9
BRANCH   1  20
ATOM     20  C   UNL     1      -0.204   1.531  24.582  0.00  0.00    +0.077 C 
ATOM     21  C   UNL     1       0.128   1.445  23.832  0.00  0.00    +0.009 C 
BRANCH  20  22
ATOM     22  C   UNL     1      -0.080   2.225  25.010  0.00  0.00    +0.241 C 
ATOM     23  O   UNL     1       0.555   2.277  25.535  0.00  0.00    -0.273 OA
ATOM     24  N   UNL     1      -0.589   2.867  24.914  0.00  0.00    -0.201 NA
BRANCH  24  25
ATOM     25  C   UNL     1      -0.465   3.560  25.342  0.00  0.00    +0.141 C 
BRANCH  25  26
ATOM     26  C   UNL     1      -1.011   4.178  25.296  0.00  0.00    -0.001 A 
ATOM     27  C   UNL     1      -1.765   4.087  25.617  0.00  0.00    -0.003 A 
ATOM     28  C   UNL     1      -2.310   4.704  25.571  0.00  0.00    -0.000 A 
ATOM     29  C   UNL     1      -2.101   5.413  25.204  0.00  0.00    -0.000 A 
ATOM     30  C   UNL     1      -1.346   5.504  24.882  0.00  0.00    -0.000 A 
ATOM     31  C   UNL     1      -0.802   4.886  24.928  0.00  0.00    -0.003 A 
ENDBRANCH  25  26
ENDBRANCH  24  25
ENDBRANCH  20  22
ENDBRANCH   1  20
TORSDOF 6
ENDMDL
