MODEL 1
REMARK VINA RESULT:     -11.1      0.000      0.000
REMARK  Name = 
REMARK  7 active torsions:
REMARK  status: ('A' for Active; 'I' for Inactive)
REMARK    1  A    between atoms: N_2  and  C_4
REMARK    2  A    between atoms: C_7  and  C_10
REMARK    3  A    between atoms: C_16  and  C_18
REMARK    4  A    between atoms: N_20  and  C_21
REMARK    5  A    between atoms: C_21  and  C_22
REMARK    6  A    between atoms: C_21  and  C_29
REMARK    7  A    between atoms: C_22  and  C_23
REMARK                            x       y       z     vdW  Elec       q    Type
REMARK                         _______ _______ _______ _____ _____    ______ ____
ROOT
ATOM     10  C   UNL     1       0.079  -0.202  23.607  0.00  0.00    +0.249 C 
ATOM     11  O   UNL     1      -0.227  -0.969  23.605  0.00  0.00    -0.270 OA
ATOM     12  N   UNL     1      -0.363   0.416  23.928  0.00  0.00    -0.272 N 
ATOM     13  C   UNL     1      -0.058   1.183  23.930  0.00  0.00    +0.115 C 
ATOM     14  C   UNL     1      -0.500   1.801  24.252  0.00  0.00    +0.117 C 
ATOM     15  N   UNL     1      -1.246   1.653  24.571  0.00  0.00    -0.254 N 
ATOM     16  C   UNL     1      -1.551   0.887  24.569  0.00  0.00    +0.175 C 
ATOM     17  C   UNL     1      -1.110   0.268  24.247  0.00  0.00    +0.123 C 
ATOM     32  C   UNL     1      -1.687   2.271  24.892  0.00  0.00    +0.308 C 
ATOM     33  O   UNL     1      -2.434   2.123  25.211  0.00  0.00    -0.252 OA
ATOM     34  N   UNL     1      -1.383   3.038  24.894  0.00  0.00    -0.259 N 
ATOM     35  C   UNL     1      -0.637   3.186  24.575  0.00  0.00    +0.127 C 
ATOM     36  C   UNL     1      -0.331   3.954  24.577  0.00  0.00    +0.164 C 
ATOM     37  O   UNL     1      -0.773   4.572  24.898  0.00  0.00    -0.350 OA
ATOM     38  C   UNL     1      -1.520   4.423  25.217  0.00  0.00    +0.164 C 
ATOM     39  C   UNL     1      -1.824   3.657  25.215  0.00  0.00    +0.127 C 
ENDROOT
BRANCH  10   7
ATOM      4  C   UNL     1       2.316   0.242  22.650  0.00  0.00    +0.048 A 
ATOM      5  C   UNL     1       2.198   0.296  23.464  0.00  0.00    +0.015 A 
ATOM      6  C   UNL     1       1.452   0.147  23.783  0.00  0.00    +0.006 A 
ATOM      7  C   UNL     1       0.824  -0.054  23.288  0.00  0.00    +0.054 A 
ATOM      8  C   UNL     1       0.942  -0.108  22.473  0.00  0.00    +0.006 A 
ATOM      9  C   UNL     1       1.689   0.040  22.154  0.00  0.00    +0.015 A 
BRANCH   4   2
ATOM      1  C   UNL     1       3.600   0.864  22.741  0.00  0.00    +0.112 C 
ATOM      2  N   UNL     1       3.063   0.390  22.331  0.00  0.00    -0.304 N 
ATOM      3  C   UNL     1       3.272   0.065  21.602  0.00  0.00    +0.112 C 
ENDBRANCH   4   2
ENDBRANCH  10   7
BRANCH  16  18
ATOM     18  C   UNL     1      -2.298   0.739  24.888  0.00  0.00    +0.262 C 
ATOM     19  O   UNL     1      -2.482   1.006  25.647  0.00  0.00    -0.271 OA
ATOM     20  N   UNL     1      -2.859   0.324  24.449  0.00  0.00    -0.196 NA
BRANCH  20  21
ATOM     21  C   UNL     1      -3.605   0.176  24.768  0.00  0.00    +0.174 C 
BRANCH  21  29
ATOM     29  C   UNL     1      -4.232   0.687  24.607  0.00  0.00    +0.281 C 
ATOM     30  N   UNL     1      -4.754   0.901  25.208  0.00  0.00    -0.086 NA
ATOM     31  O   UNL     1      -4.335   0.985  23.844  0.00  0.00    -0.270 OA
ENDBRANCH  21  29
BRANCH  21  22
ATOM     22  C   UNL     1      -3.725  -0.484  25.248  0.00  0.00    +0.031 C 
BRANCH  22  23
ATOM     23  C   UNL     1      -3.765  -1.236  24.914  0.00  0.00    +0.002 C 
ATOM     24  C   UNL     1      -3.387  -1.872  25.281  0.00  0.00    +0.000 C 
ATOM     25  C   UNL     1      -3.427  -2.625  24.946  0.00  0.00    +0.000 C 
ATOM     26  C   UNL     1      -3.845  -2.742  24.245  0.00  0.00    +0.000 C 
ATOM     27  C   UNL     1      -4.223  -2.108  23.878  0.00  0.00    +0.000 C 
ATOM     28  C   UNL     1      -4.183  -1.355  24.213  0.00  0.00    +0.000 C 
ENDBRANCH  22  23
ENDBRANCH  21  22
ENDBRANCH  20  21
ENDBRANCH  16  18
TORSDOF 7
ENDMDL
MODEL 2
REMARK VINA RESULT:      -9.7      1.372      4.987
REMARK  Name = 
REMARK  7 active torsions:
REMARK  status: ('A' for Active; 'I' for Inactive)
REMARK    1  A    between atoms: N_2  and  C_4
REMARK    2  A    between atoms: C_7  and  C_10
REMARK    3  A    between atoms: C_16  and  C_18
REMARK    4  A    between atoms: N_20  and  C_21
REMARK    5  A    between atoms: C_21  and  C_22
REMARK    6  A    between atoms: C_21  and  C_29
REMARK    7  A    between atoms: C_22  and  C_23
REMARK                            x       y       z     vdW  Elec       q    Type
REMARK                         _______ _______ _______ _____ _____    ______ ____
ROOT
ATOM     10  C   UNL     1      -3.327   0.085  24.670  0.00  0.00    +0.249 C 
ATOM     11  O   UNL     1      -3.926   0.584  24.942  0.00  0.00    -0.270 OA
ATOM     12  N   UNL     1      -2.587   0.396  24.481  0.00  0.00    -0.272 N 
ATOM     13  C   UNL     1      -1.988  -0.103  24.210  0.00  0.00    +0.115 C 
ATOM     14  C   UNL     1      -1.247   0.208  24.021  0.00  0.00    +0.117 C 
ATOM     15  N   UNL     1      -1.105   1.016  24.103  0.00  0.00    -0.254 N 
ATOM     16  C   UNL     1      -1.704   1.514  24.374  0.00  0.00    +0.175 C 
ATOM     17  C   UNL     1      -2.445   1.205  24.564  0.00  0.00    +0.123 C 
ATOM     32  C   UNL     1      -0.365   1.326  23.914  0.00  0.00    +0.308 C 
ATOM     33  O   UNL     1      -0.223   2.136  23.997  0.00  0.00    -0.252 OA
ATOM     34  N   UNL     1       0.234   0.828  23.643  0.00  0.00    -0.259 N 
ATOM     35  C   UNL     1       0.092   0.020  23.560  0.00  0.00    +0.127 C 
ATOM     36  C   UNL     1       0.692  -0.479  23.289  0.00  0.00    +0.164 C 
ATOM     37  O   UNL     1       1.432  -0.169  23.100  0.00  0.00    -0.350 OA
ATOM     38  C   UNL     1       1.574   0.640  23.182  0.00  0.00    +0.164 C 
ATOM     39  C   UNL     1       0.975   1.138  23.453  0.00  0.00    +0.127 C 
ENDROOT
BRANCH  10   7
ATOM      4  C   UNL     1      -3.753  -2.339  24.424  0.00  0.00    +0.048 A 
ATOM      5  C   UNL     1      -3.372  -2.054  25.097  0.00  0.00    +0.015 A 
ATOM      6  C   UNL     1      -3.230  -1.246  25.179  0.00  0.00    +0.006 A 
ATOM      7  C   UNL     1      -3.469  -0.722  24.588  0.00  0.00    +0.054 A 
ATOM      8  C   UNL     1      -3.850  -1.008  23.914  0.00  0.00    +0.006 A 
ATOM      9  C   UNL     1      -3.992  -1.817  23.831  0.00  0.00    +0.015 A 
BRANCH   4   2
ATOM      1  C   UNL     1      -4.419  -3.418  23.764  0.00  0.00    +0.112 C 
ATOM      2  N   UNL     1      -3.895  -3.149  24.341  0.00  0.00    -0.304 N 
ATOM      3  C   UNL     1      -3.512  -3.687  24.835  0.00  0.00    +0.112 C 
ENDBRANCH   4   2
ENDBRANCH  10   7
BRANCH  16  18
ATOM     18  C   UNL     1      -1.562   2.324  24.457  0.00  0.00    +0.262 C 
ATOM     19  O   UNL     1      -1.178   2.738  23.855  0.00  0.00    -0.271 OA
ATOM     20  N   UNL     1      -1.803   2.717  25.140  0.00  0.00    -0.196 NA
BRANCH  20  21
ATOM     21  C   UNL     1      -1.662   3.526  25.222  0.00  0.00    +0.174 C 
BRANCH  21  29
ATOM     29  C   UNL     1      -0.959   3.789  25.566  0.00  0.00    +0.281 C 
ATOM     30  N   UNL     1      -0.556   4.430  25.241  0.00  0.00    -0.086 NA
ATOM     31  O   UNL     1      -0.661   3.410  26.236  0.00  0.00    -0.270 OA
ENDBRANCH  21  29
BRANCH  21  22
ATOM     22  C   UNL     1      -2.222   4.072  24.961  0.00  0.00    +0.031 C 
BRANCH  22  23
ATOM     23  C   UNL     1      -2.968   4.096  25.309  0.00  0.00    +0.002 C 
ATOM     24  C   UNL     1      -3.645   4.044  24.840  0.00  0.00    +0.000 C 
ATOM     25  C   UNL     1      -4.392   4.069  25.189  0.00  0.00    +0.000 C 
ATOM     26  C   UNL     1      -4.462   4.146  26.007  0.00  0.00    +0.000 C 
ATOM     27  C   UNL     1      -3.786   4.197  26.476  0.00  0.00    +0.000 C 
ATOM     28  C   UNL     1      -3.039   4.173  26.127  0.00  0.00    +0.000 C 
ENDBRANCH  22  23
ENDBRANCH  21  22
ENDBRANCH  20  21
ENDBRANCH  16  18
TORSDOF 7
ENDMDL
MODEL 3
REMARK VINA RESULT:      -9.3      2.593      3.908
REMARK  Name = 
REMARK  7 active torsions:
REMARK  status: ('A' for Active; 'I' for Inactive)
REMARK    1  A    between atoms: N_2  and  C_4
REMARK    2  A    between atoms: C_7  and  C_10
REMARK    3  A    between atoms: C_16  and  C_18
REMARK    4  A    between atoms: N_20  and  C_21
REMARK    5  A    between atoms: C_21  and  C_22
REMARK    6  A    between atoms: C_21  and  C_29
REMARK    7  A    between atoms: C_22  and  C_23
REMARK                            x       y       z     vdW  Elec       q    Type
REMARK                         _______ _______ _______ _____ _____    ______ ____
ROOT
ATOM     10  C   UNL     1      -1.568   1.943  24.791  0.00  0.00    +0.249 C 
ATOM     11  O   UNL     1      -0.993   1.359  24.694  0.00  0.00    -0.270 OA
ATOM     12  N   UNL     1      -2.360   1.730  24.883  0.00  0.00    -0.272 N 
ATOM     13  C   UNL     1      -2.936   2.313  24.980  0.00  0.00    +0.115 C 
ATOM     14  C   UNL     1      -3.727   2.100  25.073  0.00  0.00    +0.117 C 
ATOM     15  N   UNL     1      -3.943   1.303  25.069  0.00  0.00    -0.254 N 
ATOM     16  C   UNL     1      -3.368   0.721  24.972  0.00  0.00    +0.175 C 
ATOM     17  C   UNL     1      -2.576   0.933  24.880  0.00  0.00    +0.123 C 
ATOM     32  C   UNL     1      -4.734   1.091  25.162  0.00  0.00    +0.308 C 
ATOM     33  O   UNL     1      -4.950   0.294  25.158  0.00  0.00    -0.252 OA
ATOM     34  N   UNL     1      -5.310   1.674  25.259  0.00  0.00    -0.259 N 
ATOM     35  C   UNL     1      -5.094   2.470  25.263  0.00  0.00    +0.127 C 
ATOM     36  C   UNL     1      -5.670   3.054  25.359  0.00  0.00    +0.164 C 
ATOM     37  O   UNL     1      -6.461   2.840  25.452  0.00  0.00    -0.350 OA
ATOM     38  C   UNL     1      -6.677   2.044  25.448  0.00  0.00    +0.164 C 
ATOM     39  C   UNL     1      -6.102   1.461  25.352  0.00  0.00    +0.127 C 
ENDROOT
BRANCH  10   7
ATOM      4  C   UNL     1      -0.920   4.331  24.802  0.00  0.00    +0.048 A 
ATOM      5  C   UNL     1      -1.010   3.925  25.514  0.00  0.00    +0.015 A 
ATOM      6  C   UNL     1      -1.226   3.129  25.510  0.00  0.00    +0.006 A 
ATOM      7  C   UNL     1      -1.353   2.738  24.795  0.00  0.00    +0.054 A 
ATOM      8  C   UNL     1      -1.262   3.145  24.082  0.00  0.00    +0.006 A 
ATOM      9  C   UNL     1      -1.046   3.941  24.086  0.00  0.00    +0.015 A 
BRANCH   4   2
ATOM      1  C   UNL     1      -1.250   5.702  25.036  0.00  0.00    +0.112 C 
ATOM      2  N   UNL     1      -0.704   5.128  24.806  0.00  0.00    -0.304 N 
ATOM      3  C   UNL     1       0.057   5.349  24.580  0.00  0.00    +0.112 C 
ENDBRANCH   4   2
ENDBRANCH  10   7
BRANCH  16  18
ATOM     18  C   UNL     1      -3.584  -0.076  24.969  0.00  0.00    +0.262 C 
ATOM     19  O   UNL     1      -4.135  -0.356  25.515  0.00  0.00    -0.271 OA
ATOM     20  N   UNL     1      -3.249  -0.591  24.419  0.00  0.00    -0.196 NA
BRANCH  20  21
ATOM     21  C   UNL     1      -3.465  -1.388  24.415  0.00  0.00    +0.174 C 
BRANCH  21  29
ATOM     29  C   UNL     1      -4.022  -1.662  23.872  0.00  0.00    +0.281 C 
ATOM     30  N   UNL     1      -4.566  -2.239  24.094  0.00  0.00    -0.086 NA
ATOM     31  O   UNL     1      -4.034  -1.357  23.104  0.00  0.00    -0.270 OA
ENDBRANCH  21  29
BRANCH  21  22
ATOM     22  C   UNL     1      -3.125  -1.910  24.954  0.00  0.00    +0.031 C 
BRANCH  22  23
ATOM     23  C   UNL     1      -2.340  -2.145  24.863  0.00  0.00    +0.002 C 
ATOM     24  C   UNL     1      -2.119  -2.597  24.208  0.00  0.00    +0.000 C 
ATOM     25  C   UNL     1      -1.333  -2.832  24.116  0.00  0.00    +0.000 C 
ATOM     26  C   UNL     1      -0.770  -2.616  24.678  0.00  0.00    +0.000 C 
ATOM     27  C   UNL     1      -0.991  -2.164  25.332  0.00  0.00    +0.000 C 
ATOM     28  C   UNL     1      -1.776  -1.929  25.424  0.00  0.00    +0.000 C 
ENDBRANCH  22  23
ENDBRANCH  21  22
ENDBRANCH  20  21
ENDBRANCH  16  18
TORSDOF 7
ENDMDL
MODEL 4
REMARK VINA RESULT:      -8.8      1.492      3.992
REMARK  Name = 
REMARK  7 active torsions:
REMARK  status: ('A' for Active; 'I' for Inactive)
REMARK    1  A    between atoms: N_2  and  C_4
REMARK    2  A    between atoms: C_7  and  C_10
REMARK    3  A    between atoms: C_16  and  C_18
REMARK    4  A    between atoms: N_20  and  C_21
REMARK    5  A    between atoms: C_21  and  C_22
REMARK    6  A    between atoms: C_21  and  C_29
REMARK    7  A    between atoms: C_22  and  C_23
REMARK                            x       y       z     vdW  Elec       q    Type
REMARK                         _______ _______ _______ _____ _____    ______ ____
ROOT
ATOM     10  C   UNL     1      -2.217   2.410  25.563  0.00  0.00    +0.249 C 
ATOM     11  O   UNL     1      -2.874   2.269  26.044  0.00  0.00    -0.270 OA
ATOM     12  N   UNL     1      -1.791   1.777  25.251  0.00  0.00    -0.272 N 
ATOM     13  C   UNL     1      -1.135   1.918  24.771  0.00  0.00    +0.115 C 
ATOM     14  C   UNL     1      -0.708   1.284  24.459  0.00  0.00    +0.117 C 
ATOM     15  N   UNL     1      -0.937   0.510  24.628  0.00  0.00    -0.254 N 
ATOM     16  C   UNL     1      -1.592   0.369  25.108  0.00  0.00    +0.175 C 
ATOM     17  C   UNL     1      -2.020   1.002  25.420  0.00  0.00    +0.123 C 
ATOM     32  C   UNL     1      -0.511  -0.123  24.316  0.00  0.00    +0.308 C 
ATOM     33  O   UNL     1      -0.740  -0.898  24.485  0.00  0.00    -0.252 OA
ATOM     34  N   UNL     1       0.145   0.018  23.835  0.00  0.00    -0.259 N 
ATOM     35  C   UNL     1       0.374   0.792  23.667  0.00  0.00    +0.127 C 
ATOM     36  C   UNL     1       1.030   0.934  23.186  0.00  0.00    +0.164 C 
ATOM     37  O   UNL     1       1.457   0.300  22.874  0.00  0.00    -0.350 OA
ATOM     38  C   UNL     1       1.228  -0.475  23.043  0.00  0.00    +0.164 C 
ATOM     39  C   UNL     1       0.573  -0.615  23.523  0.00  0.00    +0.127 C 
ENDROOT
BRANCH  10   7
ATOM      4  C   UNL     1      -1.531   4.733  25.057  0.00  0.00    +0.048 A 
ATOM      5  C   UNL     1      -2.188   4.406  24.682  0.00  0.00    +0.015 A 
ATOM      6  C   UNL     1      -2.417   3.632  24.850  0.00  0.00    +0.006 A 
ATOM      7  C   UNL     1      -1.989   3.184  25.395  0.00  0.00    +0.054 A 
ATOM      8  C   UNL     1      -1.331   3.511  25.771  0.00  0.00    +0.006 A 
ATOM      9  C   UNL     1      -1.102   4.286  25.602  0.00  0.00    +0.015 A 
BRANCH   4   2
ATOM      1  C   UNL     1      -0.549   5.659  24.588  0.00  0.00    +0.112 C 
ATOM      2  N   UNL     1      -1.302   5.508  24.889  0.00  0.00    -0.304 N 
ATOM      3  C   UNL     1      -1.827   6.131  25.021  0.00  0.00    +0.112 C 
ENDBRANCH   4   2
ENDBRANCH  10   7
BRANCH  16  18
ATOM     18  C   UNL     1      -1.821  -0.407  25.277  0.00  0.00    +0.262 C 
ATOM     19  O   UNL     1      -1.262  -0.954  25.537  0.00  0.00    -0.271 OA
ATOM     20  N   UNL     1      -2.609  -0.633  25.185  0.00  0.00    -0.196 NA
BRANCH  20  21
ATOM     21  C   UNL     1      -2.837  -1.407  25.353  0.00  0.00    +0.174 C 
BRANCH  21  29
ATOM     29  C   UNL     1      -3.125  -1.599  26.102  0.00  0.00    +0.281 C 
ATOM     30  N   UNL     1      -2.834  -2.261  26.499  0.00  0.00    -0.086 NA
ATOM     31  O   UNL     1      -3.704  -1.128  26.455  0.00  0.00    -0.270 OA
ENDBRANCH  21  29
BRANCH  21  22
ATOM     22  C   UNL     1      -2.779  -1.991  24.773  0.00  0.00    +0.031 C 
BRANCH  22  23
ATOM     23  C   UNL     1      -3.440  -2.195  24.325  0.00  0.00    +0.002 C 
ATOM     24  C   UNL     1      -3.644  -2.989  24.228  0.00  0.00    +0.000 C 
ATOM     25  C   UNL     1      -4.306  -3.193  23.780  0.00  0.00    +0.000 C 
ATOM     26  C   UNL     1      -4.763  -2.603  23.428  0.00  0.00    +0.000 C 
ATOM     27  C   UNL     1      -4.559  -1.810  23.524  0.00  0.00    +0.000 C 
ATOM     28  C   UNL     1      -3.898  -1.606  23.973  0.00  0.00    +0.000 C 
ENDBRANCH  22  23
ENDBRANCH  21  22
ENDBRANCH  20  21
ENDBRANCH  16  18
TORSDOF 7
ENDMDL
MODEL 5
REMARK VINA RESULT:      -8.4      1.313      3.802
REMARK  Name = 
REMARK  7 active torsions:
REMARK  status: ('A' for Active; 'I' for Inactive)
REMARK    1  A    between atoms: N_2  and  C_4
REMARK    2  A    between atoms: C_7  and  C_10
REMARK    3  A    between atoms: C_16  and  C_18
REMARK    4  A    between atoms: N_20  and  C_21
REMARK    5  A    between atoms: C_21  and  C_22
REMARK    6  A    between atoms: C_21  and  C_29
REMARK    7  A    between atoms: C_22  and  C_23
REMARK                            x       y       z     vdW  Elec       q    Type
REMARK                         _______ _______ _______ _____ _____    ______ ____
ROOT
ATOM     10  C   UNL     1      -0.282   1.364  23.799  0.00  0.00    +0.249 C 
ATOM     11  O   UNL     1      -0.328   2.189  23.805  0.00  0.00    -0.270 OA
ATOM     12  N   UNL     1      -0.923   0.915  24.059  0.00  0.00    -0.272 N 
ATOM     13  C   UNL     1      -0.878   0.091  24.053  0.00  0.00    +0.115 C 
ATOM     14  C   UNL     1      -1.519  -0.359  24.313  0.00  0.00    +0.117 C 
ATOM     15  N   UNL     1      -2.205   0.015  24.580  0.00  0.00    -0.254 N 
ATOM     16  C   UNL     1      -2.249   0.838  24.586  0.00  0.00    +0.175 C 
ATOM     17  C   UNL     1      -1.609   1.289  24.326  0.00  0.00    +0.123 C 
ATOM     32  C   UNL     1      -2.845  -0.435  24.840  0.00  0.00    +0.308 C 
ATOM     33  O   UNL     1      -3.531  -0.061  25.106  0.00  0.00    -0.252 OA
ATOM     34  N   UNL     1      -2.800  -1.259  24.833  0.00  0.00    -0.259 N 
ATOM     35  C   UNL     1      -2.115  -1.633  24.567  0.00  0.00    +0.127 C 
ATOM     36  C   UNL     1      -2.070  -2.457  24.560  0.00  0.00    +0.164 C 
ATOM     37  O   UNL     1      -2.710  -2.906  24.821  0.00  0.00    -0.350 OA
ATOM     38  C   UNL     1      -3.396  -2.533  25.087  0.00  0.00    +0.164 C 
ATOM     39  C   UNL     1      -3.441  -1.710  25.094  0.00  0.00    +0.127 C 
ENDROOT
BRANCH  10   7
ATOM      4  C   UNL     1       1.773   0.244  22.999  0.00  0.00    +0.048 A 
ATOM      5  C   UNL     1       1.047   0.070  22.651  0.00  0.00    +0.015 A 
ATOM      6  C   UNL     1       0.361   0.443  22.917  0.00  0.00    +0.006 A 
ATOM      7  C   UNL     1       0.402   0.991  23.532  0.00  0.00    +0.054 A 
ATOM      8  C   UNL     1       1.130   1.165  23.882  0.00  0.00    +0.006 A 
ATOM      9  C   UNL     1       1.815   0.792  23.615  0.00  0.00    +0.015 A 
BRANCH   4   2
ATOM      1  C   UNL     1       2.828  -0.699  23.203  0.00  0.00    +0.112 C 
ATOM      2  N   UNL     1       2.460  -0.130  22.732  0.00  0.00    -0.304 N 
ATOM      3  C   UNL     1       2.776   0.065  21.997  0.00  0.00    +0.112 C 
ENDBRANCH   4   2
ENDBRANCH  10   7
BRANCH  16  18
ATOM     18  C   UNL     1      -2.936   1.212  24.853  0.00  0.00    +0.262 C 
ATOM     19  O   UNL     1      -3.415   0.842  25.413  0.00  0.00    -0.271 OA
ATOM     20  N   UNL     1      -3.140   1.955  24.560  0.00  0.00    -0.196 NA
BRANCH  20  21
ATOM     21  C   UNL     1      -3.826   2.329  24.826  0.00  0.00    +0.174 C 
BRANCH  21  29
ATOM     29  C   UNL     1      -4.533   2.240  24.411  0.00  0.00    +0.281 C 
ATOM     30  N   UNL     1      -5.232   2.076  24.816  0.00  0.00    -0.086 NA
ATOM     31  O   UNL     1      -4.540   2.315  23.589  0.00  0.00    -0.270 OA
ENDBRANCH  21  29
BRANCH  21  22
ATOM     22  C   UNL     1      -3.805   2.792  25.508  0.00  0.00    +0.031 C 
BRANCH  22  23
ATOM     23  C   UNL     1      -3.376   3.495  25.517  0.00  0.00    +0.002 C 
ATOM     24  C   UNL     1      -2.874   3.665  26.150  0.00  0.00    +0.000 C 
ATOM     25  C   UNL     1      -2.444   4.369  26.159  0.00  0.00    +0.000 C 
ATOM     26  C   UNL     1      -2.516   4.903  25.533  0.00  0.00    +0.000 C 
ATOM     27  C   UNL     1      -3.016   4.733  24.901  0.00  0.00    +0.000 C 
ATOM     28  C   UNL     1      -3.446   4.029  24.892  0.00  0.00    +0.000 C 
ENDBRANCH  22  23
ENDBRANCH  21  22
ENDBRANCH  20  21
ENDBRANCH  16  18
TORSDOF 7
ENDMDL
MODEL 6
REMARK VINA RESULT:      -8.3      1.968      4.774
REMARK  Name = 
REMARK  7 active torsions:
REMARK  status: ('A' for Active; 'I' for Inactive)
REMARK    1  A    between atoms: N_2  and  C_4
REMARK    2  A    between atoms: C_7  and  C_10
REMARK    3  A    between atoms: C_16  and  C_18
REMARK    4  A    between atoms: N_20  and  C_21
REMARK    5  A    between atoms: C_21  and  C_22
REMARK    6  A    between atoms: C_21  and  C_29
REMARK    7  A    between atoms: C_22  and  C_23
REMARK                            x       y       z     vdW  Elec       q    Type
REMARK                         _______ _______ _______ _____ _____    ______ ____
ROOT
ATOM     10  C   UNL     1      -4.177   1.395  25.054  0.00  0.00    +0.249 C 
ATOM     11  O   UNL     1      -4.585   0.679  25.110  0.00  0.00    -0.270 OA
ATOM     12  N   UNL     1      -3.368   1.396  24.895  0.00  0.00    -0.272 N 
ATOM     13  C   UNL     1      -2.959   2.111  24.839  0.00  0.00    +0.115 C 
ATOM     14  C   UNL     1      -2.150   2.112  24.680  0.00  0.00    +0.117 C 
ATOM     15  N   UNL     1      -1.748   1.399  24.577  0.00  0.00    -0.254 N 
ATOM     16  C   UNL     1      -2.156   0.685  24.633  0.00  0.00    +0.175 C 
ATOM     17  C   UNL     1      -2.966   0.682  24.792  0.00  0.00    +0.123 C 
ATOM     32  C   UNL     1      -0.940   1.401  24.418  0.00  0.00    +0.308 C 
ATOM     33  O   UNL     1      -0.538   0.686  24.314  0.00  0.00    -0.252 OA
ATOM     34  N   UNL     1      -0.531   2.115  24.362  0.00  0.00    -0.259 N 
ATOM     35  C   UNL     1      -0.932   2.829  24.465  0.00  0.00    +0.127 C 
ATOM     36  C   UNL     1      -0.524   3.544  24.410  0.00  0.00    +0.164 C 
ATOM     37  O   UNL     1       0.285   3.545  24.250  0.00  0.00    -0.350 OA
ATOM     38  C   UNL     1       0.687   2.832  24.147  0.00  0.00    +0.164 C 
ATOM     39  C   UNL     1       0.279   2.118  24.203  0.00  0.00    +0.127 C 
ENDROOT
BRANCH  10   7
ATOM      4  C   UNL     1      -5.381   3.534  25.364  0.00  0.00    +0.048 A 
ATOM      5  C   UNL     1      -5.097   3.122  26.020  0.00  0.00    +0.015 A 
ATOM      6  C   UNL     1      -4.696   2.408  25.916  0.00  0.00    +0.006 A 
ATOM      7  C   UNL     1      -4.578   2.107  25.158  0.00  0.00    +0.054 A 
ATOM      8  C   UNL     1      -4.862   2.520  24.501  0.00  0.00    +0.006 A 
ATOM      9  C   UNL     1      -5.263   3.233  24.605  0.00  0.00    +0.015 A 
BRANCH   4   2
ATOM      1  C   UNL     1      -5.423   4.958  25.251  0.00  0.00    +0.112 C 
ATOM      2  N   UNL     1      -5.783   4.248  25.468  0.00  0.00    -0.304 N 
ATOM      3  C   UNL     1      -6.542   4.250  25.788  0.00  0.00    +0.112 C 
ENDBRANCH   4   2
ENDBRANCH  10   7
BRANCH  16  18
ATOM     18  C   UNL     1      -1.754  -0.030  24.529  0.00  0.00    +0.262 C 
ATOM     19  O   UNL     1      -1.170  -0.093  23.950  0.00  0.00    -0.271 OA
ATOM     20  N   UNL     1      -1.937  -0.678  25.004  0.00  0.00    -0.196 NA
BRANCH  20  21
ATOM     21  C   UNL     1      -1.536  -1.391  24.901  0.00  0.00    +0.174 C 
BRANCH  21  29
ATOM     29  C   UNL     1      -0.878  -1.566  25.366  0.00  0.00    +0.281 C 
ATOM     30  N   UNL     1      -0.215  -1.919  25.028  0.00  0.00    -0.086 NA
ATOM     31  O   UNL     1      -0.884  -1.386  26.172  0.00  0.00    -0.270 OA
ENDBRANCH  21  29
BRANCH  21  22
ATOM     22  C   UNL     1      -1.792  -1.931  24.332  0.00  0.00    +0.031 C 
BRANCH  22  23
ATOM     23  C   UNL     1      -2.514  -2.316  24.424  0.00  0.00    +0.002 C 
ATOM     24  C   UNL     1      -3.076  -2.292  23.820  0.00  0.00    +0.000 C 
ATOM     25  C   UNL     1      -3.799  -2.678  23.913  0.00  0.00    +0.000 C 
ATOM     26  C   UNL     1      -3.960  -3.089  24.610  0.00  0.00    +0.000 C 
ATOM     27  C   UNL     1      -3.400  -3.114  25.214  0.00  0.00    +0.000 C 
ATOM     28  C   UNL     1      -2.677  -2.727  25.121  0.00  0.00    +0.000 C 
ENDBRANCH  22  23
ENDBRANCH  21  22
ENDBRANCH  20  21
ENDBRANCH  16  18
TORSDOF 7
ENDMDL
MODEL 7
REMARK VINA RESULT:      -7.5      1.577      5.752
REMARK  Name = 
REMARK  7 active torsions:
REMARK  status: ('A' for Active; 'I' for Inactive)
REMARK    1  A    between atoms: N_2  and  C_4
REMARK    2  A    between atoms: C_7  and  C_10
REMARK    3  A    between atoms: C_16  and  C_18
REMARK    4  A    between atoms: N_20  and  C_21
REMARK    5  A    between atoms: C_21  and  C_22
REMARK    6  A    between atoms: C_21  and  C_29
REMARK    7  A    between atoms: C_22  and  C_23
REMARK                            x       y       z     vdW  Elec       q    Type
REMARK                         _______ _______ _______ _____ _____    ______ ____
ROOT
ATOM     10  C   UNL     1      -0.617   2.422  24.484  0.00  0.00    +0.249 C 
ATOM     11  O   UNL     1       0.052   2.807  24.190  0.00  0.00    -0.270 OA
ATOM     12  N   UNL     1      -0.681   1.603  24.421  0.00  0.00    -0.272 N 
ATOM     13  C   UNL     1      -1.350   1.218  24.715  0.00  0.00    +0.115 C 
ATOM     14  C   UNL     1      -1.415   0.398  24.652  0.00  0.00    +0.117 C 
ATOM     15  N   UNL     1      -0.811  -0.038  24.296  0.00  0.00    -0.254 N 
ATOM     16  C   UNL     1      -0.143   0.347  24.003  0.00  0.00    +0.175 C 
ATOM     17  C   UNL     1      -0.078   1.167  24.065  0.00  0.00    +0.123 C 
ATOM     32  C   UNL     1      -0.876  -0.857  24.233  0.00  0.00    +0.308 C 
ATOM     33  O   UNL     1      -0.272  -1.293  23.876  0.00  0.00    -0.252 OA
ATOM     34  N   UNL     1      -1.545  -1.242  24.526  0.00  0.00    -0.259 N 
ATOM     35  C   UNL     1      -2.148  -0.807  24.882  0.00  0.00    +0.127 C 
ATOM     36  C   UNL     1      -2.817  -1.191  25.176  0.00  0.00    +0.164 C 
ATOM     37  O   UNL     1      -2.882  -2.011  25.113  0.00  0.00    -0.350 OA
ATOM     38  C   UNL     1      -2.278  -2.447  24.757  0.00  0.00    +0.164 C 
ATOM     39  C   UNL     1      -1.610  -2.062  24.464  0.00  0.00    +0.127 C 
ENDROOT
BRANCH  10   7
ATOM      4  C   UNL     1      -2.426   3.729  25.552  0.00  0.00    +0.048 A 
ATOM      5  C   UNL     1      -1.783   3.472  26.000  0.00  0.00    +0.015 A 
ATOM      6  C   UNL     1      -1.180   3.037  25.644  0.00  0.00    +0.006 A 
ATOM      7  C   UNL     1      -1.219   2.858  24.840  0.00  0.00    +0.054 A 
ATOM      8  C   UNL     1      -1.863   3.114  24.391  0.00  0.00    +0.006 A 
ATOM      9  C   UNL     1      -2.467   3.550  24.747  0.00  0.00    +0.015 A 
BRANCH   4   2
ATOM      1  C   UNL     1      -2.906   4.956  26.107  0.00  0.00    +0.112 C 
ATOM      2  N   UNL     1      -3.030   4.165  25.908  0.00  0.00    -0.304 N 
ATOM      3  C   UNL     1      -3.757   3.809  26.066  0.00  0.00    +0.112 C 
ENDBRANCH   4   2
ENDBRANCH  10   7
BRANCH  16  18
ATOM     18  C   UNL     1       0.461  -0.089  23.646  0.00  0.00    +0.262 C 
ATOM     19  O   UNL     1       0.594  -0.871  23.874  0.00  0.00    -0.271 OA
ATOM     20  N   UNL     1       0.930   0.257  23.063  0.00  0.00    -0.196 NA
BRANCH  20  21
ATOM     21  C   UNL     1       1.534  -0.179  22.707  0.00  0.00    +0.174 C 
BRANCH  21  29
ATOM     29  C   UNL     1       1.446  -0.449  21.933  0.00  0.00    +0.281 C 
ATOM     30  N   UNL     1       1.655  -1.223  21.740  0.00  0.00    -0.086 NA
ATOM     31  O   UNL     1       1.149   0.055  21.351  0.00  0.00    -0.270 OA
ENDBRANCH  21  29
BRANCH  21  22
ATOM     22  C   UNL     1       2.225  -0.344  23.125  0.00  0.00    +0.031 C 
BRANCH  22  23
ATOM     23  C   UNL     1       2.902   0.109  23.000  0.00  0.00    +0.002 C 
ATOM     24  C   UNL     1       3.643  -0.253  22.969  0.00  0.00    +0.000 C 
ATOM     25  C   UNL     1       4.320   0.201  22.844  0.00  0.00    +0.000 C 
ATOM     26  C   UNL     1       4.256   1.018  22.748  0.00  0.00    +0.000 C 
ATOM     27  C   UNL     1       3.516   1.381  22.778  0.00  0.00    +0.000 C 
ATOM     28  C   UNL     1       2.839   0.926  22.904  0.00  0.00    +0.000 C 
ENDBRANCH  22  23
ENDBRANCH  21  22
ENDBRANCH  20  21
ENDBRANCH  16  18
TORSDOF 7
ENDMDL
