MODEL 1
REMARK VINA RESULT:     -12.3      0.000      0.000
REMARK  Name = 
REMARK  6 active torsions:
REMARK  status: ('A' for Active; 'I' for Inactive)
REMARK    1  A    between atoms: C_2  and  C_5
REMARK    2  A    between atoms: C_5  and  N_6
REMARK    3  A    between atoms: C_10  and  C_11
REMARK    4  A    between atoms: C_13  and  C_16
REMARK    5  A    between atoms: C_20  and  N_22
REMARK    6  A    between atoms: C_25  and  C_28
REMARK                            x       y       z     vdW  Elec       q    Type
REMARK                         _______ _______ _______ _____ _____    ______ ____
ROOT
ATOM     11  C   UNL     1      -2.873   3.504  24.650  0.00  0.00    +0.251 A 
ATOM     12  N   UNL     1      -3.224   2.877  25.055  0.00  0.00    -0.190 NA
ATOM     13  C   UNL     1      -3.812   2.558  24.573  0.00  0.00    +0.203 A 
ATOM     14  N   UNL     1      -3.825   2.987  23.868  0.00  0.00    -0.056 NA
ATOM     15  O   UNL     1      -3.245   3.572  23.916  0.00  0.00    -0.336 OA
ENDROOT
BRANCH  13  16
ATOM     16  C   UNL     1      -4.301   1.921  24.761  0.00  0.00    +0.043 A 
ATOM     17  C   UNL     1      -5.070   2.056  25.028  0.00  0.00    +0.024 A 
ATOM     18  C   UNL     1      -5.560   1.421  25.216  0.00  0.00    +0.100 A 
ATOM     19  N   UNL     1      -5.282   0.648  25.136  0.00  0.00    -0.229 NA
ATOM     20  C   UNL     1      -4.514   0.511  24.868  0.00  0.00    +0.132 A 
ATOM     21  C   UNL     1      -4.024   1.148  24.681  0.00  0.00    +0.037 A 
BRANCH  20  22
ATOM     22  N   UNL     1      -4.236  -0.261  24.788  0.00  0.00    -0.293 N 
ATOM     23  C   UNL     1      -4.347  -0.667  24.080  0.00  0.00    +0.093 C 
ATOM     24  C   UNL     1      -4.069  -1.440  24.000  0.00  0.00    +0.031 C 
ATOM     25  C   UNL     1      -3.680  -1.806  24.628  0.00  0.00    +0.083 C 
ATOM     26  C   UNL     1      -3.570  -1.399  25.338  0.00  0.00    +0.031 C 
ATOM     27  C   UNL     1      -3.848  -0.627  25.418  0.00  0.00    +0.093 C 
BRANCH  25  28
ATOM     28  C   UNL     1      -3.402  -2.579  24.548  0.00  0.00    +0.260 C 
ATOM     29  N   UNL     1      -2.597  -2.738  24.629  0.00  0.00    -0.088 NA
ATOM     30  O   UNL     1      -3.930  -3.192  24.387  0.00  0.00    -0.272 OA
ENDBRANCH  25  28
ENDBRANCH  20  22
ENDBRANCH  13  16
BRANCH  11  10
ATOM      6  N   UNL     1      -1.493   3.729  25.102  0.00  0.00    -0.266 NA
ATOM      7  C   UNL     1      -1.065   4.384  25.362  0.00  0.00    +0.073 C 
ATOM      8  C   UNL     1      -1.566   5.039  25.348  0.00  0.00    +0.019 C 
ATOM      9  C   UNL     1      -2.305   4.789  25.080  0.00  0.00    +0.027 C 
ATOM     10  C   UNL     1      -2.260   3.979  24.927  0.00  0.00    +0.138 C 
BRANCH   6   5
ATOM      5  C   UNL     1      -1.205   2.960  25.030  0.00  0.00    +0.072 C 
BRANCH   5   2
ATOM      1  C   UNL     1       0.341   2.609  25.487  0.00  0.00    +0.001 C 
ATOM      2  C   UNL     1      -0.433   2.785  25.258  0.00  0.00    +0.015 C 
ATOM      3  C   UNL     1      -0.686   2.677  26.036  0.00  0.00    +0.001 C 
ATOM      4  C   UNL     1      -0.179   2.893  24.480  0.00  0.00    +0.001 C 
ENDBRANCH   5   2
ENDBRANCH   6   5
ENDBRANCH  11  10
TORSDOF 6
ENDMDL
MODEL 2
REMARK VINA RESULT:     -11.9      1.758      3.003
REMARK  Name = 
REMARK  6 active torsions:
REMARK  status: ('A' for Active; 'I' for Inactive)
REMARK    1  A    between atoms: C_2  and  C_5
REMARK    2  A    between atoms: C_5  and  N_6
REMARK    3  A    between atoms: C_10  and  C_11
REMARK    4  A    between atoms: C_13  and  C_16
REMARK    5  A    between atoms: C_20  and  N_22
REMARK    6  A    between atoms: C_25  and  C_28
REMARK                            x       y       z     vdW  Elec       q    Type
REMARK                         _______ _______ _______ _____ _____    ______ ____
ROOT
ATOM     11  C   UNL     1      -0.847   2.993  25.301  0.00  0.00    +0.251 A 
ATOM     12  N   UNL     1      -0.915   2.393  24.740  0.00  0.00    -0.190 NA
ATOM     13  C   UNL     1      -0.554   1.717  25.042  0.00  0.00    +0.203 A 
ATOM     14  N   UNL     1      -0.261   1.899  25.792  0.00  0.00    -0.056 NA
ATOM     15  O   UNL     1      -0.442   2.687  25.952  0.00  0.00    -0.336 OA
ENDROOT
BRANCH  13  16
ATOM     16  C   UNL     1      -0.494   0.987  24.663  0.00  0.00    +0.043 A 
ATOM     17  C   UNL     1       0.156   0.823  24.183  0.00  0.00    +0.024 A 
ATOM     18  C   UNL     1       0.217   0.094  23.803  0.00  0.00    +0.100 A 
ATOM     19  N   UNL     1      -0.374  -0.473  23.904  0.00  0.00    -0.229 NA
ATOM     20  C   UNL     1      -1.025  -0.311  24.384  0.00  0.00    +0.132 A 
ATOM     21  C   UNL     1      -1.085   0.419  24.764  0.00  0.00    +0.037 A 
BRANCH  20  22
ATOM     22  N   UNL     1      -1.615  -0.878  24.485  0.00  0.00    -0.293 N 
ATOM     23  C   UNL     1      -2.408  -0.661  24.428  0.00  0.00    +0.093 C 
ATOM     24  C   UNL     1      -2.999  -1.228  24.529  0.00  0.00    +0.031 C 
ATOM     25  C   UNL     1      -2.796  -2.012  24.686  0.00  0.00    +0.083 C 
ATOM     26  C   UNL     1      -2.002  -2.229  24.742  0.00  0.00    +0.031 C 
ATOM     27  C   UNL     1      -1.411  -1.662  24.642  0.00  0.00    +0.093 C 
BRANCH  25  28
ATOM     28  C   UNL     1      -3.387  -2.579  24.786  0.00  0.00    +0.260 C 
ATOM     29  N   UNL     1      -3.860  -2.800  24.147  0.00  0.00    -0.088 NA
ATOM     30  O   UNL     1      -3.503  -2.926  25.526  0.00  0.00    -0.272 OA
ENDBRANCH  25  28
ENDBRANCH  20  22
ENDBRANCH  13  16
BRANCH  11  10
ATOM      6  N   UNL     1      -1.909   4.008  25.357  0.00  0.00    -0.266 NA
ATOM      7  C   UNL     1      -1.947   4.821  25.219  0.00  0.00    +0.073 C 
ATOM      8  C   UNL     1      -1.193   5.078  25.004  0.00  0.00    +0.019 C 
ATOM      9  C   UNL     1      -0.689   4.425  25.008  0.00  0.00    +0.027 C 
ATOM     10  C   UNL     1      -1.132   3.763  25.227  0.00  0.00    +0.138 C 
BRANCH   6   5
ATOM      5  C   UNL     1      -2.537   3.526  25.585  0.00  0.00    +0.072 C 
BRANCH   5   2
ATOM      1  C   UNL     1      -4.054   4.159  25.733  0.00  0.00    +0.001 C 
ATOM      2  C   UNL     1      -3.295   3.843  25.659  0.00  0.00    +0.015 C 
ATOM      3  C   UNL     1      -3.131   4.058  26.439  0.00  0.00    +0.001 C 
ATOM      4  C   UNL     1      -3.461   3.627  24.879  0.00  0.00    +0.001 C 
ENDBRANCH   5   2
ENDBRANCH   6   5
ENDBRANCH  11  10
TORSDOF 6
ENDMDL
MODEL 3
REMARK VINA RESULT:     -11.9      1.421      5.058
REMARK  Name = 
REMARK  6 active torsions:
REMARK  status: ('A' for Active; 'I' for Inactive)
REMARK    1  A    between atoms: C_2  and  C_5
REMARK    2  A    between atoms: C_5  and  N_6
REMARK    3  A    between atoms: C_10  and  C_11
REMARK    4  A    between atoms: C_13  and  C_16
REMARK    5  A    between atoms: C_20  and  N_22
REMARK    6  A    between atoms: C_25  and  C_28
REMARK                            x       y       z     vdW  Elec       q    Type
REMARK                         _______ _______ _______ _____ _____    ______ ____
ROOT
ATOM     11  C   UNL     1      -3.658  -0.700  24.419  0.00  0.00    +0.251 A 
ATOM     12  N   UNL     1      -3.766  -0.064  24.933  0.00  0.00    -0.190 NA
ATOM     13  C   UNL     1      -4.037   0.578  24.493  0.00  0.00    +0.203 A 
ATOM     14  N   UNL     1      -4.097   0.339  23.705  0.00  0.00    -0.056 NA
ATOM     15  O   UNL     1      -3.862  -0.450  23.660  0.00  0.00    -0.336 OA
ENDROOT
BRANCH  13  16
ATOM     16  C   UNL     1      -4.217   1.328  24.787  0.00  0.00    +0.043 A 
ATOM     17  C   UNL     1      -4.977   1.490  25.065  0.00  0.00    +0.024 A 
ATOM     18  C   UNL     1      -5.159   2.238  25.358  0.00  0.00    +0.100 A 
ATOM     19  N   UNL     1      -4.580   2.826  25.375  0.00  0.00    -0.229 NA
ATOM     20  C   UNL     1      -3.820   2.665  25.097  0.00  0.00    +0.132 A 
ATOM     21  C   UNL     1      -3.639   1.915  24.803  0.00  0.00    +0.037 A 
BRANCH  20  22
ATOM     22  N   UNL     1      -3.241   3.253  25.113  0.00  0.00    -0.293 N 
ATOM     23  C   UNL     1      -2.723   3.303  25.752  0.00  0.00    +0.093 C 
ATOM     24  C   UNL     1      -2.144   3.891  25.769  0.00  0.00    +0.031 C 
ATOM     25  C   UNL     1      -2.084   4.428  25.146  0.00  0.00    +0.083 C 
ATOM     26  C   UNL     1      -2.603   4.378  24.506  0.00  0.00    +0.031 C 
ATOM     27  C   UNL     1      -3.182   3.790  24.490  0.00  0.00    +0.093 C 
BRANCH  25  28
ATOM     28  C   UNL     1      -1.505   5.016  25.162  0.00  0.00    +0.260 C 
ATOM     29  N   UNL     1      -0.717   4.824  25.008  0.00  0.00    -0.088 NA
ATOM     30  O   UNL     1      -1.714   5.796  25.332  0.00  0.00    -0.272 OA
ENDBRANCH  25  28
ENDBRANCH  20  22
ENDBRANCH  13  16
BRANCH  11  10
ATOM      6  N   UNL     1      -2.610  -1.665  24.783  0.00  0.00    -0.266 NA
ATOM      7  C   UNL     1      -2.597  -2.469  24.967  0.00  0.00    +0.073 C 
ATOM      8  C   UNL     1      -3.371  -2.753  24.924  0.00  0.00    +0.019 C 
ATOM      9  C   UNL     1      -3.862  -2.125  24.714  0.00  0.00    +0.027 C 
ATOM     10  C   UNL     1      -3.392  -1.452  24.627  0.00  0.00    +0.138 C 
BRANCH   6   5
ATOM      5  C   UNL     1      -1.957  -1.163  24.759  0.00  0.00    +0.072 C 
BRANCH   5   2
ATOM      1  C   UNL     1      -0.467  -1.724  25.194  0.00  0.00    +0.001 C 
ATOM      2  C   UNL     1      -1.213  -1.443  24.976  0.00  0.00    +0.015 C 
ATOM      3  C   UNL     1      -1.100  -1.738  24.214  0.00  0.00    +0.001 C 
ATOM      4  C   UNL     1      -1.325  -1.149  25.739  0.00  0.00    +0.001 C 
ENDBRANCH   5   2
ENDBRANCH   6   5
ENDBRANCH  11  10
TORSDOF 6
ENDMDL
MODEL 4
REMARK VINA RESULT:     -11.3      2.242      4.752
REMARK  Name = 
REMARK  6 active torsions:
REMARK  status: ('A' for Active; 'I' for Inactive)
REMARK    1  A    between atoms: C_2  and  C_5
REMARK    2  A    between atoms: C_5  and  N_6
REMARK    3  A    between atoms: C_10  and  C_11
REMARK    4  A    between atoms: C_13  and  C_16
REMARK    5  A    between atoms: C_20  and  N_22
REMARK    6  A    between atoms: C_25  and  C_28
REMARK                            x       y       z     vdW  Elec       q    Type
REMARK                         _______ _______ _______ _____ _____    ______ ____
ROOT
ATOM     11  C   UNL     1      -0.049   1.388  24.518  0.00  0.00    +0.251 A 
ATOM     12  N   UNL     1      -0.635   1.952  24.383  0.00  0.00    -0.190 NA
ATOM     13  C   UNL     1      -0.552   2.547  24.947  0.00  0.00    +0.203 A 
ATOM     14  N   UNL     1       0.086   2.352  25.432  0.00  0.00    -0.056 NA
ATOM     15  O   UNL     1       0.398   1.635  25.167  0.00  0.00    -0.336 OA
ENDROOT
BRANCH  13  16
ATOM     16  C   UNL     1      -1.024   3.221  25.016  0.00  0.00    +0.043 A 
ATOM     17  C   UNL     1      -0.678   3.970  24.991  0.00  0.00    +0.024 A 
ATOM     18  C   UNL     1      -1.149   4.644  25.060  0.00  0.00    +0.100 A 
ATOM     19  N   UNL     1      -1.965   4.569  25.153  0.00  0.00    -0.229 NA
ATOM     20  C   UNL     1      -2.311   3.821  25.177  0.00  0.00    +0.132 A 
ATOM     21  C   UNL     1      -1.840   3.146  25.109  0.00  0.00    +0.037 A 
BRANCH  20  22
ATOM     22  N   UNL     1      -3.127   3.746  25.270  0.00  0.00    -0.293 N 
ATOM     23  C   UNL     1      -3.603   3.584  24.617  0.00  0.00    +0.093 C 
ATOM     24  C   UNL     1      -4.419   3.509  24.710  0.00  0.00    +0.031 C 
ATOM     25  C   UNL     1      -4.760   3.597  25.456  0.00  0.00    +0.083 C 
ATOM     26  C   UNL     1      -4.283   3.759  26.110  0.00  0.00    +0.031 C 
ATOM     27  C   UNL     1      -3.467   3.834  26.017  0.00  0.00    +0.093 C 
BRANCH  25  28
ATOM     28  C   UNL     1      -5.576   3.522  25.549  0.00  0.00    +0.260 C 
ATOM     29  N   UNL     1      -5.932   2.780  25.489  0.00  0.00    -0.088 NA
ATOM     30  O   UNL     1      -6.036   4.190  25.703  0.00  0.00    -0.272 OA
ENDBRANCH  25  28
ENDBRANCH  20  22
ENDBRANCH  13  16
BRANCH  11  10
ATOM      6  N   UNL     1      -0.283  -0.034  24.225  0.00  0.00    -0.266 NA
ATOM      7  C   UNL     1      -0.006  -0.565  23.658  0.00  0.00    +0.073 C 
ATOM      8  C   UNL     1       0.520  -0.162  23.166  0.00  0.00    +0.019 C 
ATOM      9  C   UNL     1       0.568   0.619  23.429  0.00  0.00    +0.027 C 
ATOM     10  C   UNL     1       0.071   0.698  24.083  0.00  0.00    +0.138 C 
BRANCH   6   5
ATOM      5  C   UNL     1      -0.820  -0.204  24.827  0.00  0.00    +0.072 C 
BRANCH   5   2
ATOM      1  C   UNL     1      -1.535  -1.689  24.901  0.00  0.00    +0.001 C 
ATOM      2  C   UNL     1      -1.177  -0.946  24.864  0.00  0.00    +0.015 C 
ATOM      3  C   UNL     1      -1.820  -0.659  24.434  0.00  0.00    +0.001 C 
ATOM      4  C   UNL     1      -0.534  -1.234  25.295  0.00  0.00    +0.001 C 
ENDBRANCH   5   2
ENDBRANCH   6   5
ENDBRANCH  11  10
TORSDOF 6
ENDMDL
MODEL 5
REMARK VINA RESULT:     -11.0      2.035      5.069
REMARK  Name = 
REMARK  6 active torsions:
REMARK  status: ('A' for Active; 'I' for Inactive)
REMARK    1  A    between atoms: C_2  and  C_5
REMARK    2  A    between atoms: C_5  and  N_6
REMARK    3  A    between atoms: C_10  and  C_11
REMARK    4  A    between atoms: C_13  and  C_16
REMARK    5  A    between atoms: C_20  and  N_22
REMARK    6  A    between atoms: C_25  and  C_28
REMARK                            x       y       z     vdW  Elec       q    Type
REMARK                         _______ _______ _______ _____ _____    ______ ____
ROOT
ATOM     11  C   UNL     1      -0.996  -0.133  24.468  0.00  0.00    +0.251 A 
ATOM     12  N   UNL     1      -1.263   0.552  24.843  0.00  0.00    -0.190 NA
ATOM     13  C   UNL     1      -1.209   1.175  24.307  0.00  0.00    +0.203 A 
ATOM     14  N   UNL     1      -0.908   0.877  23.599  0.00  0.00    -0.056 NA
ATOM     15  O   UNL     1      -0.777   0.068  23.699  0.00  0.00    -0.336 OA
ENDROOT
BRANCH  13  16
ATOM     16  C   UNL     1      -1.418   1.960  24.451  0.00  0.00    +0.043 A 
ATOM     17  C   UNL     1      -0.852   2.557  24.383  0.00  0.00    +0.024 A 
ATOM     18  C   UNL     1      -1.059   3.342  24.526  0.00  0.00    +0.100 A 
ATOM     19  N   UNL     1      -1.834   3.531  24.739  0.00  0.00    -0.229 NA
ATOM     20  C   UNL     1      -2.400   2.935  24.808  0.00  0.00    +0.132 A 
ATOM     21  C   UNL     1      -2.192   2.150  24.664  0.00  0.00    +0.037 A 
BRANCH  20  22
ATOM     22  N   UNL     1      -3.174   3.124  25.020  0.00  0.00    -0.293 N 
ATOM     23  C   UNL     1      -3.327   3.480  25.748  0.00  0.00    +0.093 C 
ATOM     24  C   UNL     1      -4.101   3.669  25.961  0.00  0.00    +0.031 C 
ATOM     25  C   UNL     1      -4.723   3.503  25.445  0.00  0.00    +0.083 C 
ATOM     26  C   UNL     1      -4.570   3.147  24.717  0.00  0.00    +0.031 C 
ATOM     27  C   UNL     1      -3.796   2.957  24.504  0.00  0.00    +0.093 C 
BRANCH  25  28
ATOM     28  C   UNL     1      -5.497   3.692  25.658  0.00  0.00    +0.260 C 
ATOM     29  N   UNL     1      -5.995   3.110  25.966  0.00  0.00    -0.088 NA
ATOM     30  O   UNL     1      -5.774   4.463  25.562  0.00  0.00    -0.272 OA
ENDBRANCH  25  28
ENDBRANCH  20  22
ENDBRANCH  13  16
BRANCH  11  10
ATOM      6  N   UNL     1      -1.587  -1.408  24.899  0.00  0.00    -0.266 NA
ATOM      7  C   UNL     1      -1.298  -2.094  25.255  0.00  0.00    +0.073 C 
ATOM      8  C   UNL     1      -0.488  -1.995  25.379  0.00  0.00    +0.019 C 
ATOM      9  C   UNL     1      -0.277  -1.248  25.099  0.00  0.00    +0.027 C 
ATOM     10  C   UNL     1      -0.956  -0.885  24.802  0.00  0.00    +0.138 C 
BRANCH   6   5
ATOM      5  C   UNL     1      -2.369  -1.270  24.678  0.00  0.00    +0.072 C 
BRANCH   5   2
ATOM      1  C   UNL     1      -3.532  -2.392  25.011  0.00  0.00    +0.001 C 
ATOM      2  C   UNL     1      -2.950  -1.831  24.844  0.00  0.00    +0.015 C 
ATOM      3  C   UNL     1      -2.750  -2.243  24.158  0.00  0.00    +0.001 C 
ATOM      4  C   UNL     1      -3.151  -1.419  25.531  0.00  0.00    +0.001 C 
ENDBRANCH   5   2
ENDBRANCH   6   5
ENDBRANCH  11  10
TORSDOF 6
ENDMDL
MODEL 6
REMARK VINA RESULT:     -10.6      1.967      5.876
REMARK  Name = 
REMARK  6 active torsions:
REMARK  status: ('A' for Active; 'I' for Inactive)
REMARK    1  A    between atoms: C_2  and  C_5
REMARK    2  A    between atoms: C_5  and  N_6
REMARK    3  A    between atoms: C_10  and  C_11
REMARK    4  A    between atoms: C_13  and  C_16
REMARK    5  A    between atoms: C_20  and  N_22
REMARK    6  A    between atoms: C_25  and  C_28
REMARK                            x       y       z     vdW  Elec       q    Type
REMARK                         _______ _______ _______ _____ _____    ______ ____
ROOT
ATOM     11  C   UNL     1      -1.743  -1.009  25.162  0.00  0.00    +0.251 A 
ATOM     12  N   UNL     1      -1.556  -0.216  25.029  0.00  0.00    -0.190 NA
ATOM     13  C   UNL     1      -0.819  -0.185  24.660  0.00  0.00    +0.203 A 
ATOM     14  N   UNL     1      -0.550  -0.960  24.564  0.00  0.00    -0.056 NA
ATOM     15  O   UNL     1      -1.121  -1.468  24.875  0.00  0.00    -0.336 OA
ENDROOT
BRANCH  13  16
ATOM     16  C   UNL     1      -0.421   0.498  24.427  0.00  0.00    +0.043 A 
ATOM     17  C   UNL     1       0.275   0.440  23.988  0.00  0.00    +0.024 A 
ATOM     18  C   UNL     1       0.675   1.122  23.755  0.00  0.00    +0.100 A 
ATOM     19  N   UNL     1       0.378   1.864  23.960  0.00  0.00    -0.229 NA
ATOM     20  C   UNL     1      -0.318   1.924  24.399  0.00  0.00    +0.132 A 
ATOM     21  C   UNL     1      -0.717   1.240  24.633  0.00  0.00    +0.037 A 
BRANCH  20  22
ATOM     22  N   UNL     1      -0.614   2.665  24.605  0.00  0.00    -0.293 N 
ATOM     23  C   UNL     1      -1.249   2.986  24.187  0.00  0.00    +0.093 C 
ATOM     24  C   UNL     1      -1.545   3.728  24.392  0.00  0.00    +0.031 C 
ATOM     25  C   UNL     1      -1.208   4.149  25.016  0.00  0.00    +0.083 C 
ATOM     26  C   UNL     1      -0.573   3.828  25.435  0.00  0.00    +0.031 C 
ATOM     27  C   UNL     1      -0.276   3.086  25.229  0.00  0.00    +0.093 C 
BRANCH  25  28
ATOM     28  C   UNL     1      -1.504   4.891  25.222  0.00  0.00    +0.260 C 
ATOM     29  N   UNL     1      -2.227   4.951  25.615  0.00  0.00    -0.088 NA
ATOM     30  O   UNL     1      -1.078   5.572  25.034  0.00  0.00    -0.272 OA
ENDBRANCH  25  28
ENDBRANCH  20  22
ENDBRANCH  13  16
BRANCH  11  10
ATOM      6  N   UNL     1      -3.075  -1.630  25.131  0.00  0.00    -0.266 NA
ATOM      7  C   UNL     1      -3.636  -1.835  25.700  0.00  0.00    +0.073 C 
ATOM      8  C   UNL     1      -3.337  -1.624  26.440  0.00  0.00    +0.019 C 
ATOM      9  C   UNL     1      -2.592  -1.289  26.328  0.00  0.00    +0.027 C 
ATOM     10  C   UNL     1      -2.429  -1.292  25.519  0.00  0.00    +0.138 C 
BRANCH   6   5
ATOM      5  C   UNL     1      -3.147  -1.742  24.318  0.00  0.00    +0.072 C 
BRANCH   5   2
ATOM      1  C   UNL     1      -4.534  -2.379  23.690  0.00  0.00    +0.001 C 
ATOM      2  C   UNL     1      -3.840  -2.060  24.004  0.00  0.00    +0.015 C 
ATOM      3  C   UNL     1      -4.142  -1.300  23.896  0.00  0.00    +0.001 C 
ATOM      4  C   UNL     1      -3.539  -2.821  24.112  0.00  0.00    +0.001 C 
ENDBRANCH   5   2
ENDBRANCH   6   5
ENDBRANCH  11  10
TORSDOF 6
ENDMDL
MODEL 7
REMARK VINA RESULT:     -10.0      2.374      4.100
REMARK  Name = 
REMARK  6 active torsions:
REMARK  status: ('A' for Active; 'I' for Inactive)
REMARK    1  A    between atoms: C_2  and  C_5
REMARK    2  A    between atoms: C_5  and  N_6
REMARK    3  A    between atoms: C_10  and  C_11
REMARK    4  A    between atoms: C_13  and  C_16
REMARK    5  A    between atoms: C_20  and  N_22
REMARK    6  A    between atoms: C_25  and  C_28
REMARK                            x       y       z     vdW  Elec       q    Type
REMARK                         _______ _______ _______ _____ _____    ______ ____
ROOT
ATOM     11  C   UNL     1      -4.564   0.950  24.977  0.00  0.00    +0.251 A 
ATOM     12  N   UNL     1      -3.821   0.742  25.269  0.00  0.00    -0.190 NA
ATOM     13  C   UNL     1      -3.592   0.036  24.909  0.00  0.00    +0.203 A 
ATOM     14  N   UNL     1      -4.194  -0.193  24.393  0.00  0.00    -0.056 NA
ATOM     15  O   UNL     1      -4.795   0.371  24.435  0.00  0.00    -0.336 OA
ENDROOT
BRANCH  13  16
ATOM     16  C   UNL     1      -2.886  -0.370  25.040  0.00  0.00    +0.043 A 
ATOM     17  C   UNL     1      -2.862  -0.991  25.582  0.00  0.00    +0.024 A 
ATOM     18  C   UNL     1      -2.157  -1.397  25.714  0.00  0.00    +0.100 A 
ATOM     19  N   UNL     1      -1.475  -1.183  25.303  0.00  0.00    -0.229 NA
ATOM     20  C   UNL     1      -1.498  -0.562  24.761  0.00  0.00    +0.132 A 
ATOM     21  C   UNL     1      -2.203  -0.156  24.629  0.00  0.00    +0.037 A 
BRANCH  20  22
ATOM     22  N   UNL     1      -0.815  -0.348  24.350  0.00  0.00    -0.293 N 
ATOM     23  C   UNL     1      -0.592   0.444  24.307  0.00  0.00    +0.093 C 
ATOM     24  C   UNL     1       0.091   0.658  23.896  0.00  0.00    +0.031 C 
ATOM     25  C   UNL     1       0.550   0.080  23.528  0.00  0.00    +0.083 C 
ATOM     26  C   UNL     1       0.326  -0.713  23.571  0.00  0.00    +0.031 C 
ATOM     27  C   UNL     1      -0.356  -0.927  23.982  0.00  0.00    +0.093 C 
BRANCH  25  28
ATOM     28  C   UNL     1       1.232   0.294  23.117  0.00  0.00    +0.260 C 
ATOM     29  N   UNL     1       1.478  -0.149  22.466  0.00  0.00    -0.088 NA
ATOM     30  O   UNL     1       1.669   0.952  23.357  0.00  0.00    -0.272 OA
ENDBRANCH  25  28
ENDBRANCH  20  22
ENDBRANCH  13  16
BRANCH  11  10
ATOM      6  N   UNL     1      -4.792   2.401  25.035  0.00  0.00    -0.266 NA
ATOM      7  C   UNL     1      -5.385   2.885  25.342  0.00  0.00    +0.073 C 
ATOM      8  C   UNL     1      -5.958   2.401  25.685  0.00  0.00    +0.019 C 
ATOM      9  C   UNL     1      -5.720   1.617  25.590  0.00  0.00    +0.027 C 
ATOM     10  C   UNL     1      -4.999   1.616  25.188  0.00  0.00    +0.138 C 
BRANCH   6   5
ATOM      5  C   UNL     1      -4.113   2.655  24.643  0.00  0.00    +0.072 C 
BRANCH   5   2
ATOM      1  C   UNL     1      -3.857   4.266  24.392  0.00  0.00    +0.001 C 
ATOM      2  C   UNL     1      -3.985   3.460  24.517  0.00  0.00    +0.015 C 
ATOM      3  C   UNL     1      -4.303   3.393  23.759  0.00  0.00    +0.001 C 
ATOM      4  C   UNL     1      -3.668   3.528  25.277  0.00  0.00    +0.001 C 
ENDBRANCH   5   2
ENDBRANCH   6   5
ENDBRANCH  11  10
TORSDOF 6
ENDMDL
MODEL 8
REMARK VINA RESULT:      -9.5      2.364      4.266
REMARK  Name = 
REMARK  6 active torsions:
REMARK  status: ('A' for Active; 'I' for Inactive)
REMARK    1  A    between atoms: C_2  and  C_5
REMARK    2  A    between atoms: C_5  and  N_6
REMARK    3  A    between atoms: C_10  and  C_11
REMARK    4  A    between atoms: C_13  and  C_16
REMARK    5  A    between atoms: C_20  and  N_22
REMARK    6  A    between atoms: C_25  and  C_28
REMARK                            x       y       z     vdW  Elec       q    Type
REMARK                         _______ _______ _______ _____ _____    ______ ____
ROOT
ATOM     11  C   UNL     1      -3.849   3.835  25.767  0.00  0.00    +0.251 A 
ATOM     12  N   UNL     1      -3.265   3.769  25.188  0.00  0.00    -0.190 NA
ATOM     13  C   UNL     1      -2.532   3.765  25.564  0.00  0.00    +0.203 A 
ATOM     14  N   UNL     1      -2.662   3.829  26.376  0.00  0.00    -0.056 NA
ATOM     15  O   UNL     1      -3.476   3.872  26.502  0.00  0.00    -0.336 OA
ENDROOT
BRANCH  13  16
ATOM     16  C   UNL     1      -1.796   3.707  25.194  0.00  0.00    +0.043 A 
ATOM     17  C   UNL     1      -1.338   4.384  25.081  0.00  0.00    +0.024 A 
ATOM     18  C   UNL     1      -0.603   4.328  24.712  0.00  0.00    +0.100 A 
ATOM     19  N   UNL     1      -0.325   3.595  24.456  0.00  0.00    -0.229 NA
ATOM     20  C   UNL     1      -0.783   2.918  24.569  0.00  0.00    +0.132 A 
ATOM     21  C   UNL     1      -1.518   2.974  24.938  0.00  0.00    +0.037 A 
BRANCH  20  22
ATOM     22  N   UNL     1      -0.505   2.184  24.313  0.00  0.00    -0.293 N 
ATOM     23  C   UNL     1      -0.973   1.714  23.823  0.00  0.00    +0.093 C 
ATOM     24  C   UNL     1      -0.695   0.981  23.567  0.00  0.00    +0.031 C 
ATOM     25  C   UNL     1       0.051   0.718  23.801  0.00  0.00    +0.083 C 
ATOM     26  C   UNL     1       0.519   1.188  24.291  0.00  0.00    +0.031 C 
ATOM     27  C   UNL     1       0.242   1.921  24.547  0.00  0.00    +0.093 C 
BRANCH  25  28
ATOM     28  C   UNL     1       0.329  -0.016  23.545  0.00  0.00    +0.260 C 
ATOM     29  N   UNL     1       0.872  -0.058  22.925  0.00  0.00    -0.088 NA
ATOM     30  O   UNL     1       0.063  -0.707  23.908  0.00  0.00    -0.272 OA
ENDBRANCH  25  28
ENDBRANCH  20  22
ENDBRANCH  13  16
BRANCH  11  10
ATOM      6  N   UNL     1      -5.157   3.207  25.527  0.00  0.00    -0.266 NA
ATOM      7  C   UNL     1      -5.925   3.486  25.414  0.00  0.00    +0.073 C 
ATOM      8  C   UNL     1      -5.906   4.311  25.452  0.00  0.00    +0.019 C 
ATOM      9  C   UNL     1      -5.125   4.541  25.588  0.00  0.00    +0.027 C 
ATOM     10  C   UNL     1      -4.662   3.859  25.635  0.00  0.00    +0.138 C 
BRANCH   6   5
ATOM      5  C   UNL     1      -4.925   2.417  25.532  0.00  0.00    +0.072 C 
BRANCH   5   2
ATOM      1  C   UNL     1      -6.013   1.233  25.162  0.00  0.00    +0.001 C 
ATOM      2  C   UNL     1      -5.469   1.825  25.347  0.00  0.00    +0.015 C 
ATOM      3  C   UNL     1      -5.772   1.863  26.114  0.00  0.00    +0.001 C 
ATOM      4  C   UNL     1      -5.166   1.787  24.580  0.00  0.00    +0.001 C 
ENDBRANCH   5   2
ENDBRANCH   6   5
ENDBRANCH  11  10
TORSDOF 6
ENDMDL
MODEL 9
REMARK VINA RESULT:      -9.2      1.893      3.798
REMARK  Name = 
REMARK  6 active torsions:
REMARK  status: ('A' for Active; 'I' for Inactive)
REMARK    1  A    between atoms: C_2  and  C_5
REMARK    2  A    between atoms: C_5  and  N_6
REMARK    3  A    between atoms: C_10  and  C_11
REMARK    4  A    between atoms: C_13  and  C_16
REMARK    5  A    between atoms: C_20  and  N_22
REMARK    6  A    between atoms: C_25  and  C_28
REMARK                            x       y       z     vdW  Elec       q    Type
REMARK                         _______ _______ _______ _____ _____    ______ ____
ROOT
ATOM     11  C   UNL     1      -0.968  -0.048  24.317  0.00  0.00    +0.251 A 
ATOM     12  N   UNL     1      -1.737   0.215  24.175  0.00  0.00    -0.190 NA
ATOM     13  C   UNL     1      -2.259  -0.331  24.505  0.00  0.00    +0.203 A 
ATOM     14  N   UNL     1      -1.813  -0.932  24.853  0.00  0.00    -0.056 NA
ATOM     15  O   UNL     1      -1.015  -0.757  24.736  0.00  0.00    -0.336 OA
ENDROOT
BRANCH  13  16
ATOM     16  C   UNL     1      -3.083  -0.285  24.492  0.00  0.00    +0.043 A 
ATOM     17  C   UNL     1      -3.528  -0.936  24.249  0.00  0.00    +0.024 A 
ATOM     18  C   UNL     1      -4.351  -0.892  24.235  0.00  0.00    +0.100 A 
ATOM     19  N   UNL     1      -4.730  -0.196  24.465  0.00  0.00    -0.229 NA
ATOM     20  C   UNL     1      -4.286   0.455  24.708  0.00  0.00    +0.132 A 
ATOM     21  C   UNL     1      -3.462   0.410  24.722  0.00  0.00    +0.037 A 
BRANCH  20  22
ATOM     22  N   UNL     1      -4.665   1.151  24.938  0.00  0.00    -0.293 N 
ATOM     23  C   UNL     1      -4.448   1.870  24.599  0.00  0.00    +0.093 C 
ATOM     24  C   UNL     1      -4.827   2.565  24.829  0.00  0.00    +0.031 C 
ATOM     25  C   UNL     1      -5.424   2.542  25.398  0.00  0.00    +0.083 C 
ATOM     26  C   UNL     1      -5.641   1.822  25.737  0.00  0.00    +0.031 C 
ATOM     27  C   UNL     1      -5.262   1.126  25.508  0.00  0.00    +0.093 C 
BRANCH  25  28
ATOM     28  C   UNL     1      -5.803   3.238  25.628  0.00  0.00    +0.260 C 
ATOM     29  N   UNL     1      -5.509   3.969  25.382  0.00  0.00    -0.088 NA
ATOM     30  O   UNL     1      -6.476   3.202  26.103  0.00  0.00    -0.272 OA
ENDBRANCH  25  28
ENDBRANCH  20  22
ENDBRANCH  13  16
BRANCH  11  10
ATOM      6  N   UNL     1      -0.032   1.086  24.310  0.00  0.00    -0.266 NA
ATOM      7  C   UNL     1       0.691   1.242  23.946  0.00  0.00    +0.073 C 
ATOM      8  C   UNL     1       0.896   0.583  23.493  0.00  0.00    +0.019 C 
ATOM      9  C   UNL     1       0.299   0.020  23.577  0.00  0.00    +0.027 C 
ATOM     10  C   UNL     1      -0.275   0.330  24.082  0.00  0.00    +0.138 C 
BRANCH   6   5
ATOM      5  C   UNL     1      -0.441   1.595  24.813  0.00  0.00    +0.072 C 
BRANCH   5   2
ATOM      1  C   UNL     1       0.163   3.095  25.140  0.00  0.00    +0.001 C 
ATOM      2  C   UNL     1      -0.139   2.344  24.976  0.00  0.00    +0.015 C 
ATOM      3  C   UNL     1       0.197   2.059  25.674  0.00  0.00    +0.001 C 
ATOM      4  C   UNL     1      -0.475   2.631  24.279  0.00  0.00    +0.001 C 
ENDBRANCH   5   2
ENDBRANCH   6   5
ENDBRANCH  11  10
TORSDOF 6
ENDMDL
MODEL 10
REMARK VINA RESULT:      -9.2      2.895      4.680
REMARK  Name = 
REMARK  6 active torsions:
REMARK  status: ('A' for Active; 'I' for Inactive)
REMARK    1  A    between atoms: C_2  and  C_5
REMARK    2  A    between atoms: C_5  and  N_6
REMARK    3  A    between atoms: C_10  and  C_11
REMARK    4  A    between atoms: C_13  and  C_16
REMARK    5  A    between atoms: C_20  and  N_22
REMARK    6  A    between atoms: C_25  and  C_28
REMARK                            x       y       z     vdW  Elec       q    Type
REMARK                         _______ _______ _______ _____ _____    ______ ____
ROOT
ATOM     11  C   UNL     1      -2.751   2.266  24.668  0.00  0.00    +0.251 A 
ATOM     12  N   UNL     1      -2.440   1.574  24.344  0.00  0.00    -0.190 NA
ATOM     13  C   UNL     1      -1.802   1.338  24.810  0.00  0.00    +0.203 A 
ATOM     14  N   UNL     1      -1.719   1.884  25.423  0.00  0.00    -0.056 NA
ATOM     15  O   UNL     1      -2.305   2.458  25.335  0.00  0.00    -0.336 OA
ENDROOT
BRANCH  13  16
ATOM     16  C   UNL     1      -1.330   0.672  24.687  0.00  0.00    +0.043 A 
ATOM     17  C   UNL     1      -1.549  -0.054  25.011  0.00  0.00    +0.024 A 
ATOM     18  C   UNL     1      -1.078  -0.720  24.889  0.00  0.00    +0.100 A 
ATOM     19  N   UNL     1      -0.388  -0.659  24.441  0.00  0.00    -0.229 NA
ATOM     20  C   UNL     1      -0.168   0.067  24.117  0.00  0.00    +0.132 A 
ATOM     21  C   UNL     1      -0.640   0.733  24.239  0.00  0.00    +0.037 A 
BRANCH  20  22
ATOM     22  N   UNL     1       0.522   0.127  23.669  0.00  0.00    -0.293 N 
ATOM     23  C   UNL     1       1.088   0.695  23.860  0.00  0.00    +0.093 C 
ATOM     24  C   UNL     1       1.779   0.755  23.412  0.00  0.00    +0.031 C 
ATOM     25  C   UNL     1       1.903   0.248  22.774  0.00  0.00    +0.083 C 
ATOM     26  C   UNL     1       1.336  -0.321  22.584  0.00  0.00    +0.031 C 
ATOM     27  C   UNL     1       0.646  -0.381  23.031  0.00  0.00    +0.093 C 
BRANCH  25  28
ATOM     28  C   UNL     1       2.593   0.308  22.327  0.00  0.00    +0.260 C 
ATOM     29  N   UNL     1       3.230   0.751  22.608  0.00  0.00    -0.088 NA
ATOM     30  O   UNL     1       2.647  -0.075  21.598  0.00  0.00    -0.272 OA
ENDBRANCH  25  28
ENDBRANCH  20  22
ENDBRANCH  13  16
BRANCH  11  10
ATOM      6  N   UNL     1      -4.179   2.615  24.621  0.00  0.00    -0.266 NA
ATOM      7  C   UNL     1      -4.635   3.146  24.185  0.00  0.00    +0.073 C 
ATOM      8  C   UNL     1      -4.132   3.552  23.671  0.00  0.00    +0.019 C 
ATOM      9  C   UNL     1      -3.366   3.271  23.789  0.00  0.00    +0.027 C 
ATOM     10  C   UNL     1      -3.394   2.692  24.377  0.00  0.00    +0.138 C 
BRANCH   6   5
ATOM      5  C   UNL     1      -4.457   2.097  25.199  0.00  0.00    +0.072 C 
BRANCH   5   2
ATOM      1  C   UNL     1      -6.073   2.017  25.526  0.00  0.00    +0.001 C 
ATOM      2  C   UNL     1      -5.265   2.057  25.362  0.00  0.00    +0.015 C 
ATOM      3  C   UNL     1      -5.333   1.398  24.871  0.00  0.00    +0.001 C 
ATOM      4  C   UNL     1      -5.197   2.717  25.855  0.00  0.00    +0.001 C 
ENDBRANCH   5   2
ENDBRANCH   6   5
ENDBRANCH  11  10
TORSDOF 6
ENDMDL
