REMARK  Name = 
REMARK  4 active torsions:
REMARK  status: ('A' for Active; 'I' for Inactive)
REMARK    1  A    between atoms: C_7  and  C_8
REMARK    2  A    between atoms: C_10  and  C_13
REMARK    3  A    between atoms: C_16  and  O_17
REMARK    4  A    between atoms: O_17  and  C_18
REMARK                            x       y       z     vdW  Elec       q    Type
REMARK                         _______ _______ _______ _____ _____    ______ ____
ROOT
ATOM      8  C   UNL     1      -2.047  -3.270   0.000  0.00  0.00    +0.251 A 
ATOM      9  N   UNL     1      -2.715  -3.755   0.000  0.00  0.00    -0.190 NA
ATOM     10  C   UNL     1      -3.382  -3.270   0.000  0.00  0.00    +0.203 A 
ATOM     11  N   UNL     1      -3.127  -2.486   0.000  0.00  0.00    -0.056 NA
ATOM     12  O   UNL     1      -2.303  -2.486   0.000  0.00  0.00    -0.336 OA
ENDROOT
BRANCH   8   7
ATOM      1  C   UNL     1      -0.596  -2.216   0.000  0.00  0.00    +0.090 C 
ATOM      2  N   UNL     1      -0.596  -3.041   0.000  0.00  0.00    -0.263 NA
ATOM      3  C   UNL     1       0.072  -3.525   0.000  0.00  0.00    +0.106 C 
ATOM      4  C   UNL     1      -0.183  -4.310   0.000  0.00  0.00    +0.170 C 
ATOM      5  O   UNL     1       0.302  -4.977   0.000  0.00  0.00    -0.222 OA
ATOM      6  C   UNL     1      -1.008  -4.310   0.000  0.00  0.00    +0.060 C 
ATOM      7  C   UNL     1      -1.263  -3.525   0.000  0.00  0.00    +0.140 C 
ENDBRANCH   8   7
BRANCH  10  13
ATOM     13  C   UNL     1      -4.167  -3.525   0.000  0.00  0.00    +0.039 A 
ATOM     14  C   UNL     1      -4.338  -4.332   0.000  0.00  0.00    +0.006 A 
ATOM     15  C   UNL     1      -5.123  -4.587   0.000  0.00  0.00    +0.037 A 
ATOM     16  C   UNL     1      -5.736  -4.035   0.000  0.00  0.00    +0.147 A 
ATOM     22  C   UNL     1      -5.565  -3.228   0.000  0.00  0.00    +0.037 A 
ATOM     23  C   UNL     1      -4.780  -2.973   0.000  0.00  0.00    +0.006 A 
BRANCH  16  17
ATOM     17  O   UNL     1      -6.521  -4.290   0.000  0.00  0.00    -0.404 OA
BRANCH  17  18
ATOM     18  C   UNL     1      -6.692  -5.097   0.000  0.00  0.00    +0.575 C 
ATOM     19  F   UNL     1      -6.864  -5.904   0.000  0.00  0.00    -0.133 F 
ATOM     20  F   UNL     1      -7.499  -4.926   0.000  0.00  0.00    -0.133 F 
ATOM     21  F   UNL     1      -5.885  -5.269   0.000  0.00  0.00    -0.133 F 
ENDBRANCH  17  18
ENDBRANCH  16  17
ENDBRANCH  10  13
TORSDOF 4
