MODEL 1
REMARK VINA RESULT:      -9.8      0.000      0.000
REMARK  Name = 
REMARK  8 active torsions:
REMARK  status: ('A' for Active; 'I' for Inactive)
REMARK    1  A    between atoms: O_2  and  C_3
REMARK    2  A    between atoms: C_3  and  C_4
REMARK    3  A    between atoms: C_4  and  O_5
REMARK    4  A    between atoms: O_5  and  C_6
REMARK    5  A    between atoms: C_7  and  C_12
REMARK    6  A    between atoms: C_15  and  C_17
REMARK    7  A    between atoms: N_21  and  C_22
REMARK    8  A    between atoms: C_22  and  C_23
REMARK                            x       y       z     vdW  Elec       q    Type
REMARK                         _______ _______ _______ _____ _____    ______ ____
ROOT
ATOM     12  C   UNL     1      -2.859   3.246  24.543  0.00  0.00    +0.208 A 
ATOM     13  N   UNL     1      -3.196   3.212  23.792  0.00  0.00    -0.056 NA
ATOM     14  O   UNL     1      -3.870   2.737  23.837  0.00  0.00    -0.336 OA
ATOM     15  C   UNL     1      -3.948   2.479  24.616  0.00  0.00    +0.251 A 
ATOM     16  N   UNL     1      -3.323   2.794  25.053  0.00  0.00    -0.189 NA
ENDROOT
BRANCH  12   7
ATOM      6  C   UNL     1      -1.437   3.303  24.674  0.00  0.00    +0.228 A 
ATOM      7  C   UNL     1      -2.176   3.661  24.750  0.00  0.00    +0.092 A 
ATOM      8  C   UNL     1      -2.232   4.434  25.033  0.00  0.00    +0.009 A 
ATOM      9  C   UNL     1      -1.550   4.849  25.239  0.00  0.00    +0.021 A 
ATOM     10  C   UNL     1      -0.811   4.490  25.163  0.00  0.00    +0.102 A 
ATOM     11  N   UNL     1      -0.754   3.718  24.880  0.00  0.00    -0.210 NA
BRANCH   6   5
ATOM      5  O   UNL     1      -1.380   2.529  24.391  0.00  0.00    -0.457 OA
BRANCH   5   4
ATOM      4  C   UNL     1      -0.662   2.126  24.435  0.00  0.00    +0.239 C 
BRANCH   4   3
ATOM      3  C   UNL     1      -0.564   1.414  24.029  0.00  0.00    +0.189 C 
BRANCH   3   2
ATOM      1  C   UNL     1      -0.201   0.032  24.026  0.00  0.00    +0.174 C 
ATOM      2  O   UNL     1      -0.301   0.744  24.432  0.00  0.00    -0.347 OA
ENDBRANCH   3   2
ENDBRANCH   4   3
ENDBRANCH   5   4
ENDBRANCH   6   5
ENDBRANCH  12   7
BRANCH  15  17
ATOM     17  C   UNL     1      -4.547   1.991  24.907  0.00  0.00    +0.138 C 
ATOM     18  C   UNL     1      -5.216   2.239  25.321  0.00  0.00    +0.027 C 
ATOM     19  C   UNL     1      -5.664   1.572  25.505  0.00  0.00    +0.019 C 
ATOM     20  C   UNL     1      -5.272   0.911  25.205  0.00  0.00    +0.073 C 
ATOM     21  N   UNL     1      -4.582   1.170  24.836  0.00  0.00    -0.260 NA
BRANCH  21  22
ATOM     22  C   UNL     1      -4.023   0.692  24.460  0.00  0.00    +0.138 C 
BRANCH  22  23
ATOM     23  C   UNL     1      -3.939  -0.097  24.683  0.00  0.00    +0.139 A 
ATOM     24  C   UNL     1      -4.167  -0.754  24.239  0.00  0.00    +0.038 A 
ATOM     25  C   UNL     1      -3.981  -1.431  24.671  0.00  0.00    +0.043 A 
ATOM     26  C   UNL     1      -3.638  -1.194  25.382  0.00  0.00    +0.179 A 
ATOM     27  O   UNL     1      -3.611  -0.369  25.390  0.00  0.00    -0.453 OA
ENDBRANCH  22  23
ENDBRANCH  21  22
ENDBRANCH  15  17
TORSDOF 8
ENDMDL
MODEL 2
REMARK VINA RESULT:      -9.6      1.253      3.963
REMARK  Name = 
REMARK  8 active torsions:
REMARK  status: ('A' for Active; 'I' for Inactive)
REMARK    1  A    between atoms: O_2  and  C_3
REMARK    2  A    between atoms: C_3  and  C_4
REMARK    3  A    between atoms: C_4  and  O_5
REMARK    4  A    between atoms: O_5  and  C_6
REMARK    5  A    between atoms: C_7  and  C_12
REMARK    6  A    between atoms: C_15  and  C_17
REMARK    7  A    between atoms: N_21  and  C_22
REMARK    8  A    between atoms: C_22  and  C_23
REMARK                            x       y       z     vdW  Elec       q    Type
REMARK                         _______ _______ _______ _____ _____    ______ ____
ROOT
ATOM     12  C   UNL     1      -3.642  -0.131  24.327  0.00  0.00    +0.208 A 
ATOM     13  N   UNL     1      -3.638   0.265  23.604  0.00  0.00    -0.056 NA
ATOM     14  O   UNL     1      -3.894   1.039  23.737  0.00  0.00    -0.336 OA
ATOM     15  C   UNL     1      -4.055   1.119  24.542  0.00  0.00    +0.251 A 
ATOM     16  N   UNL     1      -3.899   0.395  24.907  0.00  0.00    -0.189 NA
ENDROOT
BRANCH  12   7
ATOM      6  C   UNL     1      -2.634  -1.115  24.570  0.00  0.00    +0.228 A 
ATOM      7  C   UNL     1      -3.426  -0.918  24.448  0.00  0.00    +0.092 A 
ATOM      8  C   UNL     1      -4.002  -1.510  24.448  0.00  0.00    +0.009 A 
ATOM      9  C   UNL     1      -3.786  -2.296  24.570  0.00  0.00    +0.021 A 
ATOM     10  C   UNL     1      -2.994  -2.492  24.692  0.00  0.00    +0.102 A 
ATOM     11  N   UNL     1      -2.418  -1.902  24.692  0.00  0.00    -0.210 NA
BRANCH   6   5
ATOM      5  O   UNL     1      -2.058  -0.524  24.571  0.00  0.00    -0.457 OA
BRANCH   5   4
ATOM      4  C   UNL     1      -1.259  -0.728  24.573  0.00  0.00    +0.239 C 
BRANCH   4   3
ATOM      3  C   UNL     1      -0.685  -0.145  24.687  0.00  0.00    +0.189 C 
BRANCH   3   2
ATOM      1  C   UNL     1       0.175   0.811  24.064  0.00  0.00    +0.174 C 
ATOM      2  O   UNL     1      -0.186   0.068  24.066  0.00  0.00    -0.347 OA
ENDBRANCH   3   2
ENDBRANCH   4   3
ENDBRANCH   5   4
ENDBRANCH   6   5
ENDBRANCH  12   7
BRANCH  15  17
ATOM     17  C   UNL     1      -4.325   1.803  24.917  0.00  0.00    +0.138 C 
ATOM     18  C   UNL     1      -5.089   1.934  25.196  0.00  0.00    +0.027 C 
ATOM     19  C   UNL     1      -5.114   2.687  25.530  0.00  0.00    +0.019 C 
ATOM     20  C   UNL     1      -4.364   3.023  25.457  0.00  0.00    +0.073 C 
ATOM     21  N   UNL     1      -3.876   2.477  25.078  0.00  0.00    -0.260 NA
BRANCH  21  22
ATOM     22  C   UNL     1      -3.079   2.584  24.892  0.00  0.00    +0.138 C 
BRANCH  22  23
ATOM     23  C   UNL     1      -2.699   3.287  25.097  0.00  0.00    +0.139 A 
ATOM     24  C   UNL     1      -2.175   3.389  25.727  0.00  0.00    +0.038 A 
ATOM     25  C   UNL     1      -1.929   4.176  25.728  0.00  0.00    +0.043 A 
ATOM     26  C   UNL     1      -2.299   4.561  25.099  0.00  0.00    +0.179 A 
ATOM     27  O   UNL     1      -2.776   4.011  24.710  0.00  0.00    -0.453 OA
ENDBRANCH  22  23
ENDBRANCH  21  22
ENDBRANCH  15  17
TORSDOF 8
ENDMDL
MODEL 3
REMARK VINA RESULT:      -9.6      1.431      3.186
REMARK  Name = 
REMARK  8 active torsions:
REMARK  status: ('A' for Active; 'I' for Inactive)
REMARK    1  A    between atoms: O_2  and  C_3
REMARK    2  A    between atoms: C_3  and  C_4
REMARK    3  A    between atoms: C_4  and  O_5
REMARK    4  A    between atoms: O_5  and  C_6
REMARK    5  A    between atoms: C_7  and  C_12
REMARK    6  A    between atoms: C_15  and  C_17
REMARK    7  A    between atoms: N_21  and  C_22
REMARK    8  A    between atoms: C_22  and  C_23
REMARK                            x       y       z     vdW  Elec       q    Type
REMARK                         _______ _______ _______ _____ _____    ______ ____
ROOT
ATOM     12  C   UNL     1      -4.310   1.541  24.560  0.00  0.00    +0.208 A 
ATOM     13  N   UNL     1      -3.962   1.555  23.813  0.00  0.00    -0.056 NA
ATOM     14  O   UNL     1      -3.687   0.794  23.647  0.00  0.00    -0.336 OA
ATOM     15  C   UNL     1      -3.866   0.312  24.292  0.00  0.00    +0.251 A 
ATOM     16  N   UNL     1      -4.251   0.774  24.857  0.00  0.00    -0.189 NA
ENDROOT
BRANCH  12   7
ATOM      6  C   UNL     1      -4.190   2.813  25.201  0.00  0.00    +0.228 A 
ATOM      7  C   UNL     1      -4.657   2.183  24.945  0.00  0.00    +0.092 A 
ATOM      8  C   UNL     1      -5.472   2.197  25.073  0.00  0.00    +0.009 A 
ATOM      9  C   UNL     1      -5.819   2.839  25.457  0.00  0.00    +0.021 A 
ATOM     10  C   UNL     1      -5.351   3.468  25.713  0.00  0.00    +0.102 A 
ATOM     11  N   UNL     1      -4.537   3.455  25.586  0.00  0.00    -0.210 NA
BRANCH   6   5
ATOM      5  O   UNL     1      -3.374   2.800  25.073  0.00  0.00    -0.457 OA
BRANCH   5   4
ATOM      4  C   UNL     1      -2.904   3.420  25.347  0.00  0.00    +0.239 C 
BRANCH   4   3
ATOM      3  C   UNL     1      -2.101   3.444  25.156  0.00  0.00    +0.189 C 
BRANCH   3   2
ATOM      1  C   UNL     1      -0.915   4.238  25.094  0.00  0.00    +0.174 C 
ATOM      2  O   UNL     1      -1.621   4.035  25.472  0.00  0.00    -0.347 OA
ENDBRANCH   3   2
ENDBRANCH   4   3
ENDBRANCH   5   4
ENDBRANCH   6   5
ENDBRANCH  12   7
BRANCH  15  17
ATOM     17  C   UNL     1      -3.690  -0.492  24.360  0.00  0.00    +0.138 C 
ATOM     18  C   UNL     1      -4.198  -1.116  24.181  0.00  0.00    +0.027 C 
ATOM     19  C   UNL     1      -3.797  -1.821  24.329  0.00  0.00    +0.019 C 
ATOM     20  C   UNL     1      -3.040  -1.633  24.600  0.00  0.00    +0.073 C 
ATOM     21  N   UNL     1      -2.974  -0.811  24.619  0.00  0.00    -0.260 NA
BRANCH  21  22
ATOM     22  C   UNL     1      -2.309  -0.383  24.855  0.00  0.00    +0.138 C 
BRANCH  22  23
ATOM     23  C   UNL     1      -1.578  -0.759  24.916  0.00  0.00    +0.139 A 
ATOM     24  C   UNL     1      -1.237  -1.049  25.609  0.00  0.00    +0.038 A 
ATOM     25  C   UNL     1      -0.507  -1.379  25.415  0.00  0.00    +0.043 A 
ATOM     26  C   UNL     1      -0.395  -1.294  24.603  0.00  0.00    +0.179 A 
ATOM     27  O   UNL     1      -1.058  -0.910  24.294  0.00  0.00    -0.453 OA
ENDBRANCH  22  23
ENDBRANCH  21  22
ENDBRANCH  15  17
TORSDOF 8
ENDMDL
MODEL 4
REMARK VINA RESULT:      -9.4      1.298      3.070
REMARK  Name = 
REMARK  8 active torsions:
REMARK  status: ('A' for Active; 'I' for Inactive)
REMARK    1  A    between atoms: O_2  and  C_3
REMARK    2  A    between atoms: C_3  and  C_4
REMARK    3  A    between atoms: C_4  and  O_5
REMARK    4  A    between atoms: O_5  and  C_6
REMARK    5  A    between atoms: C_7  and  C_12
REMARK    6  A    between atoms: C_15  and  C_17
REMARK    7  A    between atoms: N_21  and  C_22
REMARK    8  A    between atoms: C_22  and  C_23
REMARK                            x       y       z     vdW  Elec       q    Type
REMARK                         _______ _______ _______ _____ _____    ______ ____
ROOT
ATOM     12  C   UNL     1      -1.637   2.382  24.382  0.00  0.00    +0.208 A 
ATOM     13  N   UNL     1      -1.802   2.180  23.600  0.00  0.00    -0.056 NA
ATOM     14  O   UNL     1      -1.638   1.377  23.505  0.00  0.00    -0.336 OA
ATOM     15  C   UNL     1      -1.372   1.083  24.229  0.00  0.00    +0.251 A 
ATOM     16  N   UNL     1      -1.371   1.705  24.771  0.00  0.00    -0.189 NA
ENDROOT
BRANCH  12   7
ATOM      6  C   UNL     1      -2.465   3.391  24.964  0.00  0.00    +0.228 A 
ATOM      7  C   UNL     1      -1.722   3.131  24.717  0.00  0.00    +0.092 A 
ATOM      8  C   UNL     1      -1.064   3.622  24.805  0.00  0.00    +0.009 A 
ATOM      9  C   UNL     1      -1.150   4.371  25.140  0.00  0.00    +0.021 A 
ATOM     10  C   UNL     1      -1.893   4.629  25.387  0.00  0.00    +0.102 A 
ATOM     11  N   UNL     1      -2.551   4.140  25.299  0.00  0.00    -0.210 NA
BRANCH   6   5
ATOM      5  O   UNL     1      -3.123   2.900  24.876  0.00  0.00    -0.457 OA
BRANCH   5   4
ATOM      4  C   UNL     1      -3.848   3.121  25.203  0.00  0.00    +0.239 C 
BRANCH   4   3
ATOM      3  C   UNL     1      -4.536   2.717  24.990  0.00  0.00    +0.189 C 
BRANCH   3   2
ATOM      1  C   UNL     1      -5.741   2.044  25.362  0.00  0.00    +0.174 C 
ATOM      2  O   UNL     1      -5.049   2.441  25.575  0.00  0.00    -0.347 OA
ENDBRANCH   3   2
ENDBRANCH   4   3
ENDBRANCH   5   4
ENDBRANCH   6   5
ENDBRANCH  12   7
BRANCH  15  17
ATOM     17  C   UNL     1      -1.146   0.304  24.383  0.00  0.00    +0.138 C 
ATOM     18  C   UNL     1      -0.375   0.012  24.369  0.00  0.00    +0.027 C 
ATOM     19  C   UNL     1      -0.404  -0.791  24.555  0.00  0.00    +0.019 C 
ATOM     20  C   UNL     1      -1.194  -0.995  24.684  0.00  0.00    +0.073 C 
ATOM     21  N   UNL     1      -1.652  -0.318  24.577  0.00  0.00    -0.260 NA
BRANCH  21  22
ATOM     22  C   UNL     1      -2.473  -0.270  24.652  0.00  0.00    +0.138 C 
BRANCH  22  23
ATOM     23  C   UNL     1      -2.916  -0.955  24.772  0.00  0.00    +0.139 A 
ATOM     24  C   UNL     1      -3.221  -1.215  25.494  0.00  0.00    +0.038 A 
ATOM     25  C   UNL     1      -3.625  -1.920  25.360  0.00  0.00    +0.043 A 
ATOM     26  C   UNL     1      -3.572  -2.097  24.557  0.00  0.00    +0.179 A 
ATOM     27  O   UNL     1      -3.133  -1.500  24.193  0.00  0.00    -0.453 OA
ENDBRANCH  22  23
ENDBRANCH  21  22
ENDBRANCH  15  17
TORSDOF 8
ENDMDL
MODEL 5
REMARK VINA RESULT:      -9.2      1.107      3.720
REMARK  Name = 
REMARK  8 active torsions:
REMARK  status: ('A' for Active; 'I' for Inactive)
REMARK    1  A    between atoms: O_2  and  C_3
REMARK    2  A    between atoms: C_3  and  C_4
REMARK    3  A    between atoms: C_4  and  O_5
REMARK    4  A    between atoms: O_5  and  C_6
REMARK    5  A    between atoms: C_7  and  C_12
REMARK    6  A    between atoms: C_15  and  C_17
REMARK    7  A    between atoms: N_21  and  C_22
REMARK    8  A    between atoms: C_22  and  C_23
REMARK                            x       y       z     vdW  Elec       q    Type
REMARK                         _______ _______ _______ _____ _____    ______ ____
ROOT
ATOM     12  C   UNL     1      -3.457   2.506  24.743  0.00  0.00    +0.208 A 
ATOM     13  N   UNL     1      -3.197   2.772  24.008  0.00  0.00    -0.056 NA
ATOM     14  O   UNL     1      -2.371   2.757  24.009  0.00  0.00    -0.336 OA
ATOM     15  C   UNL     1      -2.122   2.481  24.745  0.00  0.00    +0.251 A 
ATOM     16  N   UNL     1      -2.794   2.326  25.200  0.00  0.00    -0.189 NA
ENDROOT
BRANCH  12   7
ATOM      6  C   UNL     1      -4.627   1.705  24.921  0.00  0.00    +0.228 A 
ATOM      7  C   UNL     1      -4.243   2.433  24.981  0.00  0.00    +0.092 A 
ATOM      8  C   UNL     1      -4.647   3.088  25.280  0.00  0.00    +0.009 A 
ATOM      9  C   UNL     1      -5.433   3.015  25.518  0.00  0.00    +0.021 A 
ATOM     10  C   UNL     1      -5.816   2.286  25.458  0.00  0.00    +0.102 A 
ATOM     11  N   UNL     1      -5.413   1.632  25.160  0.00  0.00    -0.210 NA
BRANCH   6   5
ATOM      5  O   UNL     1      -4.223   1.050  24.623  0.00  0.00    -0.457 OA
BRANCH   5   4
ATOM      4  C   UNL     1      -4.554   0.297  24.689  0.00  0.00    +0.239 C 
BRANCH   4   3
ATOM      3  C   UNL     1      -4.257  -0.325  24.234  0.00  0.00    +0.189 C 
BRANCH   3   2
ATOM      1  C   UNL     1      -4.002  -1.726  24.120  0.00  0.00    +0.174 C 
ATOM      2  O   UNL     1      -4.093  -1.052  24.588  0.00  0.00    -0.347 OA
ENDBRANCH   3   2
ENDBRANCH   4   3
ENDBRANCH   5   4
ENDBRANCH   6   5
ENDBRANCH  12   7
BRANCH  15  17
ATOM     17  C   UNL     1      -1.339   2.378  24.985  0.00  0.00    +0.138 C 
ATOM     18  C   UNL     1      -0.948   2.816  25.564  0.00  0.00    +0.027 C 
ATOM     19  C   UNL     1      -0.178   2.528  25.625  0.00  0.00    +0.019 C 
ATOM     20  C   UNL     1      -0.093   1.911  25.083  0.00  0.00    +0.073 C 
ATOM     21  N   UNL     1      -0.811   1.818  24.688  0.00  0.00    -0.260 NA
BRANCH  21  22
ATOM     22  C   UNL     1      -0.972   1.263  24.099  0.00  0.00    +0.138 C 
BRANCH  22  23
ATOM     23  C   UNL     1      -0.590   0.533  24.104  0.00  0.00    +0.139 A 
ATOM     24  C   UNL     1       0.048   0.316  23.627  0.00  0.00    +0.038 A 
ATOM     25  C   UNL     1       0.255  -0.459  23.815  0.00  0.00    +0.043 A 
ATOM     26  C   UNL     1      -0.254  -0.723  24.408  0.00  0.00    +0.179 A 
ATOM     27  O   UNL     1      -0.777  -0.109  24.586  0.00  0.00    -0.453 OA
ENDBRANCH  22  23
ENDBRANCH  21  22
ENDBRANCH  15  17
TORSDOF 8
ENDMDL
MODEL 6
REMARK VINA RESULT:      -9.2      1.478      5.030
REMARK  Name = 
REMARK  8 active torsions:
REMARK  status: ('A' for Active; 'I' for Inactive)
REMARK    1  A    between atoms: O_2  and  C_3
REMARK    2  A    between atoms: C_3  and  C_4
REMARK    3  A    between atoms: C_4  and  O_5
REMARK    4  A    between atoms: O_5  and  C_6
REMARK    5  A    between atoms: C_7  and  C_12
REMARK    6  A    between atoms: C_15  and  C_17
REMARK    7  A    between atoms: N_21  and  C_22
REMARK    8  A    between atoms: C_22  and  C_23
REMARK                            x       y       z     vdW  Elec       q    Type
REMARK                         _______ _______ _______ _____ _____    ______ ____
ROOT
ATOM     12  C   UNL     1      -2.171  -0.659  25.029  0.00  0.00    +0.208 A 
ATOM     13  N   UNL     1      -1.871  -0.591  25.794  0.00  0.00    -0.056 NA
ATOM     14  O   UNL     1      -1.287  -0.008  25.788  0.00  0.00    -0.336 OA
ATOM     15  C   UNL     1      -1.227   0.284  25.018  0.00  0.00    +0.251 A 
ATOM     16  N   UNL     1      -1.773  -0.119  24.549  0.00  0.00    -0.189 NA
ENDROOT
BRANCH  12   7
ATOM      6  C   UNL     1      -3.545  -0.914  24.732  0.00  0.00    +0.228 A 
ATOM      7  C   UNL     1      -2.765  -1.177  24.786  0.00  0.00    +0.092 A 
ATOM      8  C   UNL     1      -2.580  -1.959  24.596  0.00  0.00    +0.009 A 
ATOM      9  C   UNL     1      -3.174  -2.477  24.353  0.00  0.00    +0.021 A 
ATOM     10  C   UNL     1      -3.954  -2.213  24.299  0.00  0.00    +0.102 A 
ATOM     11  N   UNL     1      -4.140  -1.432  24.488  0.00  0.00    -0.210 NA
BRANCH   6   5
ATOM      5  O   UNL     1      -3.731  -0.132  24.921  0.00  0.00    -0.457 OA
BRANCH   5   4
ATOM      4  C   UNL     1      -4.485   0.162  24.762  0.00  0.00    +0.239 C 
BRANCH   4   3
ATOM      3  C   UNL     1      -4.744   0.854  25.131  0.00  0.00    +0.189 C 
BRANCH   3   2
ATOM      1  C   UNL     1      -5.453   2.092  25.046  0.00  0.00    +0.174 C 
ATOM      2  O   UNL     1      -5.047   1.473  24.679  0.00  0.00    -0.347 OA
ENDBRANCH   3   2
ENDBRANCH   4   3
ENDBRANCH   5   4
ENDBRANCH   6   5
ENDBRANCH  12   7
BRANCH  15  17
ATOM     17  C   UNL     1      -0.710   0.875  24.763  0.00  0.00    +0.138 C 
ATOM     18  C   UNL     1      -0.055   0.768  24.275  0.00  0.00    +0.027 C 
ATOM     19  C   UNL     1       0.302   1.503  24.162  0.00  0.00    +0.019 C 
ATOM     20  C   UNL     1      -0.133   2.065  24.581  0.00  0.00    +0.073 C 
ATOM     21  N   UNL     1      -0.759   1.676  24.953  0.00  0.00    -0.260 NA
BRANCH  21  22
ATOM     22  C   UNL     1      -1.333   2.028  25.431  0.00  0.00    +0.138 C 
BRANCH  22  23
ATOM     23  C   UNL     1      -1.533   2.820  25.320  0.00  0.00    +0.139 A 
ATOM     24  C   UNL     1      -1.254   3.458  25.763  0.00  0.00    +0.038 A 
ATOM     25  C   UNL     1      -1.597   4.145  25.463  0.00  0.00    +0.043 A 
ATOM     26  C   UNL     1      -2.087   3.933  24.835  0.00  0.00    +0.179 A 
ATOM     27  O   UNL     1      -2.048   3.114  24.746  0.00  0.00    -0.453 OA
ENDBRANCH  22  23
ENDBRANCH  21  22
ENDBRANCH  15  17
TORSDOF 8
ENDMDL
