MODEL 1
REMARK VINA RESULT:     -13.7      0.000      0.000
REMARK  Name = 
REMARK  4 active torsions:
REMARK  status: ('A' for Active; 'I' for Inactive)
REMARK    1  A    between atoms: C_2  and  C_5
REMARK    2  A    between atoms: C_12  and  C_14
REMARK    3  A    between atoms: N_17  and  C_18
REMARK    4  A    between atoms: C_18  and  C_19
REMARK                            x       y       z     vdW  Elec       q    Type
REMARK                         _______ _______ _______ _____ _____    ______ ____
ROOT
ATOM      5  C   UNL     1      -1.441   4.319  25.141  0.00  0.00    +0.073 A 
ATOM      6  C   UNL     1      -2.124   3.998  24.809  0.00  0.00    +0.025 A 
ATOM      7  C   UNL     1      -2.211   3.180  24.752  0.00  0.00    +0.100 A 
ATOM      8  C   UNL     1      -1.614   2.682  25.027  0.00  0.00    +0.100 A 
ATOM      9  C   UNL     1      -0.929   3.002  25.359  0.00  0.00    +0.021 A 
ATOM     10  C   UNL     1      -0.843   3.821  25.415  0.00  0.00    +0.005 A 
ATOM     11  N   UNL     1      -1.852   1.903  24.898  0.00  0.00    -0.229 NA
ATOM     12  C   UNL     1      -2.596   1.919  24.544  0.00  0.00    +0.140 A 
ATOM     13  N   UNL     1      -2.818   2.708  24.454  0.00  0.00    -0.229 NA
ENDROOT
BRANCH  12  14
ATOM     14  C   UNL     1      -3.041   1.261  24.320  0.00  0.00    +0.076 C 
ATOM     15  C   UNL     1      -3.139   0.982  23.550  0.00  0.00    +0.026 C 
ATOM     16  C   UNL     1      -3.625   0.315  23.580  0.00  0.00    +0.073 C 
ATOM     17  N   UNL     1      -3.827   0.183  24.368  0.00  0.00    -0.269 NA
ATOM     25  C   UNL     1      -3.467   0.768  24.826  0.00  0.00    +0.080 C 
BRANCH  17  18
ATOM     18  C   UNL     1      -4.306  -0.426  24.651  0.00  0.00    +0.099 C 
BRANCH  18  19
ATOM     19  C   UNL     1      -4.031  -1.204  24.645  0.00  0.00    -0.006 A 
ATOM     20  C   UNL     1      -3.591  -1.491  25.282  0.00  0.00    -0.003 A 
ATOM     21  C   UNL     1      -3.316  -2.269  25.275  0.00  0.00    -0.000 A 
ATOM     22  C   UNL     1      -3.481  -2.760  24.634  0.00  0.00    -0.000 A 
ATOM     23  C   UNL     1      -3.920  -2.473  23.997  0.00  0.00    -0.000 A 
ATOM     24  C   UNL     1      -4.196  -1.695  24.002  0.00  0.00    -0.003 A 
ENDBRANCH  18  19
ENDBRANCH  17  18
ENDBRANCH  12  14
BRANCH   5   2
ATOM      1  F   UNL     1      -1.268   5.956  25.255  0.00  0.00    -0.166 F 
ATOM      2  C   UNL     1      -1.354   5.137  25.198  0.00  0.00    +0.419 C 
ATOM      3  F   UNL     1      -0.714   5.106  24.678  0.00  0.00    -0.166 F 
ATOM      4  F   UNL     1      -1.994   5.169  25.718  0.00  0.00    -0.166 F 
ENDBRANCH   5   2
TORSDOF 4
ENDMDL
MODEL 2
REMARK VINA RESULT:     -13.3      3.208      5.631
REMARK  Name = 
REMARK  4 active torsions:
REMARK  status: ('A' for Active; 'I' for Inactive)
REMARK    1  A    between atoms: C_2  and  C_5
REMARK    2  A    between atoms: C_12  and  C_14
REMARK    3  A    between atoms: N_17  and  C_18
REMARK    4  A    between atoms: C_18  and  C_19
REMARK                            x       y       z     vdW  Elec       q    Type
REMARK                         _______ _______ _______ _____ _____    ______ ____
ROOT
ATOM      5  C   UNL     1      -3.682  -2.172  24.500  0.00  0.00    +0.073 A 
ATOM      6  C   UNL     1      -3.983  -1.519  24.097  0.00  0.00    +0.025 A 
ATOM      7  C   UNL     1      -4.042  -0.790  24.478  0.00  0.00    +0.100 A 
ATOM      8  C   UNL     1      -3.801  -0.714  25.263  0.00  0.00    +0.100 A 
ATOM      9  C   UNL     1      -3.500  -1.368  25.668  0.00  0.00    +0.021 A 
ATOM     10  C   UNL     1      -3.440  -2.097  25.286  0.00  0.00    +0.005 A 
ATOM     11  N   UNL     1      -3.924   0.068  25.494  0.00  0.00    -0.229 NA
ATOM     12  C   UNL     1      -4.242   0.476  24.852  0.00  0.00    +0.140 A 
ATOM     13  N   UNL     1      -4.315  -0.054  24.224  0.00  0.00    -0.229 NA
ENDROOT
BRANCH  12  14
ATOM     14  C   UNL     1      -4.450   1.274  24.839  0.00  0.00    +0.076 C 
ATOM     15  C   UNL     1      -5.189   1.586  25.032  0.00  0.00    +0.026 C 
ATOM     16  C   UNL     1      -5.152   2.405  24.944  0.00  0.00    +0.073 C 
ATOM     17  N   UNL     1      -4.390   2.600  24.695  0.00  0.00    -0.269 NA
ATOM     25  C   UNL     1      -3.956   1.901  24.631  0.00  0.00    +0.080 C 
BRANCH  17  18
ATOM     18  C   UNL     1      -4.110   3.360  24.539  0.00  0.00    +0.099 C 
BRANCH  18  19
ATOM     19  C   UNL     1      -3.483   3.668  24.979  0.00  0.00    -0.006 A 
ATOM     20  C   UNL     1      -2.725   3.698  24.652  0.00  0.00    -0.003 A 
ATOM     21  C   UNL     1      -2.100   4.006  25.092  0.00  0.00    -0.000 A 
ATOM     22  C   UNL     1      -2.230   4.284  25.858  0.00  0.00    -0.000 A 
ATOM     23  C   UNL     1      -2.987   4.254  26.184  0.00  0.00    -0.000 A 
ATOM     24  C   UNL     1      -3.614   3.946  25.745  0.00  0.00    -0.003 A 
ENDBRANCH  18  19
ENDBRANCH  17  18
ENDBRANCH  12  14
BRANCH   5   2
ATOM      1  F   UNL     1      -3.563  -3.630  23.737  0.00  0.00    -0.166 F 
ATOM      2  C   UNL     1      -3.622  -2.901  24.119  0.00  0.00    +0.419 C 
ATOM      3  F   UNL     1      -2.801  -2.872  24.191  0.00  0.00    -0.166 F 
ATOM      4  F   UNL     1      -4.444  -2.930  24.046  0.00  0.00    -0.166 F 
ENDBRANCH   5   2
TORSDOF 4
ENDMDL
MODEL 3
REMARK VINA RESULT:     -13.3      3.075      5.764
REMARK  Name = 
REMARK  4 active torsions:
REMARK  status: ('A' for Active; 'I' for Inactive)
REMARK    1  A    between atoms: C_2  and  C_5
REMARK    2  A    between atoms: C_12  and  C_14
REMARK    3  A    between atoms: N_17  and  C_18
REMARK    4  A    between atoms: C_18  and  C_19
REMARK                            x       y       z     vdW  Elec       q    Type
REMARK                         _______ _______ _______ _____ _____    ______ ____
ROOT
ATOM      5  C   UNL     1      -3.498  -1.912  24.556  0.00  0.00    +0.073 A 
ATOM      6  C   UNL     1      -2.754  -1.605  24.733  0.00  0.00    +0.025 A 
ATOM      7  C   UNL     1      -2.609  -0.797  24.650  0.00  0.00    +0.100 A 
ATOM      8  C   UNL     1      -3.210  -0.296  24.389  0.00  0.00    +0.100 A 
ATOM      9  C   UNL     1      -3.956  -0.603  24.212  0.00  0.00    +0.021 A 
ATOM     10  C   UNL     1      -4.099  -1.411  24.295  0.00  0.00    +0.005 A 
ATOM     11  N   UNL     1      -2.908   0.471  24.361  0.00  0.00    -0.229 NA
ATOM     12  C   UNL     1      -2.121   0.444  24.603  0.00  0.00    +0.140 A 
ATOM     13  N   UNL     1      -1.936  -0.340  24.782  0.00  0.00    -0.229 NA
ENDROOT
BRANCH  12  14
ATOM     14  C   UNL     1      -1.607   1.087  24.658  0.00  0.00    +0.076 C 
ATOM     15  C   UNL     1      -1.048   1.310  24.095  0.00  0.00    +0.026 C 
ATOM     16  C   UNL     1      -0.658   1.982  24.373  0.00  0.00    +0.073 C 
ATOM     17  N   UNL     1      -0.977   2.174  25.109  0.00  0.00    -0.269 NA
ATOM     25  C   UNL     1      -1.564   1.621  25.285  0.00  0.00    +0.080 C 
BRANCH  17  18
ATOM     18  C   UNL     1      -0.750   2.808  25.585  0.00  0.00    +0.099 C 
BRANCH  18  19
ATOM     19  C   UNL     1      -1.068   3.558  25.455  0.00  0.00    -0.006 A 
ATOM     20  C   UNL     1      -1.807   3.753  25.769  0.00  0.00    -0.003 A 
ATOM     21  C   UNL     1      -2.124   4.503  25.638  0.00  0.00    -0.000 A 
ATOM     22  C   UNL     1      -1.705   5.058  25.195  0.00  0.00    -0.000 A 
ATOM     23  C   UNL     1      -0.967   4.863  24.881  0.00  0.00    -0.000 A 
ATOM     24  C   UNL     1      -0.648   4.113  25.011  0.00  0.00    -0.003 A 
ENDBRANCH  18  19
ENDBRANCH  17  18
ENDBRANCH  12  14
BRANCH   5   2
ATOM      1  F   UNL     1      -3.786  -3.528  24.722  0.00  0.00    -0.166 F 
ATOM      2  C   UNL     1      -3.642  -2.719  24.639  0.00  0.00    +0.419 C 
ATOM      3  F   UNL     1      -3.668  -2.631  25.459  0.00  0.00    -0.166 F 
ATOM      4  F   UNL     1      -3.617  -2.809  23.819  0.00  0.00    -0.166 F 
ENDBRANCH   5   2
TORSDOF 4
ENDMDL
