REMARK  Name = 
REMARK  6 active torsions:
REMARK  status: ('A' for Active; 'I' for Inactive)
REMARK    1  A    between atoms: O_2  and  C_3
REMARK    2  A    between atoms: C_5  and  N_6
REMARK    3  A    between atoms: N_9  and  C_10
REMARK    4  A    between atoms: C_10  and  C_11
REMARK    5  A    between atoms: C_13  and  C_14
REMARK    6  A    between atoms: C_18  and  N_19
REMARK                            x       y       z     vdW  Elec       q    Type
REMARK                         _______ _______ _______ _____ _____    ______ ____
ROOT
ATOM     11  C   UNL     1       5.708  -1.352   0.000  0.00  0.00    +0.154 C 
ATOM     12  O   UNL     1       5.794  -0.532   0.000  0.00  0.00    -0.350 OA
ATOM     13  C   UNL     1       6.601  -0.360   0.000  0.00  0.00    +0.180 C 
ATOM     16  C   UNL     1       7.013  -1.075   0.000  0.00  0.00    +0.198 C 
ATOM     17  O   UNL     1       7.834  -1.161   0.000  0.00  0.00    -0.219 OA
ATOM     18  C   UNL     1       6.461  -1.688   0.000  0.00  0.00    +0.120 C 
ENDROOT
BRANCH  18  19
ATOM     19  N   UNL     1       6.633  -2.495   0.000  0.00  0.00    -0.267 NA
ATOM     20  C   UNL     1       7.418  -2.749   0.000  0.00  0.00    +0.090 C 
ATOM     21  C   UNL     1       7.589  -3.557   0.000  0.00  0.00    +0.090 C 
ATOM     22  N   UNL     1       6.976  -4.109   0.000  0.00  0.00    -0.269 NA
ATOM     23  C   UNL     1       7.147  -4.915   0.000  0.00  0.00    +0.090 C 
ATOM     24  C   UNL     1       6.191  -3.854   0.000  0.00  0.00    +0.090 C 
ATOM     25  C   UNL     1       6.020  -3.047   0.000  0.00  0.00    +0.090 C 
ENDBRANCH  18  19
BRANCH  13  14
ATOM     14  C   UNL     1       6.936   0.394   0.000  0.00  0.00    +0.214 C 
ATOM     15  O   UNL     1       7.757   0.480   0.000  0.00  0.00    -0.218 OA
ENDBRANCH  13  14
BRANCH  11  10
ATOM     10  C   UNL     1       4.993  -1.765   0.000  0.00  0.00    +0.148 C 
BRANCH  10   9
ATOM      6  N   UNL     1       2.850  -1.352   0.000  0.00  0.00    -0.161 NA
ATOM      7  C   UNL     1       3.564  -1.765   0.000  0.00  0.00    +0.344 C 
ATOM      8  O   UNL     1       3.564  -2.590   0.000  0.00  0.00    -0.249 OA
ATOM      9  N   UNL     1       4.279  -1.352   0.000  0.00  0.00    -0.184 NA
BRANCH   6   5
ATOM      3  C   UNL     1       0.706  -1.765   0.000  0.00  0.00    +0.140 A 
ATOM      4  C   UNL     1       1.421  -1.352   0.000  0.00  0.00    +0.054 A 
ATOM      5  C   UNL     1       2.135  -1.765   0.000  0.00  0.00    +0.078 A 
ATOM     26  C   UNL     1       2.135  -2.590   0.000  0.00  0.00    +0.017 A 
ATOM     27  C   UNL     1       1.421  -3.002   0.000  0.00  0.00    +0.004 A 
ATOM     28  C   UNL     1       0.706  -2.590   0.000  0.00  0.00    +0.037 A 
BRANCH   3   2
ATOM      1  C   UNL     1      -0.723  -1.765   0.000  0.00  0.00    +0.252 C 
ATOM      2  O   UNL     1      -0.008  -1.352   0.000  0.00  0.00    -0.471 OA
ENDBRANCH   3   2
ENDBRANCH   6   5
ENDBRANCH  10   9
ENDBRANCH  11  10
TORSDOF 6
