MODEL 1
REMARK VINA RESULT:      -8.8      0.000      0.000
REMARK  Name = 
REMARK  5 active torsions:
REMARK  status: ('A' for Active; 'I' for Inactive)
REMARK    1  A    between atoms: N_2  and  C_4
REMARK    2  A    between atoms: C_7  and  C_10
REMARK    3  A    between atoms: N_15  and  C_16
REMARK    4  A    between atoms: C_20  and  N_24
REMARK    5  A    between atoms: C_25  and  C_27
REMARK                            x       y       z     vdW  Elec       q    Type
REMARK                         _______ _______ _______ _____ _____    ______ ____
ROOT
ATOM     10  C   UNL     1      -2.982   2.460  24.811  0.00  0.00    +0.086 A 
ATOM     11  C   UNL     1      -2.695   3.222  24.679  0.00  0.00    +0.040 A 
ATOM     12  C   UNL     1      -1.891   3.340  24.531  0.00  0.00    +0.103 A 
ATOM     13  N   UNL     1      -1.376   2.696  24.514  0.00  0.00    -0.211 NA
ATOM     14  C   UNL     1      -1.664   1.933  24.646  0.00  0.00    +0.237 A 
ATOM     15  N   UNL     1      -1.148   1.290  24.630  0.00  0.00    -0.200 NA
ATOM     32  N   UNL     1      -2.467   1.816  24.794  0.00  0.00    -0.212 NA
ENDROOT
BRANCH  15  16
ATOM     16  C   UNL     1      -0.345   1.408  24.481  0.00  0.00    +0.154 C 
ATOM     17  C   UNL     1       0.127   1.998  24.811  0.00  0.00    +0.166 C 
ATOM     18  O   UNL     1       0.890   1.911  24.511  0.00  0.00    -0.350 OA
ATOM     19  C   UNL     1       0.890   1.267  23.996  0.00  0.00    +0.166 C 
ATOM     20  C   UNL     1       1.361   0.815  23.491  0.00  0.00    +0.155 C 
ATOM     21  C   UNL     1       0.889   0.225  23.161  0.00  0.00    +0.166 C 
ATOM     22  O   UNL     1       0.126   0.312  23.462  0.00  0.00    -0.350 OA
ATOM     23  C   UNL     1       0.126   0.956  23.978  0.00  0.00    +0.166 C 
BRANCH  20  24
ATOM     24  N   UNL     1       2.164   0.933  23.343  0.00  0.00    -0.196 NA
ATOM     25  C   UNL     1       2.607   0.341  22.977  0.00  0.00    +0.300 C 
ATOM     26  O   UNL     1       2.248  -0.368  22.758  0.00  0.00    -0.265 OA
BRANCH  25  27
ATOM     27  C   UNL     1       3.411   0.459  22.828  0.00  0.00    +0.200 A 
ATOM     28  C   UNL     1       4.034   0.209  23.307  0.00  0.00    +0.046 A 
ATOM     29  C   UNL     1       4.740   0.444  22.950  0.00  0.00    +0.044 A 
ATOM     30  C   UNL     1       4.553   0.838  22.251  0.00  0.00    +0.180 A 
ATOM     31  O   UNL     1       3.731   0.848  22.176  0.00  0.00    -0.446 OA
ENDBRANCH  25  27
ENDBRANCH  20  24
ENDBRANCH  15  16
BRANCH  10   7
ATOM      4  C   UNL     1      -5.392   2.107  25.256  0.00  0.00    +0.048 A 
ATOM      5  C   UNL     1      -4.948   1.515  24.890  0.00  0.00    +0.015 A 
ATOM      6  C   UNL     1      -4.145   1.633  24.742  0.00  0.00    +0.003 A 
ATOM      7  C   UNL     1      -3.785   2.342  24.959  0.00  0.00    +0.018 A 
ATOM      8  C   UNL     1      -4.227   2.934  25.325  0.00  0.00    +0.003 A 
ATOM      9  C   UNL     1      -5.031   2.817  25.474  0.00  0.00    +0.015 A 
BRANCH   4   2
ATOM      1  C   UNL     1      -6.719   1.888  24.776  0.00  0.00    +0.112 C 
ATOM      2  N   UNL     1      -6.194   1.990  25.404  0.00  0.00    -0.304 N 
ATOM      3  C   UNL     1      -6.473   1.974  26.181  0.00  0.00    +0.112 C 
ENDBRANCH   4   2
ENDBRANCH  10   7
TORSDOF 5
ENDMDL
MODEL 2
REMARK VINA RESULT:      -7.2      1.653      7.322
REMARK  Name = 
REMARK  5 active torsions:
REMARK  status: ('A' for Active; 'I' for Inactive)
REMARK    1  A    between atoms: N_2  and  C_4
REMARK    2  A    between atoms: C_7  and  C_10
REMARK    3  A    between atoms: N_15  and  C_16
REMARK    4  A    between atoms: C_20  and  N_24
REMARK    5  A    between atoms: C_25  and  C_27
REMARK                            x       y       z     vdW  Elec       q    Type
REMARK                         _______ _______ _______ _____ _____    ______ ____
ROOT
ATOM     10  C   UNL     1       2.034   0.218  23.049  0.00  0.00    +0.086 A 
ATOM     11  C   UNL     1       1.628  -0.180  22.451  0.00  0.00    +0.040 A 
ATOM     12  C   UNL     1       0.802  -0.171  22.437  0.00  0.00    +0.103 A 
ATOM     13  N   UNL     1       0.383   0.235  23.020  0.00  0.00    -0.211 NA
ATOM     14  C   UNL     1       0.790   0.633  23.618  0.00  0.00    +0.237 A 
ATOM     15  N   UNL     1       0.371   1.040  24.201  0.00  0.00    -0.200 NA
ATOM     32  N   UNL     1       1.615   0.625  23.632  0.00  0.00    -0.212 NA
ENDROOT
BRANCH  15  16
ATOM     16  C   UNL     1      -0.454   1.048  24.187  0.00  0.00    +0.154 C 
ATOM     17  C   UNL     1      -0.942   0.408  24.007  0.00  0.00    +0.166 C 
ATOM     18  O   UNL     1      -1.725   0.662  24.059  0.00  0.00    -0.350 OA
ATOM     19  C   UNL     1      -1.721   1.459  24.270  0.00  0.00    +0.166 C 
ATOM     20  C   UNL     1      -2.202   2.109  24.433  0.00  0.00    +0.155 C 
ATOM     21  C   UNL     1      -1.714   2.749  24.613  0.00  0.00    +0.166 C 
ATOM     22  O   UNL     1      -0.931   2.495  24.561  0.00  0.00    -0.350 OA
ATOM     23  C   UNL     1      -0.935   1.697  24.349  0.00  0.00    +0.166 C 
BRANCH  20  24
ATOM     24  N   UNL     1      -3.027   2.118  24.419  0.00  0.00    -0.196 NA
ATOM     25  C   UNL     1      -3.445   2.541  24.990  0.00  0.00    +0.300 C 
ATOM     26  O   UNL     1      -3.039   2.956  25.576  0.00  0.00    -0.265 OA
BRANCH  25  27
ATOM     27  C   UNL     1      -4.270   2.549  24.976  0.00  0.00    +0.200 A 
ATOM     28  C   UNL     1      -4.759   3.010  25.454  0.00  0.00    +0.046 A 
ATOM     29  C   UNL     1      -5.542   2.844  25.255  0.00  0.00    +0.044 A 
ATOM     30  C   UNL     1      -5.537   2.280  24.653  0.00  0.00    +0.180 A 
ATOM     31  O   UNL     1      -4.751   2.098  24.481  0.00  0.00    -0.446 OA
ENDBRANCH  25  27
ENDBRANCH  20  24
ENDBRANCH  15  16
BRANCH  10   7
ATOM      4  C   UNL     1       4.508   0.194  23.091  0.00  0.00    +0.048 A 
ATOM      5  C   UNL     1       4.084  -0.455  23.374  0.00  0.00    +0.015 A 
ATOM      6  C   UNL     1       3.259  -0.447  23.360  0.00  0.00    +0.003 A 
ATOM      7  C   UNL     1       2.858   0.210  23.063  0.00  0.00    +0.018 A 
ATOM      8  C   UNL     1       3.282   0.859  22.780  0.00  0.00    +0.003 A 
ATOM      9  C   UNL     1       4.107   0.851  22.794  0.00  0.00    +0.015 A 
BRANCH   4   2
ATOM      1  C   UNL     1       5.737   0.498  23.752  0.00  0.00    +0.112 C 
ATOM      2  N   UNL     1       5.333   0.185  23.105  0.00  0.00    -0.304 N 
ATOM      3  C   UNL     1       5.753  -0.136  22.472  0.00  0.00    +0.112 C 
ENDBRANCH   4   2
ENDBRANCH  10   7
TORSDOF 5
ENDMDL
MODEL 3
REMARK VINA RESULT:      -7.1     15.351     16.200
REMARK  Name = 
REMARK  5 active torsions:
REMARK  status: ('A' for Active; 'I' for Inactive)
REMARK    1  A    between atoms: N_2  and  C_4
REMARK    2  A    between atoms: C_7  and  C_10
REMARK    3  A    between atoms: N_15  and  C_16
REMARK    4  A    between atoms: C_20  and  N_24
REMARK    5  A    between atoms: C_25  and  C_27
REMARK                            x       y       z     vdW  Elec       q    Type
REMARK                         _______ _______ _______ _____ _____    ______ ____
ROOT
ATOM     10  C   UNL     1      -7.459  -9.921  16.686  0.00  0.00    +0.086 A 
ATOM     11  C   UNL     1      -6.717  -9.683  16.956  0.00  0.00    +0.040 A 
ATOM     12  C   UNL     1      -6.078  -9.654  16.433  0.00  0.00    +0.103 A 
ATOM     13  N   UNL     1      -6.182  -9.862  15.642  0.00  0.00    -0.211 NA
ATOM     14  C   UNL     1      -6.926 -10.100  15.373  0.00  0.00    +0.237 A 
ATOM     15  N   UNL     1      -7.030 -10.309  14.581  0.00  0.00    -0.200 NA
ATOM     32  N   UNL     1      -7.563 -10.130  15.895  0.00  0.00    -0.212 NA
ENDROOT
BRANCH  15  16
ATOM     16  C   UNL     1      -6.391 -10.279  14.059  0.00  0.00    +0.154 C 
ATOM     17  C   UNL     1      -5.640 -10.591  14.194  0.00  0.00    +0.166 C 
ATOM     18  O   UNL     1      -5.177 -10.438  13.529  0.00  0.00    -0.350 OA
ATOM     19  C   UNL     1      -5.642 -10.031  12.983  0.00  0.00    +0.166 C 
ATOM     20  C   UNL     1      -5.644  -9.684  12.235  0.00  0.00    +0.155 C 
ATOM     21  C   UNL     1      -6.396  -9.372  12.100  0.00  0.00    +0.166 C 
ATOM     22  O   UNL     1      -6.858  -9.525  12.765  0.00  0.00    -0.350 OA
ATOM     23  C   UNL     1      -6.393  -9.933  13.311  0.00  0.00    +0.166 C 
BRANCH  20  24
ATOM     24  N   UNL     1      -5.006  -9.654  11.713  0.00  0.00    -0.196 NA
ATOM     25  C   UNL     1      -4.992  -9.091  11.110  0.00  0.00    +0.300 C 
ATOM     26  O   UNL     1      -5.615  -8.558  11.028  0.00  0.00    -0.265 OA
BRANCH  25  27
ATOM     27  C   UNL     1      -4.353  -9.062  10.587  0.00  0.00    +0.200 A 
ATOM     28  C   UNL     1      -4.385  -8.835   9.795  0.00  0.00    +0.046 A 
ATOM     29  C   UNL     1      -3.623  -8.887   9.484  0.00  0.00    +0.044 A 
ATOM     30  C   UNL     1      -3.120  -9.146  10.084  0.00  0.00    +0.180 A 
ATOM     31  O   UNL     1      -3.572  -9.254  10.766  0.00  0.00    -0.446 OA
ENDBRANCH  25  27
ENDBRANCH  20  24
ENDBRANCH  15  16
BRANCH  10   7
ATOM      4  C   UNL     1      -9.373 -10.009  18.253  0.00  0.00    +0.048 A 
ATOM      5  C   UNL     1      -9.209  -9.313  17.841  0.00  0.00    +0.015 A 
ATOM      6  C   UNL     1      -8.571  -9.284  17.319  0.00  0.00    +0.003 A 
ATOM      7  C   UNL     1      -8.097  -9.950  17.208  0.00  0.00    +0.018 A 
ATOM      8  C   UNL     1      -8.261 -10.646  17.620  0.00  0.00    +0.003 A 
ATOM      9  C   UNL     1      -8.899 -10.676  18.143  0.00  0.00    +0.015 A 
BRANCH   4   2
ATOM      1  C   UNL     1     -10.720  -9.664  18.582  0.00  0.00    +0.112 C 
ATOM      2  N   UNL     1     -10.011 -10.039  18.775  0.00  0.00    -0.304 N 
ATOM      3  C   UNL     1      -9.940 -10.443  19.491  0.00  0.00    +0.112 C 
ENDBRANCH   4   2
ENDBRANCH  10   7
TORSDOF 5
ENDMDL
MODEL 4
REMARK VINA RESULT:      -7.0     15.472     16.411
REMARK  Name = 
REMARK  5 active torsions:
REMARK  status: ('A' for Active; 'I' for Inactive)
REMARK    1  A    between atoms: N_2  and  C_4
REMARK    2  A    between atoms: C_7  and  C_10
REMARK    3  A    between atoms: N_15  and  C_16
REMARK    4  A    between atoms: C_20  and  N_24
REMARK    5  A    between atoms: C_25  and  C_27
REMARK                            x       y       z     vdW  Elec       q    Type
REMARK                         _______ _______ _______ _____ _____    ______ ____
ROOT
ATOM     10  C   UNL     1      -5.173 -10.603  16.595  0.00  0.00    +0.086 A 
ATOM     11  C   UNL     1      -4.351 -10.607  16.525  0.00  0.00    +0.040 A 
ATOM     12  C   UNL     1      -4.000 -10.568  15.779  0.00  0.00    +0.103 A 
ATOM     13  N   UNL     1      -4.471 -10.524  15.103  0.00  0.00    -0.211 NA
ATOM     14  C   UNL     1      -5.294 -10.519  15.174  0.00  0.00    +0.237 A 
ATOM     15  N   UNL     1      -5.765 -10.475  14.498  0.00  0.00    -0.200 NA
ATOM     32  N   UNL     1      -5.644 -10.559  15.919  0.00  0.00    -0.212 NA
ENDROOT
BRANCH  15  16
ATOM     16  C   UNL     1      -5.414 -10.435  13.752  0.00  0.00    +0.154 C 
ATOM     17  C   UNL     1      -4.693 -10.772  13.537  0.00  0.00    +0.166 C 
ATOM     18  O   UNL     1      -4.557 -10.597  12.743  0.00  0.00    -0.350 OA
ATOM     19  C   UNL     1      -5.193 -10.152  12.466  0.00  0.00    +0.166 C 
ATOM     20  C   UNL     1      -5.504  -9.768  11.805  0.00  0.00    +0.155 C 
ATOM     21  C   UNL     1      -6.225  -9.431  12.020  0.00  0.00    +0.166 C 
ATOM     22  O   UNL     1      -6.361  -9.607  12.814  0.00  0.00    -0.350 OA
ATOM     23  C   UNL     1      -5.724 -10.052  13.090  0.00  0.00    +0.166 C 
BRANCH  20  24
ATOM     24  N   UNL     1      -5.153  -9.729  11.059  0.00  0.00    -0.196 NA
ATOM     25  C   UNL     1      -5.132  -9.012  10.651  0.00  0.00    +0.300 C 
ATOM     26  O   UNL     1      -5.462  -8.335  10.987  0.00  0.00    -0.265 OA
BRANCH  25  27
ATOM     27  C   UNL     1      -4.782  -8.973   9.904  0.00  0.00    +0.200 A 
ATOM     28  C   UNL     1      -3.977  -8.875   9.752  0.00  0.00    +0.046 A 
ATOM     29  C   UNL     1      -3.872  -8.866   8.933  0.00  0.00    +0.044 A 
ATOM     30  C   UNL     1      -4.612  -8.958   8.581  0.00  0.00    +0.180 A 
ATOM     31  O   UNL     1      -5.174  -9.024   9.181  0.00  0.00    -0.446 OA
ENDBRANCH  25  27
ENDBRANCH  20  24
ENDBRANCH  15  16
BRANCH  10   7
ATOM      4  C   UNL     1      -6.223 -10.721  18.833  0.00  0.00    +0.048 A 
ATOM      5  C   UNL     1      -6.691 -10.768  18.154  0.00  0.00    +0.015 A 
ATOM      6  C   UNL     1      -6.341 -10.728  17.409  0.00  0.00    +0.003 A 
ATOM      7  C   UNL     1      -5.523 -10.642  17.340  0.00  0.00    +0.018 A 
ATOM      8  C   UNL     1      -5.055 -10.596  18.018  0.00  0.00    +0.003 A 
ATOM      9  C   UNL     1      -5.406 -10.636  18.765  0.00  0.00    +0.015 A 
BRANCH   4   2
ATOM      1  C   UNL     1      -7.395 -10.781  19.647  0.00  0.00    +0.112 C 
ATOM      2  N   UNL     1      -6.573 -10.761  19.578  0.00  0.00    -0.304 N 
ATOM      3  C   UNL     1      -6.102 -10.780  20.256  0.00  0.00    +0.112 C 
ENDBRANCH   4   2
ENDBRANCH  10   7
TORSDOF 5
ENDMDL
