MODEL 1
REMARK VINA RESULT:     -13.8      0.000      0.000
REMARK  Name = 
REMARK  5 active torsions:
REMARK  status: ('A' for Active; 'I' for Inactive)
REMARK    1  A    between atoms: C_2  and  C_5
REMARK    2  A    between atoms: C_14  and  C_16
REMARK    3  A    between atoms: C_24  and  C_25
REMARK    4  A    between atoms: C_25  and  C_26
REMARK    5  A    between atoms: N_28  and  C_29
REMARK                            x       y       z     vdW  Elec       q    Type
REMARK                         _______ _______ _______ _____ _____    ______ ____
ROOT
ATOM      5  C   UNL     1      -3.739  -1.578  24.514  0.00  0.00    +0.246 C 
ATOM      6  O   UNL     1      -4.511  -1.353  24.698  0.00  0.00    -0.273 OA
ATOM      7  N   UNL     1      -3.146  -1.008  24.460  0.00  0.00    -0.154 NA
ATOM      8  C   UNL     1      -3.324  -0.213  24.590  0.00  0.00    +0.185 A 
ATOM      9  N   UNL     1      -2.790   0.415  24.555  0.00  0.00    -0.227 NA
ATOM     10  C   UNL     1      -3.203   1.110  24.721  0.00  0.00    +0.063 A 
ATOM     11  C   UNL     1      -3.992   0.911  24.859  0.00  0.00    +0.023 A 
ATOM     12  C   UNL     1      -4.540   1.500  25.040  0.00  0.00    +0.034 C 
ATOM     13  C   UNL     1      -4.300   2.288  25.084  0.00  0.00    +0.010 C 
ATOM     14  C   UNL     1      -4.848   2.876  25.265  0.00  0.00    +0.059 C 
ATOM     15  C   UNL     1      -5.338   2.213  25.287  0.00  0.00    +0.005 C 
ATOM     18  C   UNL     1      -4.609   3.665  25.309  0.00  0.00    +0.154 C 
ATOM     19  O   UNL     1      -5.157   4.254  25.491  0.00  0.00    -0.223 OA
ATOM     20  C   UNL     1      -3.820   3.864  25.171  0.00  0.00    +0.033 C 
ATOM     21  C   UNL     1      -3.271   3.275  24.990  0.00  0.00    +0.003 C 
ATOM     22  C   UNL     1      -3.511   2.487  24.946  0.00  0.00    +0.006 C 
ATOM     23  C   UNL     1      -2.723   2.686  24.808  0.00  0.00    +0.000 C 
ATOM     24  C   UNL     1      -2.962   1.898  24.765  0.00  0.00    +0.050 C 
ATOM     32  S   UNL     1      -4.066   0.093  24.777  0.00  0.00    -0.054 S 
ENDROOT
BRANCH   5   2
ATOM      1  C   UNL     1      -3.383  -3.168  24.254  0.00  0.00    +0.009 C 
ATOM      2  C   UNL     1      -3.561  -2.373  24.384  0.00  0.00    +0.071 C 
ATOM      3  C   UNL     1      -4.146  -2.409  23.803  0.00  0.00    +0.009 C 
ATOM      4  C   UNL     1      -2.976  -2.337  24.964  0.00  0.00    +0.009 C 
ENDBRANCH   5   2
BRANCH  14  16
ATOM     16  C   UNL     1      -5.567   3.235  25.454  0.00  0.00    +0.184 C 
ATOM     17  O   UNL     1      -6.226   2.772  25.632  0.00  0.00    -0.220 OA
ENDBRANCH  14  16
BRANCH  24  25
ATOM     25  C   UNL     1      -2.175   2.097  24.627  0.00  0.00    +0.093 C 
BRANCH  25  26
ATOM     26  C   UNL     1      -1.900   2.185  23.853  0.00  0.00    +0.242 C 
ATOM     27  O   UNL     1      -2.437   2.243  23.230  0.00  0.00    -0.273 OA
ATOM     28  N   UNL     1      -1.089   2.214  23.704  0.00  0.00    -0.207 NA
BRANCH  28  29
ATOM     29  C   UNL     1      -0.553   2.156  24.329  0.00  0.00    +0.095 C 
ATOM     30  C   UNL     1      -0.116   2.512  24.932  0.00  0.00    +0.023 C 
ATOM     31  C   UNL     1      -0.062   1.697  24.808  0.00  0.00    +0.023 C 
ENDBRANCH  28  29
ENDBRANCH  25  26
ENDBRANCH  24  25
TORSDOF 5
ENDMDL
MODEL 2
REMARK VINA RESULT:     -13.6      1.339      3.094
REMARK  Name = 
REMARK  5 active torsions:
REMARK  status: ('A' for Active; 'I' for Inactive)
REMARK    1  A    between atoms: C_2  and  C_5
REMARK    2  A    between atoms: C_14  and  C_16
REMARK    3  A    between atoms: C_24  and  C_25
REMARK    4  A    between atoms: C_25  and  C_26
REMARK    5  A    between atoms: N_28  and  C_29
REMARK                            x       y       z     vdW  Elec       q    Type
REMARK                         _______ _______ _______ _____ _____    ______ ____
ROOT
ATOM      5  C   UNL     1      -3.187  -1.475  24.493  0.00  0.00    +0.246 C 
ATOM      6  O   UNL     1      -2.364  -1.465  24.540  0.00  0.00    -0.273 OA
ATOM      7  N   UNL     1      -3.612  -0.772  24.572  0.00  0.00    -0.154 NA
ATOM      8  C   UNL     1      -3.213  -0.061  24.698  0.00  0.00    +0.185 A 
ATOM      9  N   UNL     1      -3.563   0.681  24.787  0.00  0.00    -0.227 NA
ATOM     10  C   UNL     1      -2.961   1.234  24.902  0.00  0.00    +0.063 A 
ATOM     11  C   UNL     1      -2.241   0.833  24.884  0.00  0.00    +0.023 A 
ATOM     12  C   UNL     1      -1.535   1.250  24.985  0.00  0.00    +0.034 C 
ATOM     13  C   UNL     1      -1.550   2.065  25.104  0.00  0.00    +0.010 C 
ATOM     14  C   UNL     1      -0.845   2.481  25.204  0.00  0.00    +0.059 C 
ATOM     15  C   UNL     1      -0.549   1.717  25.109  0.00  0.00    +0.005 C 
ATOM     18  C   UNL     1      -0.860   3.297  25.323  0.00  0.00    +0.154 C 
ATOM     19  O   UNL     1      -0.155   3.713  25.424  0.00  0.00    -0.223 OA
ATOM     20  C   UNL     1      -1.581   3.698  25.341  0.00  0.00    +0.033 C 
ATOM     21  C   UNL     1      -2.287   3.282  25.240  0.00  0.00    +0.003 C 
ATOM     22  C   UNL     1      -2.271   2.466  25.122  0.00  0.00    +0.006 C 
ATOM     23  C   UNL     1      -2.992   2.867  25.140  0.00  0.00    +0.000 C 
ATOM     24  C   UNL     1      -2.977   2.051  25.021  0.00  0.00    +0.050 C 
ATOM     32  S   UNL     1      -2.397   0.033  24.758  0.00  0.00    -0.054 S 
ENDROOT
BRANCH   5   2
ATOM      1  C   UNL     1      -3.984  -2.897  24.239  0.00  0.00    +0.009 C 
ATOM      2  C   UNL     1      -3.586  -2.186  24.366  0.00  0.00    +0.071 C 
ATOM      3  C   UNL     1      -3.991  -1.846  23.733  0.00  0.00    +0.009 C 
ATOM      4  C   UNL     1      -3.181  -2.525  25.000  0.00  0.00    +0.009 C 
ENDBRANCH   5   2
BRANCH  14  16
ATOM     16  C   UNL     1      -0.037   2.631  25.272  0.00  0.00    +0.184 C 
ATOM     17  O   UNL     1       0.507   2.021  25.168  0.00  0.00    -0.220 OA
ENDBRANCH  14  16
BRANCH  24  25
ATOM     25  C   UNL     1      -3.697   2.451  25.039  0.00  0.00    +0.093 C 
BRANCH  25  26
ATOM     26  C   UNL     1      -4.075   2.654  24.334  0.00  0.00    +0.242 C 
ATOM     27  O   UNL     1      -3.651   2.659  23.626  0.00  0.00    -0.273 OA
ATOM     28  N   UNL     1      -4.876   2.851  24.336  0.00  0.00    -0.207 NA
BRANCH  28  29
ATOM     29  C   UNL     1      -5.299   2.845  25.045  0.00  0.00    +0.095 C 
ATOM     30  C   UNL     1      -5.535   3.223  25.739  0.00  0.00    +0.023 C 
ATOM     31  C   UNL     1      -5.797   2.457  25.576  0.00  0.00    +0.023 C 
ENDBRANCH  28  29
ENDBRANCH  25  26
ENDBRANCH  24  25
TORSDOF 5
ENDMDL
MODEL 3
REMARK VINA RESULT:     -12.9      1.381      4.238
REMARK  Name = 
REMARK  5 active torsions:
REMARK  status: ('A' for Active; 'I' for Inactive)
REMARK    1  A    between atoms: C_2  and  C_5
REMARK    2  A    between atoms: C_14  and  C_16
REMARK    3  A    between atoms: C_24  and  C_25
REMARK    4  A    between atoms: C_25  and  C_26
REMARK    5  A    between atoms: N_28  and  C_29
REMARK                            x       y       z     vdW  Elec       q    Type
REMARK                         _______ _______ _______ _____ _____    ______ ____
ROOT
ATOM      5  C   UNL     1      -4.876   2.328  25.170  0.00  0.00    +0.246 C 
ATOM      6  O   UNL     1      -5.377   1.677  25.090  0.00  0.00    -0.273 OA
ATOM      7  N   UNL     1      -4.059   2.226  25.124  0.00  0.00    -0.154 NA
ATOM      8  C   UNL     1      -3.742   1.475  24.998  0.00  0.00    +0.185 A 
ATOM      9  N   UNL     1      -2.940   1.291  24.940  0.00  0.00    -0.227 NA
ATOM     10  C   UNL     1      -2.875   0.478  24.814  0.00  0.00    +0.063 A 
ATOM     11  C   UNL     1      -3.636   0.161  24.794  0.00  0.00    +0.023 A 
ATOM     12  C   UNL     1      -3.742  -0.649  24.675  0.00  0.00    +0.034 C 
ATOM     13  C   UNL     1      -3.088  -1.141  24.576  0.00  0.00    +0.010 C 
ATOM     14  C   UNL     1      -3.195  -1.950  24.457  0.00  0.00    +0.059 C 
ATOM     15  C   UNL     1      -3.981  -1.710  24.524  0.00  0.00    +0.005 C 
ATOM     18  C   UNL     1      -2.540  -2.443  24.358  0.00  0.00    +0.154 C 
ATOM     19  O   UNL     1      -2.646  -3.252  24.239  0.00  0.00    -0.223 OA
ATOM     20  C   UNL     1      -1.779  -2.126  24.377  0.00  0.00    +0.033 C 
ATOM     21  C   UNL     1      -1.672  -1.315  24.496  0.00  0.00    +0.003 C 
ATOM     22  C   UNL     1      -2.327  -0.824  24.595  0.00  0.00    +0.006 C 
ATOM     23  C   UNL     1      -1.566  -0.507  24.615  0.00  0.00    +0.000 C 
ATOM     24  C   UNL     1      -2.220  -0.015  24.714  0.00  0.00    +0.050 C 
ATOM     32  S   UNL     1      -4.172   0.777  24.908  0.00  0.00    -0.054 S 
ENDROOT
BRANCH   5   2
ATOM      1  C   UNL     1      -5.509   3.831  25.422  0.00  0.00    +0.009 C 
ATOM      2  C   UNL     1      -5.192   3.079  25.296  0.00  0.00    +0.071 C 
ATOM      3  C   UNL     1      -5.642   2.785  25.922  0.00  0.00    +0.009 C 
ATOM      4  C   UNL     1      -4.742   3.374  24.670  0.00  0.00    +0.009 C 
ENDBRANCH   5   2
BRANCH  14  16
ATOM     16  C   UNL     1      -3.574  -2.677  24.362  0.00  0.00    +0.184 C 
ATOM     17  O   UNL     1      -4.334  -2.707  24.043  0.00  0.00    -0.220 OA
ENDBRANCH  14  16
BRANCH  24  25
ATOM     25  C   UNL     1      -1.459   0.302  24.734  0.00  0.00    +0.093 C 
BRANCH  25  26
ATOM     26  C   UNL     1      -1.086   0.436  25.458  0.00  0.00    +0.242 C 
ATOM     27  O   UNL     1      -1.358   0.056  26.138  0.00  0.00    -0.273 OA
ATOM     28  N   UNL     1      -0.442   0.951  25.501  0.00  0.00    -0.207 NA
BRANCH  28  29
ATOM     29  C   UNL     1      -0.172   1.330  24.820  0.00  0.00    +0.095 C 
ATOM     30  C   UNL     1       0.272   1.321  24.125  0.00  0.00    +0.023 C 
ATOM     31  C   UNL     1      -0.148   1.999  24.337  0.00  0.00    +0.023 C 
ENDBRANCH  28  29
ENDBRANCH  25  26
ENDBRANCH  24  25
TORSDOF 5
ENDMDL
MODEL 4
REMARK VINA RESULT:     -12.9      1.750      4.917
REMARK  Name = 
REMARK  5 active torsions:
REMARK  status: ('A' for Active; 'I' for Inactive)
REMARK    1  A    between atoms: C_2  and  C_5
REMARK    2  A    between atoms: C_14  and  C_16
REMARK    3  A    between atoms: C_24  and  C_25
REMARK    4  A    between atoms: C_25  and  C_26
REMARK    5  A    between atoms: N_28  and  C_29
REMARK                            x       y       z     vdW  Elec       q    Type
REMARK                         _______ _______ _______ _____ _____    ______ ____
ROOT
ATOM      5  C   UNL     1      -1.255   3.653  24.938  0.00  0.00    +0.246 C 
ATOM      6  O   UNL     1      -0.671   3.074  24.880  0.00  0.00    -0.273 OA
ATOM      7  N   UNL     1      -2.048   3.433  24.999  0.00  0.00    -0.154 NA
ATOM      8  C   UNL     1      -2.256   2.634  25.000  0.00  0.00    +0.185 A 
ATOM      9  N   UNL     1      -3.022   2.334  25.057  0.00  0.00    -0.227 NA
ATOM     10  C   UNL     1      -2.974   1.510  25.038  0.00  0.00    +0.063 A 
ATOM     11  C   UNL     1      -2.178   1.303  24.969  0.00  0.00    +0.023 A 
ATOM     12  C   UNL     1      -1.961   0.507  24.936  0.00  0.00    +0.034 C 
ATOM     13  C   UNL     1      -2.538  -0.080  24.972  0.00  0.00    +0.010 C 
ATOM     14  C   UNL     1      -2.320  -0.875  24.939  0.00  0.00    +0.059 C 
ATOM     15  C   UNL     1      -1.577  -0.520  24.885  0.00  0.00    +0.005 C 
ATOM     18  C   UNL     1      -2.898  -1.463  24.975  0.00  0.00    +0.154 C 
ATOM     19  O   UNL     1      -2.680  -2.259  24.942  0.00  0.00    -0.223 OA
ATOM     20  C   UNL     1      -3.693  -1.256  25.044  0.00  0.00    +0.033 C 
ATOM     21  C   UNL     1      -3.911  -0.460  25.077  0.00  0.00    +0.003 C 
ATOM     22  C   UNL     1      -3.333   0.127  25.041  0.00  0.00    +0.006 C 
ATOM     23  C   UNL     1      -4.129   0.334  25.109  0.00  0.00    +0.000 C 
ATOM     24  C   UNL     1      -3.552   0.922  25.074  0.00  0.00    +0.050 C 
ATOM     32  S   UNL     1      -1.734   1.998  24.946  0.00  0.00    -0.054 S 
ENDROOT
BRANCH   5   2
ATOM      1  C   UNL     1      -0.840   5.250  24.935  0.00  0.00    +0.009 C 
ATOM      2  C   UNL     1      -1.048   4.452  24.936  0.00  0.00    +0.071 C 
ATOM      3  C   UNL     1      -0.383   4.278  24.479  0.00  0.00    +0.009 C 
ATOM      4  C   UNL     1      -1.712   4.625  25.393  0.00  0.00    +0.009 C 
ENDBRANCH   5   2
BRANCH  14  16
ATOM     16  C   UNL     1      -1.844  -1.547  24.888  0.00  0.00    +0.184 C 
ATOM     17  O   UNL     1      -1.024  -1.471  24.852  0.00  0.00    -0.220 OA
ENDBRANCH  14  16
BRANCH  24  25
ATOM     25  C   UNL     1      -4.346   1.128  25.142  0.00  0.00    +0.093 C 
BRANCH  25  26
ATOM     26  C   UNL     1      -4.767   1.377  24.477  0.00  0.00    +0.242 C 
ATOM     27  O   UNL     1      -4.481   1.209  23.722  0.00  0.00    -0.273 OA
ATOM     28  N   UNL     1      -5.474   1.794  24.568  0.00  0.00    -0.207 NA
BRANCH  28  29
ATOM     29  C   UNL     1      -5.759   1.961  25.323  0.00  0.00    +0.095 C 
ATOM     30  C   UNL     1      -6.194   1.740  25.989  0.00  0.00    +0.023 C 
ATOM     31  C   UNL     1      -5.818   2.475  25.967  0.00  0.00    +0.023 C 
ENDBRANCH  28  29
ENDBRANCH  25  26
ENDBRANCH  24  25
TORSDOF 5
ENDMDL
MODEL 5
REMARK VINA RESULT:     -12.6      1.191      3.621
REMARK  Name = 
REMARK  5 active torsions:
REMARK  status: ('A' for Active; 'I' for Inactive)
REMARK    1  A    between atoms: C_2  and  C_5
REMARK    2  A    between atoms: C_14  and  C_16
REMARK    3  A    between atoms: C_24  and  C_25
REMARK    4  A    between atoms: C_25  and  C_26
REMARK    5  A    between atoms: N_28  and  C_29
REMARK                            x       y       z     vdW  Elec       q    Type
REMARK                         _______ _______ _______ _____ _____    ______ ____
ROOT
ATOM      5  C   UNL     1      -0.249   1.076  23.915  0.00  0.00    +0.246 C 
ATOM      6  O   UNL     1      -0.501   1.859  23.986  0.00  0.00    -0.273 OA
ATOM      7  N   UNL     1      -0.785   0.460  24.030  0.00  0.00    -0.154 NA
ATOM      8  C   UNL     1      -1.571   0.625  24.216  0.00  0.00    +0.185 A 
ATOM      9  N   UNL     1      -2.165   0.067  24.346  0.00  0.00    -0.227 NA
ATOM     10  C   UNL     1      -2.863   0.474  24.515  0.00  0.00    +0.063 A 
ATOM     11  C   UNL     1      -2.699   1.282  24.489  0.00  0.00    +0.023 A 
ATOM     12  C   UNL     1      -3.299   1.829  24.638  0.00  0.00    +0.034 C 
ATOM     13  C   UNL     1      -4.062   1.568  24.811  0.00  0.00    +0.010 C 
ATOM     14  C   UNL     1      -4.661   2.115  24.960  0.00  0.00    +0.059 C 
ATOM     15  C   UNL     1      -4.030   2.628  24.821  0.00  0.00    +0.005 C 
ATOM     18  C   UNL     1      -5.424   1.854  25.134  0.00  0.00    +0.154 C 
ATOM     19  O   UNL     1      -6.024   2.401  25.282  0.00  0.00    -0.223 OA
ATOM     20  C   UNL     1      -5.588   1.046  25.159  0.00  0.00    +0.033 C 
ATOM     21  C   UNL     1      -4.988   0.498  25.011  0.00  0.00    +0.003 C 
ATOM     22  C   UNL     1      -4.226   0.760  24.837  0.00  0.00    +0.006 C 
ATOM     23  C   UNL     1      -4.389  -0.048  24.862  0.00  0.00    +0.000 C 
ATOM     24  C   UNL     1      -3.627   0.213  24.689  0.00  0.00    +0.050 C 
ATOM     32  S   UNL     1      -1.900   1.375  24.304  0.00  0.00    -0.054 S 
ENDROOT
BRANCH   5   2
ATOM      1  C   UNL     1       1.324   0.746  23.543  0.00  0.00    +0.009 C 
ATOM      2  C   UNL     1       0.537   0.911  23.729  0.00  0.00    +0.071 C 
ATOM      3  C   UNL     1       0.303   0.213  23.358  0.00  0.00    +0.009 C 
ATOM      4  C   UNL     1       0.772   1.610  24.100  0.00  0.00    +0.009 C 
ENDBRANCH   5   2
BRANCH  14  16
ATOM     16  C   UNL     1      -5.042   2.840  25.060  0.00  0.00    +0.184 C 
ATOM     17  O   UNL     1      -4.613   3.542  25.009  0.00  0.00    -0.220 OA
ENDBRANCH  14  16
BRANCH  24  25
ATOM     25  C   UNL     1      -3.790  -0.595  24.714  0.00  0.00    +0.093 C 
BRANCH  25  26
ATOM     26  C   UNL     1      -3.609  -1.031  25.391  0.00  0.00    +0.242 C 
ATOM     27  O   UNL     1      -3.464  -0.644  26.104  0.00  0.00    -0.273 OA
ATOM     28  N   UNL     1      -3.574  -1.855  25.354  0.00  0.00    -0.207 NA
BRANCH  28  29
ATOM     29  C   UNL     1      -3.720  -2.241  24.639  0.00  0.00    +0.095 C 
ATOM     30  C   UNL     1      -4.247  -2.484  24.052  0.00  0.00    +0.023 C 
ATOM     31  C   UNL     1      -3.444  -2.669  23.989  0.00  0.00    +0.023 C 
ENDBRANCH  28  29
ENDBRANCH  25  26
ENDBRANCH  24  25
TORSDOF 5
ENDMDL
MODEL 6
REMARK VINA RESULT:     -12.3      1.784      2.285
REMARK  Name = 
REMARK  5 active torsions:
REMARK  status: ('A' for Active; 'I' for Inactive)
REMARK    1  A    between atoms: C_2  and  C_5
REMARK    2  A    between atoms: C_14  and  C_16
REMARK    3  A    between atoms: C_24  and  C_25
REMARK    4  A    between atoms: C_25  and  C_26
REMARK    5  A    between atoms: N_28  and  C_29
REMARK                            x       y       z     vdW  Elec       q    Type
REMARK                         _______ _______ _______ _____ _____    ______ ____
ROOT
ATOM      5  C   UNL     1      -1.212  -0.123  24.478  0.00  0.00    +0.246 C 
ATOM      6  O   UNL     1      -1.957  -0.478  24.475  0.00  0.00    -0.273 OA
ATOM      7  N   UNL     1      -1.144   0.689  24.603  0.00  0.00    -0.154 NA
ATOM      8  C   UNL     1      -1.820   1.146  24.725  0.00  0.00    +0.185 A 
ATOM      9  N   UNL     1      -1.836   1.960  24.856  0.00  0.00    -0.227 NA
ATOM     10  C   UNL     1      -2.625   2.187  24.949  0.00  0.00    +0.063 A 
ATOM     11  C   UNL     1      -3.094   1.513  24.875  0.00  0.00    +0.023 A 
ATOM     12  C   UNL     1      -3.914   1.572  24.944  0.00  0.00    +0.034 C 
ATOM     13  C   UNL     1      -4.265   2.305  25.086  0.00  0.00    +0.010 C 
ATOM     14  C   UNL     1      -5.084   2.364  25.154  0.00  0.00    +0.059 C 
ATOM     15  C   UNL     1      -5.010   1.554  25.019  0.00  0.00    +0.005 C 
ATOM     18  C   UNL     1      -5.435   3.097  25.297  0.00  0.00    +0.154 C 
ATOM     19  O   UNL     1      -6.255   3.156  25.365  0.00  0.00    -0.223 OA
ATOM     20  C   UNL     1      -4.966   3.771  25.371  0.00  0.00    +0.033 C 
ATOM     21  C   UNL     1      -4.145   3.712  25.303  0.00  0.00    +0.003 C 
ATOM     22  C   UNL     1      -3.795   2.979  25.160  0.00  0.00    +0.006 C 
ATOM     23  C   UNL     1      -3.326   3.653  25.234  0.00  0.00    +0.000 C 
ATOM     24  C   UNL     1      -2.975   2.921  25.092  0.00  0.00    +0.050 C 
ATOM     32  S   UNL     1      -2.596   0.869  24.736  0.00  0.00    -0.054 S 
ENDROOT
BRANCH   5   2
ATOM      1  C   UNL     1       0.139  -1.038  24.234  0.00  0.00    +0.009 C 
ATOM      2  C   UNL     1      -0.536  -0.581  24.356  0.00  0.00    +0.071 C 
ATOM      3  C   UNL     1      -0.802  -1.123  24.919  0.00  0.00    +0.009 C 
ATOM      4  C   UNL     1      -0.271  -0.039  23.794  0.00  0.00    +0.009 C 
ENDBRANCH   5   2
BRANCH  14  16
ATOM     16  C   UNL     1      -5.879   2.142  25.176  0.00  0.00    +0.184 C 
ATOM     17  O   UNL     1      -6.108   1.400  24.897  0.00  0.00    -0.220 OA
ENDBRANCH  14  16
BRANCH  24  25
ATOM     25  C   UNL     1      -2.506   3.594  25.166  0.00  0.00    +0.093 C 
BRANCH  25  26
ATOM     26  C   UNL     1      -2.162   3.780  25.893  0.00  0.00    +0.242 C 
ATOM     27  O   UNL     1      -2.424   3.406  26.580  0.00  0.00    -0.273 OA
ATOM     28  N   UNL     1      -1.556   4.338  25.932  0.00  0.00    -0.207 NA
BRANCH  28  29
ATOM     29  C   UNL     1      -1.294   4.712  25.244  0.00  0.00    +0.095 C 
ATOM     30  C   UNL     1      -0.770   4.753  24.608  0.00  0.00    +0.023 C 
ATOM     31  C   UNL     1      -1.367   5.318  24.689  0.00  0.00    +0.023 C 
ENDBRANCH  28  29
ENDBRANCH  25  26
ENDBRANCH  24  25
TORSDOF 5
ENDMDL
MODEL 7
REMARK VINA RESULT:     -12.2      1.579      4.697
REMARK  Name = 
REMARK  5 active torsions:
REMARK  status: ('A' for Active; 'I' for Inactive)
REMARK    1  A    between atoms: C_2  and  C_5
REMARK    2  A    between atoms: C_14  and  C_16
REMARK    3  A    between atoms: C_24  and  C_25
REMARK    4  A    between atoms: C_25  and  C_26
REMARK    5  A    between atoms: N_28  and  C_29
REMARK                            x       y       z     vdW  Elec       q    Type
REMARK                         _______ _______ _______ _____ _____    ______ ____
ROOT
ATOM      5  C   UNL     1      -4.580   2.501  25.185  0.00  0.00    +0.246 C 
ATOM      6  O   UNL     1      -3.937   2.996  25.035  0.00  0.00    -0.273 OA
ATOM      7  N   UNL     1      -4.485   1.682  25.147  0.00  0.00    -0.154 NA
ATOM      8  C   UNL     1      -3.750   1.360  24.959  0.00  0.00    +0.185 A 
ATOM      9  N   UNL     1      -3.574   0.556  24.901  0.00  0.00    -0.227 NA
ATOM     10  C   UNL     1      -2.776   0.483  24.703  0.00  0.00    +0.063 A 
ATOM     11  C   UNL     1      -2.460   1.243  24.638  0.00  0.00    +0.023 A 
ATOM     12  C   UNL     1      -1.664   1.342  24.443  0.00  0.00    +0.034 C 
ATOM     13  C   UNL     1      -1.186   0.684  24.313  0.00  0.00    +0.010 C 
ATOM     14  C   UNL     1      -0.391   0.783  24.118  0.00  0.00    +0.059 C 
ATOM     15  C   UNL     1      -0.621   1.572  24.189  0.00  0.00    +0.005 C 
ATOM     18  C   UNL     1       0.089   0.125  23.987  0.00  0.00    +0.154 C 
ATOM     19  O   UNL     1       0.884   0.224  23.792  0.00  0.00    -0.223 OA
ATOM     20  C   UNL     1      -0.228  -0.634  24.052  0.00  0.00    +0.033 C 
ATOM     21  C   UNL     1      -1.024  -0.735  24.247  0.00  0.00    +0.003 C 
ATOM     22  C   UNL     1      -1.502  -0.076  24.377  0.00  0.00    +0.006 C 
ATOM     23  C   UNL     1      -1.819  -0.835  24.442  0.00  0.00    +0.000 C 
ATOM     24  C   UNL     1      -2.297  -0.176  24.572  0.00  0.00    +0.050 C 
ATOM     32  S   UNL     1      -3.062   1.784  24.797  0.00  0.00    -0.054 S 
ENDROOT
BRANCH   5   2
ATOM      1  C   UNL     1      -6.051   3.146  25.561  0.00  0.00    +0.009 C 
ATOM      2  C   UNL     1      -5.315   2.824  25.373  0.00  0.00    +0.071 C 
ATOM      3  C   UNL     1      -5.689   2.195  24.990  0.00  0.00    +0.009 C 
ATOM      4  C   UNL     1      -4.942   3.452  25.756  0.00  0.00    +0.009 C 
ENDBRANCH   5   2
BRANCH  14  16
ATOM     16  C   UNL     1       0.325   1.157  23.947  0.00  0.00    +0.184 C 
ATOM     17  O   UNL     1       0.444   1.942  24.170  0.00  0.00    -0.220 OA
ENDBRANCH  14  16
BRANCH  24  25
ATOM     25  C   UNL     1      -2.613  -0.935  24.637  0.00  0.00    +0.093 C 
BRANCH  25  26
ATOM     26  C   UNL     1      -2.731  -1.271  25.382  0.00  0.00    +0.242 C 
ATOM     27  O   UNL     1      -2.376  -0.935  26.046  0.00  0.00    -0.273 OA
ATOM     28  N   UNL     1      -3.204  -1.942  25.461  0.00  0.00    -0.207 NA
BRANCH  28  29
ATOM     29  C   UNL     1      -3.559  -2.277  24.796  0.00  0.00    +0.095 C 
ATOM     30  C   UNL     1      -4.153  -2.272  24.223  0.00  0.00    +0.023 C 
ATOM     31  C   UNL     1      -3.578  -2.864  24.216  0.00  0.00    +0.023 C 
ENDBRANCH  28  29
ENDBRANCH  25  26
ENDBRANCH  24  25
TORSDOF 5
ENDMDL
