MODEL 1
REMARK VINA RESULT:      -8.4      0.000      0.000
REMARK  Name = 
REMARK  1 active torsions:
REMARK  status: ('A' for Active; 'I' for Inactive)
REMARK    1  A    between atoms: C_12  and  C_14
REMARK                            x       y       z     vdW  Elec       q    Type
REMARK                         _______ _______ _______ _____ _____    ______ ____
ROOT
ATOM      1  C   UNL     1      -4.395   3.646  25.053  0.00  0.00    +0.117 C 
ATOM      2  N   UNL     1      -4.273   2.834  24.979  0.00  0.00    -0.261 N 
ATOM      3  C   UNL     1      -3.550   2.463  24.831  0.00  0.00    +0.117 C 
ATOM      4  C   UNL     1      -3.683   1.650  24.800  0.00  0.00    +0.116 C 
ATOM      5  C   UNL     1      -3.176   1.012  24.672  0.00  0.00    +0.115 C 
ATOM      6  N   UNL     1      -3.473   0.242  24.672  0.00  0.00    -0.270 N 
ATOM      7  C   UNL     1      -4.277   0.110  24.800  0.00  0.00    +0.115 C 
ATOM      8  C   UNL     1      -4.785   0.747  24.928  0.00  0.00    +0.116 C 
ATOM      9  N   UNL     1      -4.488   1.518  24.928  0.00  0.00    -0.261 N 
ATOM     10  C   UNL     1      -4.852   2.249  25.038  0.00  0.00    +0.307 C 
ATOM     11  O   UNL     1      -5.655   2.375  25.183  0.00  0.00    -0.252 OA
ATOM     12  C   UNL     1      -2.966  -0.396  24.544  0.00  0.00    +0.287 C 
ATOM     13  O   UNL     1      -2.161  -0.264  24.416  0.00  0.00    -0.266 OA
ENDROOT
BRANCH  12  14
ATOM     14  C   UNL     1      -3.262  -1.165  24.543  0.00  0.00    +0.230 A 
ATOM     15  C   UNL     1      -3.199  -1.710  25.160  0.00  0.00    +0.069 A 
ATOM     16  C   UNL     1      -3.572  -2.407  24.923  0.00  0.00    +0.144 A 
ATOM     17  N   UNL     1      -3.866  -2.293  24.160  0.00  0.00    -0.075 NA
ATOM     18  O   UNL     1      -3.674  -1.525  23.926  0.00  0.00    -0.349 OA
ENDBRANCH  12  14
TORSDOF 1
ENDMDL
MODEL 2
REMARK VINA RESULT:      -8.2      0.865      3.989
REMARK  Name = 
REMARK  1 active torsions:
REMARK  status: ('A' for Active; 'I' for Inactive)
REMARK    1  A    between atoms: C_12  and  C_14
REMARK                            x       y       z     vdW  Elec       q    Type
REMARK                         _______ _______ _______ _____ _____    ______ ____
ROOT
ATOM      1  C   UNL     1      -3.227  -2.461  24.615  0.00  0.00    +0.117 C 
ATOM      2  N   UNL     1      -3.321  -1.641  24.633  0.00  0.00    -0.261 N 
ATOM      3  C   UNL     1      -4.040  -1.237  24.662  0.00  0.00    +0.117 C 
ATOM      4  C   UNL     1      -3.877  -0.429  24.673  0.00  0.00    +0.116 C 
ATOM      5  C   UNL     1      -4.368   0.234  24.700  0.00  0.00    +0.115 C 
ATOM      6  N   UNL     1      -4.041   0.990  24.705  0.00  0.00    -0.270 N 
ATOM      7  C   UNL     1      -3.222   1.086  24.684  0.00  0.00    +0.115 C 
ATOM      8  C   UNL     1      -2.730   0.424  24.657  0.00  0.00    +0.116 C 
ATOM      9  N   UNL     1      -3.058  -0.334  24.651  0.00  0.00    -0.261 N 
ATOM     10  C   UNL     1      -2.715  -1.083  24.627  0.00  0.00    +0.307 C 
ATOM     11  O   UNL     1      -1.906  -1.245  24.600  0.00  0.00    -0.252 OA
ATOM     12  C   UNL     1      -4.533   1.653  24.732  0.00  0.00    +0.287 C 
ATOM     13  O   UNL     1      -5.352   1.558  24.754  0.00  0.00    -0.266 OA
ENDROOT
BRANCH  12  14
ATOM     14  C   UNL     1      -4.206   2.409  24.737  0.00  0.00    +0.230 A 
ATOM     15  C   UNL     1      -4.120   2.906  24.084  0.00  0.00    +0.069 A 
ATOM     16  C   UNL     1      -3.768   3.607  24.340  0.00  0.00    +0.144 A 
ATOM     17  N   UNL     1      -3.636   3.543  25.153  0.00  0.00    -0.075 NA
ATOM     18  O   UNL     1      -3.906   2.804  25.398  0.00  0.00    -0.349 OA
ENDBRANCH  12  14
TORSDOF 1
ENDMDL
MODEL 3
REMARK VINA RESULT:      -8.1      1.676      2.396
REMARK  Name = 
REMARK  1 active torsions:
REMARK  status: ('A' for Active; 'I' for Inactive)
REMARK    1  A    between atoms: C_12  and  C_14
REMARK                            x       y       z     vdW  Elec       q    Type
REMARK                         _______ _______ _______ _____ _____    ______ ____
ROOT
ATOM      1  C   UNL     1      -1.744   4.582  25.234  0.00  0.00    +0.117 C 
ATOM      2  N   UNL     1      -2.067   3.827  25.154  0.00  0.00    -0.261 N 
ATOM      3  C   UNL     1      -2.869   3.649  25.079  0.00  0.00    +0.117 C 
ATOM      4  C   UNL     1      -2.942   2.830  25.015  0.00  0.00    +0.116 C 
ATOM      5  C   UNL     1      -3.600   2.339  24.928  0.00  0.00    +0.115 C 
ATOM      6  N   UNL     1      -3.502   1.522  24.877  0.00  0.00    -0.270 N 
ATOM      7  C   UNL     1      -2.746   1.195  24.913  0.00  0.00    +0.115 C 
ATOM      8  C   UNL     1      -2.087   1.684  25.000  0.00  0.00    +0.116 C 
ATOM      9  N   UNL     1      -2.186   2.502  25.051  0.00  0.00    -0.261 N 
ATOM     10  C   UNL     1      -1.645   3.119  25.137  0.00  0.00    +0.307 C 
ATOM     11  O   UNL     1      -0.826   3.040  25.196  0.00  0.00    -0.252 OA
ATOM     12  C   UNL     1      -4.160   1.031  24.791  0.00  0.00    +0.287 C 
ATOM     13  O   UNL     1      -4.916   1.359  24.755  0.00  0.00    -0.266 OA
ENDROOT
BRANCH  12  14
ATOM     14  C   UNL     1      -4.062   0.215  24.740  0.00  0.00    +0.230 A 
ATOM     15  C   UNL     1      -4.055  -0.232  24.046  0.00  0.00    +0.069 A 
ATOM     16  C   UNL     1      -3.942  -1.023  24.252  0.00  0.00    +0.144 A 
ATOM     17  N   UNL     1      -3.879  -1.065  25.074  0.00  0.00    -0.075 NA
ATOM     18  O   UNL     1      -3.953  -0.301  25.376  0.00  0.00    -0.349 OA
ENDBRANCH  12  14
TORSDOF 1
ENDMDL
MODEL 4
REMARK VINA RESULT:      -8.1      2.418      4.095
REMARK  Name = 
REMARK  1 active torsions:
REMARK  status: ('A' for Active; 'I' for Inactive)
REMARK    1  A    between atoms: C_12  and  C_14
REMARK                            x       y       z     vdW  Elec       q    Type
REMARK                         _______ _______ _______ _____ _____    ______ ____
ROOT
ATOM      1  C   UNL     1      -6.322   1.748  25.136  0.00  0.00    +0.117 C 
ATOM      2  N   UNL     1      -5.559   2.062  25.169  0.00  0.00    -0.261 N 
ATOM      3  C   UNL     1      -5.340   2.765  25.542  0.00  0.00    +0.117 C 
ATOM      4  C   UNL     1      -4.528   2.865  25.438  0.00  0.00    +0.116 C 
ATOM      5  C   UNL     1      -4.009   3.457  25.685  0.00  0.00    +0.115 C 
ATOM      6  N   UNL     1      -3.208   3.409  25.496  0.00  0.00    -0.270 N 
ATOM      7  C   UNL     1      -2.925   2.768  25.060  0.00  0.00    +0.115 C 
ATOM      8  C   UNL     1      -3.443   2.175  24.813  0.00  0.00    +0.116 C 
ATOM      9  N   UNL     1      -4.246   2.224  25.003  0.00  0.00    -0.261 N 
ATOM     10  C   UNL     1      -4.883   1.728  24.836  0.00  0.00    +0.307 C 
ATOM     11  O   UNL     1      -4.849   1.021  24.411  0.00  0.00    -0.252 OA
ATOM     12  C   UNL     1      -2.689   4.001  25.742  0.00  0.00    +0.287 C 
ATOM     13  O   UNL     1      -2.971   4.641  26.178  0.00  0.00    -0.266 OA
ENDROOT
BRANCH  12  14
ATOM     14  C   UNL     1      -1.888   3.952  25.554  0.00  0.00    +0.230 A 
ATOM     15  C   UNL     1      -1.489   4.421  25.004  0.00  0.00    +0.069 A 
ATOM     16  C   UNL     1      -0.699   4.185  24.992  0.00  0.00    +0.144 A 
ATOM     17  N   UNL     1      -0.609   3.569  25.534  0.00  0.00    -0.075 NA
ATOM     18  O   UNL     1      -1.343   3.425  25.881  0.00  0.00    -0.349 OA
ENDBRANCH  12  14
TORSDOF 1
ENDMDL
MODEL 5
REMARK VINA RESULT:      -8.0      1.856      3.734
REMARK  Name = 
REMARK  1 active torsions:
REMARK  status: ('A' for Active; 'I' for Inactive)
REMARK    1  A    between atoms: C_12  and  C_14
REMARK                            x       y       z     vdW  Elec       q    Type
REMARK                         _______ _______ _______ _____ _____    ______ ____
ROOT
ATOM      1  C   UNL     1      -0.196   0.522  23.692  0.00  0.00    +0.117 C 
ATOM      2  N   UNL     1      -0.945   0.804  23.893  0.00  0.00    -0.261 N 
ATOM      3  C   UNL     1      -1.330   1.447  23.548  0.00  0.00    +0.117 C 
ATOM      4  C   UNL     1      -2.063   1.533  23.916  0.00  0.00    +0.116 C 
ATOM      5  C   UNL     1      -2.678   2.072  23.805  0.00  0.00    +0.115 C 
ATOM      6  N   UNL     1      -3.360   2.021  24.265  0.00  0.00    -0.270 N 
ATOM      7  C   UNL     1      -3.428   1.430  24.837  0.00  0.00    +0.115 C 
ATOM      8  C   UNL     1      -2.815   0.891  24.949  0.00  0.00    +0.116 C 
ATOM      9  N   UNL     1      -2.131   0.942  24.489  0.00  0.00    -0.261 N 
ATOM     10  C   UNL     1      -1.441   0.492  24.474  0.00  0.00    +0.307 C 
ATOM     11  O   UNL     1      -1.274  -0.157  24.957  0.00  0.00    -0.252 OA
ATOM     12  C   UNL     1      -3.975   2.560  24.153  0.00  0.00    +0.287 C 
ATOM     13  O   UNL     1      -3.906   3.150  23.581  0.00  0.00    -0.266 OA
ENDROOT
BRANCH  12  14
ATOM     14  C   UNL     1      -4.657   2.509  24.613  0.00  0.00    +0.230 A 
ATOM     15  C   UNL     1      -4.837   2.976  25.269  0.00  0.00    +0.069 A 
ATOM     16  C   UNL     1      -5.571   2.737  25.559  0.00  0.00    +0.144 A 
ATOM     17  N   UNL     1      -5.846   2.122  25.083  0.00  0.00    -0.075 NA
ATOM     18  O   UNL     1      -5.281   1.981  24.498  0.00  0.00    -0.349 OA
ENDBRANCH  12  14
TORSDOF 1
ENDMDL
MODEL 6
REMARK VINA RESULT:      -7.9      1.761      2.540
REMARK  Name = 
REMARK  1 active torsions:
REMARK  status: ('A' for Active; 'I' for Inactive)
REMARK    1  A    between atoms: C_12  and  C_14
REMARK                            x       y       z     vdW  Elec       q    Type
REMARK                         _______ _______ _______ _____ _____    ______ ____
ROOT
ATOM      1  C   UNL     1      -0.787   2.806  24.845  0.00  0.00    +0.117 C 
ATOM      2  N   UNL     1      -1.200   2.092  24.830  0.00  0.00    -0.261 N 
ATOM      3  C   UNL     1      -2.006   1.994  24.980  0.00  0.00    +0.117 C 
ATOM      4  C   UNL     1      -2.184   1.193  24.906  0.00  0.00    +0.116 C 
ATOM      5  C   UNL     1      -2.889   0.773  24.991  0.00  0.00    +0.115 C 
ATOM      6  N   UNL     1      -2.899  -0.044  24.881  0.00  0.00    -0.270 N 
ATOM      7  C   UNL     1      -2.203  -0.442  24.685  0.00  0.00    +0.115 C 
ATOM      8  C   UNL     1      -1.498  -0.024  24.600  0.00  0.00    +0.116 C 
ATOM      9  N   UNL     1      -1.488   0.795  24.710  0.00  0.00    -0.261 N 
ATOM     10  C   UNL     1      -0.881   1.350  24.664  0.00  0.00    +0.307 C 
ATOM     11  O   UNL     1      -0.091   1.192  24.482  0.00  0.00    -0.252 OA
ATOM     12  C   UNL     1      -3.604  -0.464  24.966  0.00  0.00    +0.287 C 
ATOM     13  O   UNL     1      -4.299  -0.066  25.162  0.00  0.00    -0.266 OA
ENDROOT
BRANCH  12  14
ATOM     14  C   UNL     1      -3.614  -1.281  24.855  0.00  0.00    +0.230 A 
ATOM     15  C   UNL     1      -3.864  -1.676  24.176  0.00  0.00    +0.069 A 
ATOM     16  C   UNL     1      -3.780  -2.487  24.306  0.00  0.00    +0.144 A 
ATOM     17  N   UNL     1      -3.478  -2.593  25.067  0.00  0.00    -0.075 NA
ATOM     18  O   UNL     1      -3.375  -1.848  25.406  0.00  0.00    -0.349 OA
ENDBRANCH  12  14
TORSDOF 1
ENDMDL
MODEL 7
REMARK VINA RESULT:      -7.8      1.780      2.044
REMARK  Name = 
REMARK  1 active torsions:
REMARK  status: ('A' for Active; 'I' for Inactive)
REMARK    1  A    between atoms: C_12  and  C_14
REMARK                            x       y       z     vdW  Elec       q    Type
REMARK                         _______ _______ _______ _____ _____    ______ ____
ROOT
ATOM      1  C   UNL     1      -4.284   3.690  24.832  0.00  0.00    +0.117 C 
ATOM      2  N   UNL     1      -3.778   3.037  24.837  0.00  0.00    -0.261 N 
ATOM      3  C   UNL     1      -2.990   3.037  25.083  0.00  0.00    +0.117 C 
ATOM      4  C   UNL     1      -2.698   2.271  24.995  0.00  0.00    +0.116 C 
ATOM      5  C   UNL     1      -1.957   1.942  25.150  0.00  0.00    +0.115 C 
ATOM      6  N   UNL     1      -1.822   1.141  25.005  0.00  0.00    -0.270 N 
ATOM      7  C   UNL     1      -2.429   0.669  24.705  0.00  0.00    +0.115 C 
ATOM      8  C   UNL     1      -3.169   0.997  24.550  0.00  0.00    +0.116 C 
ATOM      9  N   UNL     1      -3.304   1.799  24.696  0.00  0.00    -0.261 N 
ATOM     10  C   UNL     1      -3.971   2.272  24.598  0.00  0.00    +0.307 C 
ATOM     11  O   UNL     1      -4.705   2.024  24.311  0.00  0.00    -0.252 OA
ATOM     12  C   UNL     1      -1.081   0.812  25.159  0.00  0.00    +0.287 C 
ATOM     13  O   UNL     1      -0.475   1.284  25.459  0.00  0.00    -0.266 OA
ENDROOT
BRANCH  12  14
ATOM     14  C   UNL     1      -0.947   0.012  25.014  0.00  0.00    +0.230 A 
ATOM     15  C   UNL     1      -1.008  -0.599  25.566  0.00  0.00    +0.069 A 
ATOM     16  C   UNL     1      -0.826  -1.307  25.184  0.00  0.00    +0.144 A 
ATOM     17  N   UNL     1      -0.653  -1.134  24.395  0.00  0.00    -0.075 NA
ATOM     18  O   UNL     1      -0.727  -0.319  24.291  0.00  0.00    -0.349 OA
ENDBRANCH  12  14
TORSDOF 1
ENDMDL
MODEL 8
REMARK VINA RESULT:      -7.6     18.975     19.944
REMARK  Name = 
REMARK  1 active torsions:
REMARK  status: ('A' for Active; 'I' for Inactive)
REMARK    1  A    between atoms: C_12  and  C_14
REMARK                            x       y       z     vdW  Elec       q    Type
REMARK                         _______ _______ _______ _____ _____    ______ ____
ROOT
ATOM      1  C   UNL     1      16.279   6.387  21.010  0.00  0.00    +0.117 C 
ATOM      2  N   UNL     1      15.647   6.600  20.524  0.00  0.00    -0.261 N 
ATOM      3  C   UNL     1      14.847   6.549  20.719  0.00  0.00    +0.117 C 
ATOM      4  C   UNL     1      14.410   6.818  20.073  0.00  0.00    +0.116 C 
ATOM      5  C   UNL     1      13.598   6.894  19.949  0.00  0.00    +0.115 C 
ATOM      6  N   UNL     1      13.316   7.187  19.231  0.00  0.00    -0.270 N 
ATOM      7  C   UNL     1      13.846   7.404  18.638  0.00  0.00    +0.115 C 
ATOM      8  C   UNL     1      14.658   7.329  18.761  0.00  0.00    +0.116 C 
ATOM      9  N   UNL     1      14.940   7.036  19.480  0.00  0.00    -0.261 N 
ATOM     10  C   UNL     1      15.704   6.901  19.758  0.00  0.00    +0.307 C 
ATOM     11  O   UNL     1      16.404   7.042  19.343  0.00  0.00    -0.252 OA
ATOM     12  C   UNL     1      12.504   7.262  19.107  0.00  0.00    +0.287 C 
ATOM     13  O   UNL     1      11.974   7.045  19.700  0.00  0.00    -0.266 OA
ENDROOT
BRANCH  12  14
ATOM     14  C   UNL     1      12.222   7.555  18.389  0.00  0.00    +0.230 A 
ATOM     15  C   UNL     1      12.000   8.335  18.237  0.00  0.00    +0.069 A 
ATOM     16  C   UNL     1      11.752   8.381  17.451  0.00  0.00    +0.144 A 
ATOM     17  N   UNL     1      11.821   7.629  17.117  0.00  0.00    -0.075 NA
ATOM     18  O   UNL     1      12.111   7.119  17.697  0.00  0.00    -0.349 OA
ENDBRANCH  12  14
TORSDOF 1
ENDMDL
MODEL 9
REMARK VINA RESULT:      -7.5      2.156      4.256
REMARK  Name = 
REMARK  1 active torsions:
REMARK  status: ('A' for Active; 'I' for Inactive)
REMARK    1  A    between atoms: C_12  and  C_14
REMARK                            x       y       z     vdW  Elec       q    Type
REMARK                         _______ _______ _______ _____ _____    ______ ____
ROOT
ATOM      1  C   UNL     1      -3.528  -2.505  24.502  0.00  0.00    +0.117 C 
ATOM      2  N   UNL     1      -3.047  -1.843  24.611  0.00  0.00    -0.261 N 
ATOM      3  C   UNL     1      -3.304  -1.061  24.664  0.00  0.00    +0.117 C 
ATOM      4  C   UNL     1      -2.641  -0.582  24.772  0.00  0.00    +0.116 C 
ATOM      5  C   UNL     1      -2.557   0.234  24.860  0.00  0.00    +0.115 C 
ATOM      6  N   UNL     1      -1.809   0.564  24.960  0.00  0.00    -0.270 N 
ATOM      7  C   UNL     1      -1.142   0.077  24.973  0.00  0.00    +0.115 C 
ATOM      8  C   UNL     1      -1.225  -0.739  24.885  0.00  0.00    +0.116 C 
ATOM      9  N   UNL     1      -1.975  -1.069  24.785  0.00  0.00    -0.261 N 
ATOM     10  C   UNL     1      -2.226  -1.848  24.685  0.00  0.00    +0.307 C 
ATOM     11  O   UNL     1      -1.740  -2.515  24.664  0.00  0.00    -0.252 OA
ATOM     12  C   UNL     1      -1.725   1.380  25.048  0.00  0.00    +0.287 C 
ATOM     13  O   UNL     1      -2.391   1.866  25.035  0.00  0.00    -0.266 OA
ENDROOT
BRANCH  12  14
ATOM     14  C   UNL     1      -0.976   1.709  25.149  0.00  0.00    +0.230 A 
ATOM     15  C   UNL     1      -0.669   2.012  25.853  0.00  0.00    +0.069 A 
ATOM     16  C   UNL     1       0.095   2.284  25.702  0.00  0.00    +0.144 A 
ATOM     17  N   UNL     1       0.261   2.150  24.904  0.00  0.00    -0.075 NA
ATOM     18  O   UNL     1      -0.401   1.795  24.563  0.00  0.00    -0.349 OA
ENDBRANCH  12  14
TORSDOF 1
ENDMDL
