MODEL 1
REMARK VINA RESULT:     -11.1      0.000      0.000
REMARK  Name = 
REMARK  8 active torsions:
REMARK  status: ('A' for Active; 'I' for Inactive)
REMARK    1  A    between atoms: C_2  and  C_3
REMARK    2  A    between atoms: N_5  and  S_18
REMARK    3  A    between atoms: C_8  and  C_9
REMARK    4  A    between atoms: C_9  and  C_10
REMARK    5  A    between atoms: N_12  and  C_14
REMARK    6  A    between atoms: C_14  and  C_15
REMARK    7  A    between atoms: C_15  and  C_16
REMARK    8  A    between atoms: S_18  and  C_21
REMARK                            x       y       z     vdW  Elec       q    Type
REMARK                         _______ _______ _______ _____ _____    ______ ____
ROOT
ATOM      3  C   UNL     1      -4.651   1.515  25.055  0.00  0.00    +0.018 C 
ATOM      4  C   UNL     1      -4.629   0.697  24.949  0.00  0.00    +0.096 C 
ATOM      5  N   UNL     1      -3.918   0.325  24.756  0.00  0.00    -0.156 NA
ATOM      6  C   UNL     1      -3.229   0.771  24.669  0.00  0.00    +0.096 C 
ATOM      7  C   UNL     1      -3.252   1.589  24.775  0.00  0.00    +0.020 C 
ATOM      8  C   UNL     1      -3.962   1.961  24.968  0.00  0.00    +0.012 C 
ENDROOT
BRANCH   5  18
ATOM     18  S   UNL     1      -3.896  -0.492  24.650  0.00  0.00    +0.063 S 
ATOM     19  O   UNL     1      -3.915  -0.600  25.467  0.00  0.00    -0.153 OA
ATOM     20  O   UNL     1      -3.876  -0.385  23.832  0.00  0.00    -0.153 OA
BRANCH  18  21
ATOM     21  C   UNL     1      -3.873  -1.310  24.543  0.00  0.00    +0.122 A 
ATOM     22  C   UNL     1      -4.258  -1.653  23.900  0.00  0.00    +0.020 A 
ATOM     23  C   UNL     1      -4.236  -2.471  23.792  0.00  0.00    +0.001 A 
ATOM     24  C   UNL     1      -3.827  -2.946  24.329  0.00  0.00    +0.000 A 
ATOM     25  C   UNL     1      -3.440  -2.602  24.973  0.00  0.00    +0.001 A 
ATOM     26  C   UNL     1      -3.464  -1.785  25.079  0.00  0.00    +0.020 A 
ENDBRANCH  18  21
ENDBRANCH   5  18
BRANCH   3   2
ATOM      1  C   UNL     1      -6.080   1.543  25.031  0.00  0.00    +0.000 C 
ATOM      2  C   UNL     1      -5.362   1.887  25.248  0.00  0.00    +0.001 C 
ENDBRANCH   3   2
BRANCH   8   9
ATOM      9  C   UNL     1      -3.984   2.779  25.074  0.00  0.00    +0.085 C 
BRANCH   9  10
ATOM     10  C   UNL     1      -3.391   3.253  24.751  0.00  0.00    +0.226 C 
ATOM     11  O   UNL     1      -3.121   3.112  23.985  0.00  0.00    -0.275 OA
ATOM     12  N   UNL     1      -3.067   3.868  25.195  0.00  0.00    -0.277 N 
ATOM     13  C   UNL     1      -3.337   4.009  25.963  0.00  0.00    +0.115 C 
BRANCH  12  14
ATOM     14  C   UNL     1      -2.473   4.342  24.873  0.00  0.00    +0.110 C 
BRANCH  14  15
ATOM     15  C   UNL     1      -1.971   4.768  25.369  0.00  0.00    +0.127 C 
BRANCH  15  16
ATOM     16  C   UNL     1      -1.284   5.109  25.066  0.00  0.00    +0.075 C 
ATOM     17  N   UNL     1      -0.596   5.450  24.762  0.00  0.00    -0.196 NA
ENDBRANCH  15  16
ENDBRANCH  14  15
ENDBRANCH  12  14
ENDBRANCH   9  10
ENDBRANCH   8   9
TORSDOF 8
ENDMDL
MODEL 2
REMARK VINA RESULT:      -9.6      1.388      5.262
REMARK  Name = 
REMARK  8 active torsions:
REMARK  status: ('A' for Active; 'I' for Inactive)
REMARK    1  A    between atoms: C_2  and  C_3
REMARK    2  A    between atoms: N_5  and  S_18
REMARK    3  A    between atoms: C_8  and  C_9
REMARK    4  A    between atoms: C_9  and  C_10
REMARK    5  A    between atoms: N_12  and  C_14
REMARK    6  A    between atoms: C_14  and  C_15
REMARK    7  A    between atoms: C_15  and  C_16
REMARK    8  A    between atoms: S_18  and  C_21
REMARK                            x       y       z     vdW  Elec       q    Type
REMARK                         _______ _______ _______ _____ _____    ______ ____
ROOT
ATOM      3  C   UNL     1      -4.116   1.981  24.899  0.00  0.00    +0.018 C 
ATOM      4  C   UNL     1      -3.638   2.652  24.932  0.00  0.00    +0.096 C 
ATOM      5  N   UNL     1      -2.817   2.575  24.906  0.00  0.00    -0.156 NA
ATOM      6  C   UNL     1      -2.474   1.827  24.847  0.00  0.00    +0.096 C 
ATOM      7  C   UNL     1      -2.953   1.155  24.814  0.00  0.00    +0.020 C 
ATOM      8  C   UNL     1      -3.774   1.233  24.840  0.00  0.00    +0.012 C 
ENDROOT
BRANCH   5  18
ATOM     18  S   UNL     1      -2.338   3.246  24.938  0.00  0.00    +0.063 S 
ATOM     19  O   UNL     1      -2.256   3.149  25.753  0.00  0.00    -0.153 OA
ATOM     20  O   UNL     1      -2.420   3.343  24.122  0.00  0.00    -0.153 OA
BRANCH  18  21
ATOM     21  C   UNL     1      -1.859   3.917  24.969  0.00  0.00    +0.122 A 
ATOM     22  C   UNL     1      -2.179   4.643  25.191  0.00  0.00    +0.020 A 
ATOM     23  C   UNL     1      -1.700   5.314  25.222  0.00  0.00    +0.001 A 
ATOM     24  C   UNL     1      -0.899   5.258  25.031  0.00  0.00    +0.000 A 
ATOM     25  C   UNL     1      -0.578   4.530  24.809  0.00  0.00    +0.001 A 
ATOM     26  C   UNL     1      -1.058   3.860  24.778  0.00  0.00    +0.020 A 
ENDBRANCH  18  21
ENDBRANCH   5  18
BRANCH   3   2
ATOM      1  C   UNL     1      -5.278   2.729  25.267  0.00  0.00    +0.000 C 
ATOM      2  C   UNL     1      -4.938   2.059  24.925  0.00  0.00    +0.001 C 
ENDBRANCH   3   2
BRANCH   8   9
ATOM      9  C   UNL     1      -4.253   0.561  24.808  0.00  0.00    +0.085 C 
BRANCH   9  10
ATOM     10  C   UNL     1      -3.943  -0.176  25.009  0.00  0.00    +0.226 C 
ATOM     11  O   UNL     1      -3.446  -0.250  25.663  0.00  0.00    -0.275 OA
ATOM     12  N   UNL     1      -4.131  -0.840  24.557  0.00  0.00    -0.277 N 
ATOM     13  C   UNL     1      -4.628  -0.766  23.902  0.00  0.00    +0.115 C 
BRANCH  12  14
ATOM     14  C   UNL     1      -3.822  -1.578  24.758  0.00  0.00    +0.110 C 
BRANCH  14  15
ATOM     15  C   UNL     1      -3.914  -2.218  24.246  0.00  0.00    +0.127 C 
BRANCH  15  16
ATOM     16  C   UNL     1      -3.541  -2.935  24.411  0.00  0.00    +0.075 C 
ATOM     17  N   UNL     1      -3.169  -3.653  24.576  0.00  0.00    -0.196 NA
ENDBRANCH  15  16
ENDBRANCH  14  15
ENDBRANCH  12  14
ENDBRANCH   9  10
ENDBRANCH   8   9
TORSDOF 8
ENDMDL
MODEL 3
REMARK VINA RESULT:      -8.8      1.664      2.481
REMARK  Name = 
REMARK  8 active torsions:
REMARK  status: ('A' for Active; 'I' for Inactive)
REMARK    1  A    between atoms: C_2  and  C_3
REMARK    2  A    between atoms: N_5  and  S_18
REMARK    3  A    between atoms: C_8  and  C_9
REMARK    4  A    between atoms: C_9  and  C_10
REMARK    5  A    between atoms: N_12  and  C_14
REMARK    6  A    between atoms: C_14  and  C_15
REMARK    7  A    between atoms: C_15  and  C_16
REMARK    8  A    between atoms: S_18  and  C_21
REMARK                            x       y       z     vdW  Elec       q    Type
REMARK                         _______ _______ _______ _____ _____    ______ ____
ROOT
ATOM      3  C   UNL     1      -1.113   0.394  24.540  0.00  0.00    +0.018 C 
ATOM      4  C   UNL     1      -1.557  -0.291  24.427  0.00  0.00    +0.096 C 
ATOM      5  N   UNL     1      -2.347  -0.313  24.661  0.00  0.00    -0.156 NA
ATOM      6  C   UNL     1      -2.694   0.350  25.007  0.00  0.00    +0.096 C 
ATOM      7  C   UNL     1      -2.249   1.037  25.120  0.00  0.00    +0.020 C 
ATOM      8  C   UNL     1      -1.459   1.059  24.886  0.00  0.00    +0.012 C 
ENDROOT
BRANCH   5  18
ATOM     18  S   UNL     1      -2.792  -0.999  24.549  0.00  0.00    +0.063 S 
ATOM     19  O   UNL     1      -3.120  -0.675  23.866  0.00  0.00    -0.153 OA
ATOM     20  O   UNL     1      -2.464  -1.323  25.234  0.00  0.00    -0.153 OA
BRANCH  18  21
ATOM     21  C   UNL     1      -3.237  -1.685  24.438  0.00  0.00    +0.122 A 
ATOM     22  C   UNL     1      -3.013  -2.386  24.810  0.00  0.00    +0.020 A 
ATOM     23  C   UNL     1      -3.458  -3.073  24.699  0.00  0.00    +0.001 A 
ATOM     24  C   UNL     1      -4.126  -3.057  24.216  0.00  0.00    +0.000 A 
ATOM     25  C   UNL     1      -4.350  -2.355  23.843  0.00  0.00    +0.001 A 
ATOM     26  C   UNL     1      -3.905  -1.669  23.955  0.00  0.00    +0.020 A 
ENDBRANCH  18  21
ENDBRANCH   5  18
BRANCH   3   2
ATOM      1  C   UNL     1       0.018  -0.239  23.935  0.00  0.00    +0.000 C 
ATOM      2  C   UNL     1      -0.321   0.416  24.306  0.00  0.00    +0.001 C 
ENDBRANCH   3   2
BRANCH   8   9
ATOM      9  C   UNL     1      -1.015   1.745  24.999  0.00  0.00    +0.085 C 
BRANCH   9  10
ATOM     10  C   UNL     1      -1.351   2.483  24.851  0.00  0.00    +0.226 C 
ATOM     11  O   UNL     1      -2.004   2.546  24.351  0.00  0.00    -0.275 OA
ATOM     12  N   UNL     1      -1.035   3.158  25.203  0.00  0.00    -0.277 N 
ATOM     13  C   UNL     1      -0.380   3.095  25.703  0.00  0.00    +0.115 C 
BRANCH  12  14
ATOM     14  C   UNL     1      -1.371   3.897  25.056  0.00  0.00    +0.110 C 
BRANCH  14  15
ATOM     15  C   UNL     1      -0.925   4.583  25.163  0.00  0.00    +0.127 C 
BRANCH  15  16
ATOM     16  C   UNL     1      -1.277   5.323  25.068  0.00  0.00    +0.075 C 
ATOM     17  N   UNL     1      -1.629   6.063  24.974  0.00  0.00    -0.196 NA
ENDBRANCH  15  16
ENDBRANCH  14  15
ENDBRANCH  12  14
ENDBRANCH   9  10
ENDBRANCH   8   9
TORSDOF 8
ENDMDL
MODEL 4
REMARK VINA RESULT:      -8.6      3.022      4.558
REMARK  Name = 
REMARK  8 active torsions:
REMARK  status: ('A' for Active; 'I' for Inactive)
REMARK    1  A    between atoms: C_2  and  C_3
REMARK    2  A    between atoms: N_5  and  S_18
REMARK    3  A    between atoms: C_8  and  C_9
REMARK    4  A    between atoms: C_9  and  C_10
REMARK    5  A    between atoms: N_12  and  C_14
REMARK    6  A    between atoms: C_14  and  C_15
REMARK    7  A    between atoms: C_15  and  C_16
REMARK    8  A    between atoms: S_18  and  C_21
REMARK                            x       y       z     vdW  Elec       q    Type
REMARK                         _______ _______ _______ _____ _____    ______ ____
ROOT
ATOM      3  C   UNL     1      -1.925   0.277  24.883  0.00  0.00    +0.018 C 
ATOM      4  C   UNL     1      -2.600   0.718  25.054  0.00  0.00    +0.096 C 
ATOM      5  N   UNL     1      -2.765   1.402  24.624  0.00  0.00    -0.156 NA
ATOM      6  C   UNL     1      -2.255   1.646  24.024  0.00  0.00    +0.096 C 
ATOM      7  C   UNL     1      -1.579   1.204  23.853  0.00  0.00    +0.020 C 
ATOM      8  C   UNL     1      -1.414   0.519  24.282  0.00  0.00    +0.012 C 
ENDROOT
BRANCH   5  18
ATOM     18  S   UNL     1      -3.441   1.844  24.795  0.00  0.00    +0.063 S 
ATOM     19  O   UNL     1      -3.864   1.415  24.233  0.00  0.00    -0.153 OA
ATOM     20  O   UNL     1      -3.016   2.274  25.358  0.00  0.00    -0.153 OA
BRANCH  18  21
ATOM     21  C   UNL     1      -4.116   2.287  24.966  0.00  0.00    +0.122 A 
ATOM     22  C   UNL     1      -4.048   3.087  25.154  0.00  0.00    +0.020 A 
ATOM     23  C   UNL     1      -4.723   3.530  25.325  0.00  0.00    +0.001 A 
ATOM     24  C   UNL     1      -5.466   3.171  25.309  0.00  0.00    +0.000 A 
ATOM     25  C   UNL     1      -5.534   2.370  25.122  0.00  0.00    +0.001 A 
ATOM     26  C   UNL     1      -4.858   1.928  24.950  0.00  0.00    +0.020 A 
ENDBRANCH  18  21
ENDBRANCH   5  18
BRANCH   3   2
ATOM      1  C   UNL     1      -2.375  -0.834  25.662  0.00  0.00    +0.000 C 
ATOM      2  C   UNL     1      -1.760  -0.409  25.313  0.00  0.00    +0.001 C 
ENDBRANCH   3   2
BRANCH   8   9
ATOM      9  C   UNL     1      -0.738   0.078  24.111  0.00  0.00    +0.085 C 
BRANCH   9  10
ATOM     10  C   UNL     1      -0.051   0.457  23.859  0.00  0.00    +0.226 C 
ATOM     11  O   UNL     1       0.077   1.250  24.049  0.00  0.00    -0.275 OA
ATOM     12  N   UNL     1       0.510   0.044  23.417  0.00  0.00    -0.277 N 
ATOM     13  C   UNL     1       0.382  -0.749  23.227  0.00  0.00    +0.115 C 
BRANCH  12  14
ATOM     14  C   UNL     1       1.198   0.423  23.164  0.00  0.00    +0.110 C 
BRANCH  14  15
ATOM     15  C   UNL     1       1.772   0.002  22.749  0.00  0.00    +0.127 C 
BRANCH  15  16
ATOM     16  C   UNL     1       2.523   0.327  22.637  0.00  0.00    +0.075 C 
ATOM     17  N   UNL     1       3.273   0.651  22.527  0.00  0.00    -0.196 NA
ENDBRANCH  15  16
ENDBRANCH  14  15
ENDBRANCH  12  14
ENDBRANCH   9  10
ENDBRANCH   8   9
TORSDOF 8
ENDMDL
MODEL 5
REMARK VINA RESULT:      -8.4      2.087      5.846
REMARK  Name = 
REMARK  8 active torsions:
REMARK  status: ('A' for Active; 'I' for Inactive)
REMARK    1  A    between atoms: C_2  and  C_3
REMARK    2  A    between atoms: N_5  and  S_18
REMARK    3  A    between atoms: C_8  and  C_9
REMARK    4  A    between atoms: C_9  and  C_10
REMARK    5  A    between atoms: N_12  and  C_14
REMARK    6  A    between atoms: C_14  and  C_15
REMARK    7  A    between atoms: C_15  and  C_16
REMARK    8  A    between atoms: S_18  and  C_21
REMARK                            x       y       z     vdW  Elec       q    Type
REMARK                         _______ _______ _______ _____ _____    ______ ____
ROOT
ATOM      3  C   UNL     1      -0.815   1.051  24.411  0.00  0.00    +0.018 C 
ATOM      4  C   UNL     1      -0.794   1.873  24.471  0.00  0.00    +0.096 C 
ATOM      5  N   UNL     1      -1.399   2.273  24.862  0.00  0.00    -0.156 NA
ATOM      6  C   UNL     1      -2.027   1.852  25.193  0.00  0.00    +0.096 C 
ATOM      7  C   UNL     1      -2.048   1.029  25.132  0.00  0.00    +0.020 C 
ATOM      8  C   UNL     1      -1.442   0.628  24.741  0.00  0.00    +0.012 C 
ENDROOT
BRANCH   5  18
ATOM     18  S   UNL     1      -1.379   3.096  24.923  0.00  0.00    +0.063 S 
ATOM     19  O   UNL     1      -1.026   3.033  25.665  0.00  0.00    -0.153 OA
ATOM     20  O   UNL     1      -1.732   3.159  24.179  0.00  0.00    -0.153 OA
BRANCH  18  21
ATOM     21  C   UNL     1      -1.358   3.919  24.983  0.00  0.00    +0.122 A 
ATOM     22  C   UNL     1      -2.011   4.327  25.276  0.00  0.00    +0.020 A 
ATOM     23  C   UNL     1      -1.991   5.150  25.336  0.00  0.00    +0.001 A 
ATOM     24  C   UNL     1      -1.317   5.564  25.101  0.00  0.00    +0.000 A 
ATOM     25  C   UNL     1      -0.663   5.154  24.807  0.00  0.00    +0.001 A 
ATOM     26  C   UNL     1      -0.684   4.332  24.748  0.00  0.00    +0.020 A 
ENDBRANCH  18  21
ENDBRANCH   5  18
BRANCH   3   2
ATOM      1  C   UNL     1       0.515   1.024  23.888  0.00  0.00    +0.000 C 
ATOM      2  C   UNL     1      -0.209   0.650  24.019  0.00  0.00    +0.001 C 
ENDBRANCH   3   2
BRANCH   8   9
ATOM      9  C   UNL     1      -1.464  -0.194  24.681  0.00  0.00    +0.085 C 
BRANCH   9  10
ATOM     10  C   UNL     1      -2.184  -0.581  24.572  0.00  0.00    +0.226 C 
ATOM     11  O   UNL     1      -2.844  -0.159  24.315  0.00  0.00    -0.275 OA
ATOM     12  N   UNL     1      -2.244  -1.390  24.721  0.00  0.00    -0.277 N 
ATOM     13  C   UNL     1      -1.583  -1.813  24.978  0.00  0.00    +0.115 C 
BRANCH  12  14
ATOM     14  C   UNL     1      -2.964  -1.778  24.612  0.00  0.00    +0.110 C 
BRANCH  14  15
ATOM     15  C   UNL     1      -2.990  -2.601  24.586  0.00  0.00    +0.127 C 
BRANCH  15  16
ATOM     16  C   UNL     1      -3.647  -2.984  24.265  0.00  0.00    +0.075 C 
ATOM     17  N   UNL     1      -4.303  -3.367  23.943  0.00  0.00    -0.196 NA
ENDBRANCH  15  16
ENDBRANCH  14  15
ENDBRANCH  12  14
ENDBRANCH   9  10
ENDBRANCH   8   9
TORSDOF 8
ENDMDL
MODEL 6
REMARK VINA RESULT:      -7.7      1.266      2.238
REMARK  Name = 
REMARK  8 active torsions:
REMARK  status: ('A' for Active; 'I' for Inactive)
REMARK    1  A    between atoms: C_2  and  C_3
REMARK    2  A    between atoms: N_5  and  S_18
REMARK    3  A    between atoms: C_8  and  C_9
REMARK    4  A    between atoms: C_9  and  C_10
REMARK    5  A    between atoms: N_12  and  C_14
REMARK    6  A    between atoms: C_14  and  C_15
REMARK    7  A    between atoms: C_15  and  C_16
REMARK    8  A    between atoms: S_18  and  C_21
REMARK                            x       y       z     vdW  Elec       q    Type
REMARK                         _______ _______ _______ _____ _____    ______ ____
ROOT
ATOM      3  C   UNL     1      -2.565   1.096  24.239  0.00  0.00    +0.018 C 
ATOM      4  C   UNL     1      -2.660   0.277  24.217  0.00  0.00    +0.096 C 
ATOM      5  N   UNL     1      -3.376  -0.061  24.446  0.00  0.00    -0.156 NA
ATOM      6  C   UNL     1      -3.998   0.419  24.697  0.00  0.00    +0.096 C 
ATOM      7  C   UNL     1      -3.903   1.239  24.719  0.00  0.00    +0.020 C 
ATOM      8  C   UNL     1      -3.187   1.577  24.490  0.00  0.00    +0.012 C 
ENDROOT
BRANCH   5  18
ATOM     18  S   UNL     1      -3.472  -0.880  24.424  0.00  0.00    +0.063 S 
ATOM     19  O   UNL     1      -3.782  -0.825  23.662  0.00  0.00    -0.153 OA
ATOM     20  O   UNL     1      -3.162  -0.936  25.187  0.00  0.00    -0.153 OA
BRANCH  18  21
ATOM     21  C   UNL     1      -3.567  -1.700  24.403  0.00  0.00    +0.122 A 
ATOM     22  C   UNL     1      -4.095  -2.041  23.870  0.00  0.00    +0.020 A 
ATOM     23  C   UNL     1      -4.190  -2.860  23.849  0.00  0.00    +0.001 A 
ATOM     24  C   UNL     1      -3.756  -3.338  24.363  0.00  0.00    +0.000 A 
ATOM     25  C   UNL     1      -3.227  -2.997  24.897  0.00  0.00    +0.001 A 
ATOM     26  C   UNL     1      -3.133  -2.178  24.917  0.00  0.00    +0.020 A 
ENDBRANCH  18  21
ENDBRANCH   5  18
BRANCH   3   2
ATOM      1  C   UNL     1      -1.173   0.965  23.942  0.00  0.00    +0.000 C 
ATOM      2  C   UNL     1      -1.848   1.435  24.009  0.00  0.00    +0.001 C 
ENDBRANCH   3   2
BRANCH   8   9
ATOM      9  C   UNL     1      -3.092   2.397  24.512  0.00  0.00    +0.085 C 
BRANCH   9  10
ATOM     10  C   UNL     1      -3.752   2.890  24.473  0.00  0.00    +0.226 C 
ATOM     11  O   UNL     1      -4.339   2.749  23.911  0.00  0.00    -0.275 OA
ATOM     12  N   UNL     1      -3.825   3.523  24.996  0.00  0.00    -0.277 N 
ATOM     13  C   UNL     1      -3.237   3.664  25.558  0.00  0.00    +0.115 C 
BRANCH  12  14
ATOM     14  C   UNL     1      -4.485   4.017  24.957  0.00  0.00    +0.110 C 
BRANCH  14  15
ATOM     15  C   UNL     1      -4.795   4.347  25.646  0.00  0.00    +0.127 C 
BRANCH  15  16
ATOM     16  C   UNL     1      -5.583   4.589  25.670  0.00  0.00    +0.075 C 
ATOM     17  N   UNL     1      -6.371   4.832  25.694  0.00  0.00    -0.196 NA
ENDBRANCH  15  16
ENDBRANCH  14  15
ENDBRANCH  12  14
ENDBRANCH   9  10
ENDBRANCH   8   9
TORSDOF 8
ENDMDL
