MODEL 1
REMARK VINA RESULT:     -10.5      0.000      0.000
REMARK  Name = 
REMARK  9 active torsions:
REMARK  status: ('A' for Active; 'I' for Inactive)
REMARK    1  A    between atoms: C_2  and  C_4
REMARK    2  A    between atoms: C_4  and  C_5
REMARK    3  A    between atoms: C_5  and  N_6
REMARK    4  A    between atoms: C_5  and  C_33
REMARK    5  A    between atoms: C_7  and  C_9
REMARK    6  A    between atoms: C_11  and  N_24
REMARK    7  A    between atoms: C_15  and  C_17
REMARK    8  A    between atoms: N_24  and  S_25
REMARK    9  A    between atoms: S_25  and  C_28
REMARK                            x       y       z     vdW  Elec       q    Type
REMARK                         _______ _______ _______ _____ _____    ______ ____
ROOT
ATOM      9  C   UNL     1      -2.254   1.066  24.607  0.00  0.00    +0.155 C 
ATOM     10  C   UNL     1      -2.717   0.489  24.971  0.00  0.00    +0.049 C 
ATOM     11  C   UNL     1      -2.374  -0.220  25.218  0.00  0.00    +0.102 C 
ATOM     12  C   UNL     1      -1.568  -0.351  25.101  0.00  0.00    +0.041 C 
ATOM     13  C   UNL     1      -1.105   0.226  24.737  0.00  0.00    +0.096 C 
ATOM     14  N   UNL     1      -1.448   0.934  24.490  0.00  0.00    -0.268 N 
ATOM     15  C   UNL     1      -0.985   1.512  24.125  0.00  0.00    +0.267 C 
ATOM     16  O   UNL     1      -1.327   2.220  23.878  0.00  0.00    -0.268 OA
ENDROOT
BRANCH  15  17
ATOM     17  C   UNL     1      -0.178   1.381  24.008  0.00  0.00    +0.133 A 
ATOM     18  C   UNL     1       0.153   0.817  23.504  0.00  0.00    +0.040 A 
ATOM     19  C   UNL     1       0.974   0.878  23.559  0.00  0.00    +0.081 A 
ATOM     20  C   UNL     1       1.523   0.419  23.148  0.00  0.00    +0.054 C 
ATOM     21  N   UNL     1       1.150   1.479  24.096  0.00  0.00    -0.173 NA
ATOM     22  N   UNL     1       0.437   1.790  24.374  0.00  0.00    -0.245 N 
ATOM     23  C   UNL     1       0.356   2.402  24.921  0.00  0.00    +0.154 C 
ENDBRANCH  15  17
BRANCH   9   7
ATOM      6  N   UNL     1      -3.118   2.176  24.857  0.00  0.00    -0.196 NA
ATOM      7  C   UNL     1      -2.597   1.775  24.359  0.00  0.00    +0.260 C 
ATOM      8  O   UNL     1      -2.419   2.081  23.615  0.00  0.00    -0.272 OA
BRANCH   6   5
ATOM      5  C   UNL     1      -3.461   2.885  24.609  0.00  0.00    +0.174 C 
BRANCH   5  33
ATOM     33  C   UNL     1      -4.114   2.873  24.107  0.00  0.00    +0.281 C 
ATOM     34  N   UNL     1      -4.779   2.425  24.304  0.00  0.00    -0.086 NA
ATOM     35  O   UNL     1      -4.104   3.309  23.407  0.00  0.00    -0.270 OA
ENDBRANCH   5  33
BRANCH   5   4
ATOM      4  C   UNL     1      -3.150   3.604  24.866  0.00  0.00    +0.031 C 
BRANCH   4   2
ATOM      1  C   UNL     1      -2.701   4.172  26.098  0.00  0.00    +0.000 C 
ATOM      2  C   UNL     1      -3.311   3.875  25.629  0.00  0.00    +0.002 C 
ATOM      3  C   UNL     1      -4.081   3.848  25.922  0.00  0.00    +0.000 C 
ENDBRANCH   4   2
ENDBRANCH   5   4
ENDBRANCH   6   5
ENDBRANCH   9   7
BRANCH  11  24
ATOM     24  N   UNL     1      -2.838  -0.797  25.583  0.00  0.00    -0.079 NA
BRANCH  24  25
ATOM     25  S   UNL     1      -3.200  -1.383  25.127  0.00  0.00    +0.082 S 
ATOM     26  O   UNL     1      -3.919  -0.979  25.181  0.00  0.00    -0.151 OA
ATOM     27  O   UNL     1      -2.482  -1.785  25.074  0.00  0.00    -0.151 OA
BRANCH  25  28
ATOM     28  C   UNL     1      -3.562  -1.967  24.672  0.00  0.00    +0.153 A 
ATOM     29  C   UNL     1      -4.138  -1.846  24.094  0.00  0.00    +0.027 A 
ATOM     30  C   UNL     1      -4.343  -2.581  23.780  0.00  0.00    +0.009 A 
ATOM     31  C   UNL     1      -3.894  -3.156  24.164  0.00  0.00    +0.037 A 
ATOM     32  S   UNL     1      -3.412  -2.778  24.716  0.00  0.00    -0.067 S 
ENDBRANCH  25  28
ENDBRANCH  24  25
ENDBRANCH  11  24
TORSDOF 9
ENDMDL
MODEL 2
REMARK VINA RESULT:     -10.0      1.668      4.180
REMARK  Name = 
REMARK  9 active torsions:
REMARK  status: ('A' for Active; 'I' for Inactive)
REMARK    1  A    between atoms: C_2  and  C_4
REMARK    2  A    between atoms: C_4  and  C_5
REMARK    3  A    between atoms: C_5  and  N_6
REMARK    4  A    between atoms: C_5  and  C_33
REMARK    5  A    between atoms: C_7  and  C_9
REMARK    6  A    between atoms: C_11  and  N_24
REMARK    7  A    between atoms: C_15  and  C_17
REMARK    8  A    between atoms: N_24  and  S_25
REMARK    9  A    between atoms: S_25  and  C_28
REMARK                            x       y       z     vdW  Elec       q    Type
REMARK                         _______ _______ _______ _____ _____    ______ ____
ROOT
ATOM      9  C   UNL     1      -2.495   0.551  24.828  0.00  0.00    +0.155 C 
ATOM     10  C   UNL     1      -3.221   0.792  24.520  0.00  0.00    +0.049 C 
ATOM     11  C   UNL     1      -3.347   1.587  24.335  0.00  0.00    +0.102 C 
ATOM     12  C   UNL     1      -2.747   2.139  24.459  0.00  0.00    +0.041 C 
ATOM     13  C   UNL     1      -2.021   1.897  24.768  0.00  0.00    +0.096 C 
ATOM     14  N   UNL     1      -1.895   1.103  24.952  0.00  0.00    -0.268 N 
ATOM     15  C   UNL     1      -1.170   0.861  25.262  0.00  0.00    +0.267 C 
ATOM     16  O   UNL     1      -1.044   0.067  25.446  0.00  0.00    -0.268 OA
ENDROOT
BRANCH  15  17
ATOM     17  C   UNL     1      -0.569   1.414  25.386  0.00  0.00    +0.133 A 
ATOM     18  C   UNL     1      -0.536   1.963  26.001  0.00  0.00    +0.040 A 
ATOM     19  C   UNL     1       0.157   2.403  25.912  0.00  0.00    +0.081 A 
ATOM     20  C   UNL     1       0.410   3.013  26.406  0.00  0.00    +0.054 C 
ATOM     21  N   UNL     1       0.551   2.125  25.242  0.00  0.00    -0.173 NA
ATOM     22  N   UNL     1       0.102   1.514  24.917  0.00  0.00    -0.245 N 
ATOM     23  C   UNL     1       0.292   1.080  24.242  0.00  0.00    +0.154 C 
ENDBRANCH  15  17
BRANCH   9   7
ATOM      6  N   UNL     1      -2.503  -0.825  24.443  0.00  0.00    -0.196 NA
ATOM      7  C   UNL     1      -2.370  -0.244  25.013  0.00  0.00    +0.260 C 
ATOM      8  O   UNL     1      -2.111  -0.456  25.766  0.00  0.00    -0.272 OA
BRANCH   6   5
ATOM      5  C   UNL     1      -2.377  -1.620  24.628  0.00  0.00    +0.174 C 
BRANCH   5  33
ATOM     33  C   UNL     1      -1.680  -1.993  24.394  0.00  0.00    +0.281 C 
ATOM     34  N   UNL     1      -1.237  -2.421  24.943  0.00  0.00    -0.086 NA
ATOM     35  O   UNL     1      -1.425  -1.938  23.612  0.00  0.00    -0.270 OA
ENDBRANCH   5  33
BRANCH   5   4
ATOM      4  C   UNL     1      -2.950  -2.041  25.047  0.00  0.00    +0.031 C 
BRANCH   4   2
ATOM      1  C   UNL     1      -3.469  -3.336  24.740  0.00  0.00    +0.000 C 
ATOM      2  C   UNL     1      -3.489  -2.517  24.643  0.00  0.00    +0.002 C 
ATOM      3  C   UNL     1      -4.047  -2.175  24.143  0.00  0.00    +0.000 C 
ENDBRANCH   4   2
ENDBRANCH   5   4
ENDBRANCH   6   5
ENDBRANCH   9   7
BRANCH  11  24
ATOM     24  N   UNL     1      -4.073   1.828  24.026  0.00  0.00    -0.079 NA
BRANCH  24  25
ATOM     25  S   UNL     1      -4.644   2.155  24.524  0.00  0.00    +0.082 S 
ATOM     26  O   UNL     1      -4.306   2.901  24.421  0.00  0.00    -0.151 OA
ATOM     27  O   UNL     1      -4.982   1.409  24.625  0.00  0.00    -0.151 OA
BRANCH  25  28
ATOM     28  C   UNL     1      -5.215   2.482  25.021  0.00  0.00    +0.153 A 
ATOM     29  C   UNL     1      -5.257   3.271  25.260  0.00  0.00    +0.027 A 
ATOM     30  C   UNL     1      -5.912   3.354  25.753  0.00  0.00    +0.009 A 
ATOM     31  C   UNL     1      -6.276   2.617  25.820  0.00  0.00    +0.037 A 
ATOM     32  S   UNL     1      -5.845   2.077  25.367  0.00  0.00    -0.067 S 
ENDBRANCH  25  28
ENDBRANCH  24  25
ENDBRANCH  11  24
TORSDOF 9
ENDMDL
MODEL 3
REMARK VINA RESULT:      -9.7      2.028      3.516
REMARK  Name = 
REMARK  9 active torsions:
REMARK  status: ('A' for Active; 'I' for Inactive)
REMARK    1  A    between atoms: C_2  and  C_4
REMARK    2  A    between atoms: C_4  and  C_5
REMARK    3  A    between atoms: C_5  and  N_6
REMARK    4  A    between atoms: C_5  and  C_33
REMARK    5  A    between atoms: C_7  and  C_9
REMARK    6  A    between atoms: C_11  and  N_24
REMARK    7  A    between atoms: C_15  and  C_17
REMARK    8  A    between atoms: N_24  and  S_25
REMARK    9  A    between atoms: S_25  and  C_28
REMARK                            x       y       z     vdW  Elec       q    Type
REMARK                         _______ _______ _______ _____ _____    ______ ____
ROOT
ATOM      9  C   UNL     1      -2.149   1.346  24.502  0.00  0.00    +0.155 C 
ATOM     10  C   UNL     1      -2.864   1.703  24.299  0.00  0.00    +0.049 C 
ATOM     11  C   UNL     1      -3.534   1.239  24.165  0.00  0.00    +0.102 C 
ATOM     12  C   UNL     1      -3.487   0.418  24.234  0.00  0.00    +0.041 C 
ATOM     13  C   UNL     1      -2.771   0.062  24.437  0.00  0.00    +0.096 C 
ATOM     14  N   UNL     1      -2.103   0.525  24.571  0.00  0.00    -0.268 N 
ATOM     15  C   UNL     1      -1.387   0.168  24.774  0.00  0.00    +0.267 C 
ATOM     16  O   UNL     1      -0.718   0.632  24.908  0.00  0.00    -0.268 OA
ENDROOT
BRANCH  15  17
ATOM     17  C   UNL     1      -1.340  -0.653  24.844  0.00  0.00    +0.133 A 
ATOM     18  C   UNL     1      -1.447  -1.197  24.233  0.00  0.00    +0.040 A 
ATOM     19  C   UNL     1      -1.352  -1.955  24.548  0.00  0.00    +0.081 A 
ATOM     20  C   UNL     1      -1.412  -2.664  24.131  0.00  0.00    +0.054 C 
ATOM     21  N   UNL     1      -1.186  -1.877  25.352  0.00  0.00    -0.173 NA
ATOM     22  N   UNL     1      -1.179  -1.072  25.535  0.00  0.00    -0.245 N 
ATOM     23  C   UNL     1      -1.036  -0.746  26.279  0.00  0.00    +0.154 C 
ENDBRANCH  15  17
BRANCH   9   7
ATOM      6  N   UNL     1      -1.503   2.414  25.197  0.00  0.00    -0.196 NA
ATOM      7  C   UNL     1      -1.480   1.810  24.636  0.00  0.00    +0.260 C 
ATOM      8  O   UNL     1      -0.789   1.669  24.210  0.00  0.00    -0.272 OA
BRANCH   6   5
ATOM      5  C   UNL     1      -0.834   2.879  25.331  0.00  0.00    +0.174 C 
BRANCH   5  33
ATOM     33  C   UNL     1      -0.364   2.742  25.994  0.00  0.00    +0.281 C 
ATOM     34  N   UNL     1       0.452   2.642  25.908  0.00  0.00    -0.086 NA
ATOM     35  O   UNL     1      -0.706   2.706  26.743  0.00  0.00    -0.270 OA
ENDBRANCH   5  33
BRANCH   5   4
ATOM      4  C   UNL     1      -0.636   3.479  24.801  0.00  0.00    +0.031 C 
BRANCH   4   2
ATOM      1  C   UNL     1      -0.464   4.889  24.644  0.00  0.00    +0.000 C 
ATOM      2  C   UNL     1      -0.897   4.251  24.936  0.00  0.00    +0.002 C 
ATOM      3  C   UNL     1      -1.589   4.383  25.363  0.00  0.00    +0.000 C 
ENDBRANCH   4   2
ENDBRANCH   5   4
ENDBRANCH   6   5
ENDBRANCH   9   7
BRANCH  11  24
ATOM     24  N   UNL     1      -4.249   1.597  23.962  0.00  0.00    -0.079 NA
BRANCH  24  25
ATOM     25  S   UNL     1      -4.740   1.901  24.552  0.00  0.00    +0.082 S 
ATOM     26  O   UNL     1      -4.951   1.133  24.772  0.00  0.00    -0.151 OA
ATOM     27  O   UNL     1      -4.528   2.667  24.331  0.00  0.00    -0.151 OA
BRANCH  25  28
ATOM     28  C   UNL     1      -5.230   2.205  25.141  0.00  0.00    +0.153 A 
ATOM     29  C   UNL     1      -5.808   1.787  25.555  0.00  0.00    +0.027 A 
ATOM     30  C   UNL     1      -6.164   2.305  26.090  0.00  0.00    +0.009 A 
ATOM     31  C   UNL     1      -5.805   3.043  26.006  0.00  0.00    +0.037 A 
ATOM     32  S   UNL     1      -5.228   2.982  25.420  0.00  0.00    -0.067 S 
ENDBRANCH  25  28
ENDBRANCH  24  25
ENDBRANCH  11  24
TORSDOF 9
ENDMDL
MODEL 4
REMARK VINA RESULT:      -9.7      1.844      4.150
REMARK  Name = 
REMARK  9 active torsions:
REMARK  status: ('A' for Active; 'I' for Inactive)
REMARK    1  A    between atoms: C_2  and  C_4
REMARK    2  A    between atoms: C_4  and  C_5
REMARK    3  A    between atoms: C_5  and  N_6
REMARK    4  A    between atoms: C_5  and  C_33
REMARK    5  A    between atoms: C_7  and  C_9
REMARK    6  A    between atoms: C_11  and  N_24
REMARK    7  A    between atoms: C_15  and  C_17
REMARK    8  A    between atoms: N_24  and  S_25
REMARK    9  A    between atoms: S_25  and  C_28
REMARK                            x       y       z     vdW  Elec       q    Type
REMARK                         _______ _______ _______ _____ _____    ______ ____
ROOT
ATOM      9  C   UNL     1      -2.365   0.906  24.806  0.00  0.00    +0.155 C 
ATOM     10  C   UNL     1      -2.878   1.494  24.537  0.00  0.00    +0.049 C 
ATOM     11  C   UNL     1      -3.576   1.286  24.150  0.00  0.00    +0.102 C 
ATOM     12  C   UNL     1      -3.762   0.491  24.031  0.00  0.00    +0.041 C 
ATOM     13  C   UNL     1      -3.248  -0.096  24.300  0.00  0.00    +0.096 C 
ATOM     14  N   UNL     1      -2.550   0.111  24.687  0.00  0.00    -0.268 N 
ATOM     15  C   UNL     1      -2.037  -0.476  24.956  0.00  0.00    +0.267 C 
ATOM     16  O   UNL     1      -1.339  -0.269  25.343  0.00  0.00    -0.268 OA
ENDROOT
BRANCH  15  17
ATOM     17  C   UNL     1      -2.222  -1.272  24.837  0.00  0.00    +0.133 A 
ATOM     18  C   UNL     1      -2.910  -1.652  25.090  0.00  0.00    +0.040 A 
ATOM     19  C   UNL     1      -2.865  -2.442  24.854  0.00  0.00    +0.081 A 
ATOM     20  C   UNL     1      -3.435  -3.022  24.991  0.00  0.00    +0.054 C 
ATOM     21  N   UNL     1      -2.150  -2.549  24.456  0.00  0.00    -0.173 NA
ATOM     22  N   UNL     1      -1.753  -1.825  24.446  0.00  0.00    -0.245 N 
ATOM     23  C   UNL     1      -1.016  -1.682  24.104  0.00  0.00    +0.154 C 
ENDBRANCH  15  17
BRANCH   9   7
ATOM      6  N   UNL     1      -1.229   1.763  24.934  0.00  0.00    -0.196 NA
ATOM      7  C   UNL     1      -1.666   1.114  25.194  0.00  0.00    +0.260 C 
ATOM      8  O   UNL     1      -1.407   0.673  25.839  0.00  0.00    -0.272 OA
BRANCH   6   5
ATOM      5  C   UNL     1      -0.530   1.971  25.322  0.00  0.00    +0.174 C 
BRANCH   5  33
ATOM     33  C   UNL     1      -0.558   2.447  25.994  0.00  0.00    +0.281 C 
ATOM     34  N   UNL     1      -1.034   3.121  26.003  0.00  0.00    -0.086 NA
ATOM     35  O   UNL     1      -0.109   2.251  26.658  0.00  0.00    -0.270 OA
ENDBRANCH   5  33
BRANCH   5   4
ATOM      4  C   UNL     1       0.195   1.702  25.036  0.00  0.00    +0.031 C 
BRANCH   4   2
ATOM      1  C   UNL     1       0.933   1.552  23.821  0.00  0.00    +0.000 C 
ATOM      2  C   UNL     1       0.514   2.029  24.348  0.00  0.00    +0.002 C 
ATOM      3  C   UNL     1       0.415   2.831  24.189  0.00  0.00    +0.000 C 
ENDBRANCH   4   2
ENDBRANCH   5   4
ENDBRANCH   6   5
ENDBRANCH   9   7
BRANCH  11  24
ATOM     24  N   UNL     1      -4.089   1.874  23.881  0.00  0.00    -0.079 NA
BRANCH  24  25
ATOM     25  S   UNL     1      -4.562   2.285  24.419  0.00  0.00    +0.082 S 
ATOM     26  O   UNL     1      -5.026   1.611  24.526  0.00  0.00    -0.151 OA
ATOM     27  O   UNL     1      -4.098   2.959  24.312  0.00  0.00    -0.151 OA
BRANCH  25  28
ATOM     28  C   UNL     1      -5.035   2.696  24.955  0.00  0.00    +0.153 A 
ATOM     29  C   UNL     1      -5.730   2.418  25.302  0.00  0.00    +0.027 A 
ATOM     30  C   UNL     1      -6.020   3.007  25.801  0.00  0.00    +0.009 A 
ATOM     31  C   UNL     1      -5.504   3.650  25.762  0.00  0.00    +0.037 A 
ATOM     32  S   UNL     1      -4.895   3.458  25.240  0.00  0.00    -0.067 S 
ENDBRANCH  25  28
ENDBRANCH  24  25
ENDBRANCH  11  24
TORSDOF 9
ENDMDL
MODEL 5
REMARK VINA RESULT:      -9.4      2.192      4.086
REMARK  Name = 
REMARK  9 active torsions:
REMARK  status: ('A' for Active; 'I' for Inactive)
REMARK    1  A    between atoms: C_2  and  C_4
REMARK    2  A    between atoms: C_4  and  C_5
REMARK    3  A    between atoms: C_5  and  N_6
REMARK    4  A    between atoms: C_5  and  C_33
REMARK    5  A    between atoms: C_7  and  C_9
REMARK    6  A    between atoms: C_11  and  N_24
REMARK    7  A    between atoms: C_15  and  C_17
REMARK    8  A    between atoms: N_24  and  S_25
REMARK    9  A    between atoms: S_25  and  C_28
REMARK                            x       y       z     vdW  Elec       q    Type
REMARK                         _______ _______ _______ _____ _____    ______ ____
ROOT
ATOM      9  C   UNL     1      -1.856   1.261  24.822  0.00  0.00    +0.155 C 
ATOM     10  C   UNL     1      -1.866   1.927  25.309  0.00  0.00    +0.049 C 
ATOM     11  C   UNL     1      -1.156   2.264  25.561  0.00  0.00    +0.102 C 
ATOM     12  C   UNL     1      -0.437   1.935  25.326  0.00  0.00    +0.041 C 
ATOM     13  C   UNL     1      -0.428   1.269  24.839  0.00  0.00    +0.096 C 
ATOM     14  N   UNL     1      -1.137   0.932  24.587  0.00  0.00    -0.268 N 
ATOM     15  C   UNL     1      -1.128   0.266  24.100  0.00  0.00    +0.267 C 
ATOM     16  O   UNL     1      -1.837  -0.071  23.848  0.00  0.00    -0.268 OA
ENDROOT
BRANCH  15  17
ATOM     17  C   UNL     1      -0.408  -0.064  23.865  0.00  0.00    +0.133 A 
ATOM     18  C   UNL     1       0.130   0.274  23.339  0.00  0.00    +0.040 A 
ATOM     19  C   UNL     1       0.770  -0.242  23.264  0.00  0.00    +0.081 A 
ATOM     20  C   UNL     1       1.436  -0.122  22.791  0.00  0.00    +0.054 C 
ATOM     21  N   UNL     1       0.627  -0.897  23.744  0.00  0.00    -0.173 NA
ATOM     22  N   UNL     1      -0.102  -0.786  24.116  0.00  0.00    -0.245 N 
ATOM     23  C   UNL     1      -0.459  -1.309  24.645  0.00  0.00    +0.154 C 
ENDBRANCH  15  17
BRANCH   9   7
ATOM      6  N   UNL     1      -3.184   0.817  25.106  0.00  0.00    -0.196 NA
ATOM      7  C   UNL     1      -2.566   0.924  24.570  0.00  0.00    +0.260 C 
ATOM      8  O   UNL     1      -2.658   0.695  23.784  0.00  0.00    -0.272 OA
BRANCH   6   5
ATOM      5  C   UNL     1      -3.894   0.480  24.854  0.00  0.00    +0.174 C 
BRANCH   5  33
ATOM     33  C   UNL     1      -4.059  -0.310  25.022  0.00  0.00    +0.281 C 
ATOM     34  N   UNL     1      -4.351  -0.807  24.431  0.00  0.00    -0.086 NA
ATOM     35  O   UNL     1      -3.931  -0.605  25.782  0.00  0.00    -0.270 OA
ENDBRANCH   5  33
BRANCH   5   4
ATOM      4  C   UNL     1      -4.439   0.934  24.433  0.00  0.00    +0.031 C 
BRANCH   4   2
ATOM      1  C   UNL     1      -5.034   2.220  24.621  0.00  0.00    +0.000 C 
ATOM      2  C   UNL     1      -4.965   1.426  24.837  0.00  0.00    +0.002 C 
ATOM      3  C   UNL     1      -5.419   1.126  25.454  0.00  0.00    +0.000 C 
ENDBRANCH   4   2
ENDBRANCH   5   4
ENDBRANCH   6   5
ENDBRANCH   9   7
BRANCH  11  24
ATOM     24  N   UNL     1      -1.166   2.930  26.048  0.00  0.00    -0.079 NA
BRANCH  24  25
ATOM     25  S   UNL     1      -1.270   3.680  25.718  0.00  0.00    +0.082 S 
ATOM     26  O   UNL     1      -0.498   3.658  25.425  0.00  0.00    -0.151 OA
ATOM     27  O   UNL     1      -2.041   3.701  26.011  0.00  0.00    -0.151 OA
BRANCH  25  28
ATOM     28  C   UNL     1      -1.373   4.429  25.389  0.00  0.00    +0.153 A 
ATOM     29  C   UNL     1      -0.798   4.871  24.997  0.00  0.00    +0.027 A 
ATOM     30  C   UNL     1      -1.140   5.583  24.759  0.00  0.00    +0.009 A 
ATOM     31  C   UNL     1      -1.927   5.581  25.006  0.00  0.00    +0.037 A 
ATOM     32  S   UNL     1      -2.072   4.868  25.395  0.00  0.00    -0.067 S 
ENDBRANCH  25  28
ENDBRANCH  24  25
ENDBRANCH  11  24
TORSDOF 9
ENDMDL
MODEL 6
REMARK VINA RESULT:      -9.3      1.615      3.697
REMARK  Name = 
REMARK  9 active torsions:
REMARK  status: ('A' for Active; 'I' for Inactive)
REMARK    1  A    between atoms: C_2  and  C_4
REMARK    2  A    between atoms: C_4  and  C_5
REMARK    3  A    between atoms: C_5  and  N_6
REMARK    4  A    between atoms: C_5  and  C_33
REMARK    5  A    between atoms: C_7  and  C_9
REMARK    6  A    between atoms: C_11  and  N_24
REMARK    7  A    between atoms: C_15  and  C_17
REMARK    8  A    between atoms: N_24  and  S_25
REMARK    9  A    between atoms: S_25  and  C_28
REMARK                            x       y       z     vdW  Elec       q    Type
REMARK                         _______ _______ _______ _____ _____    ______ ____
ROOT
ATOM      9  C   UNL     1      -2.623   1.734  24.927  0.00  0.00    +0.155 C 
ATOM     10  C   UNL     1      -2.411   1.056  24.508  0.00  0.00    +0.049 C 
ATOM     11  C   UNL     1      -2.991   0.605  24.133  0.00  0.00    +0.102 C 
ATOM     12  C   UNL     1      -3.783   0.832  24.178  0.00  0.00    +0.041 C 
ATOM     13  C   UNL     1      -3.994   1.510  24.598  0.00  0.00    +0.096 C 
ATOM     14  N   UNL     1      -3.415   1.961  24.973  0.00  0.00    -0.268 N 
ATOM     15  C   UNL     1      -3.626   2.639  25.393  0.00  0.00    +0.267 C 
ATOM     16  O   UNL     1      -3.046   3.090  25.767  0.00  0.00    -0.268 OA
ENDROOT
BRANCH  15  17
ATOM     17  C   UNL     1      -4.418   2.866  25.438  0.00  0.00    +0.133 A 
ATOM     18  C   UNL     1      -5.027   2.432  25.786  0.00  0.00    +0.040 A 
ATOM     19  C   UNL     1      -5.726   2.865  25.706  0.00  0.00    +0.081 A 
ATOM     20  C   UNL     1      -6.471   2.636  25.976  0.00  0.00    +0.054 C 
ATOM     21  N   UNL     1      -5.548   3.565  25.309  0.00  0.00    -0.173 NA
ATOM     22  N   UNL     1      -4.739   3.566  25.143  0.00  0.00    -0.245 N 
ATOM     23  C   UNL     1      -4.326   4.163  24.751  0.00  0.00    +0.154 C 
ENDBRANCH  15  17
BRANCH   9   7
ATOM      6  N   UNL     1      -1.382   2.442  24.879  0.00  0.00    -0.196 NA
ATOM      7  C   UNL     1      -2.042   2.185  25.302  0.00  0.00    +0.260 C 
ATOM      8  O   UNL     1      -2.121   2.379  26.099  0.00  0.00    -0.272 OA
BRANCH   6   5
ATOM      5  C   UNL     1      -0.801   2.893  25.254  0.00  0.00    +0.174 C 
BRANCH   5  33
ATOM     33  C   UNL     1      -0.140   2.525  25.579  0.00  0.00    +0.281 C 
ATOM     34  N   UNL     1       0.330   2.032  25.113  0.00  0.00    -0.086 NA
ATOM     35  O   UNL     1       0.053   2.649  26.372  0.00  0.00    -0.270 OA
ENDBRANCH   5  33
BRANCH   5   4
ATOM      4  C   UNL     1      -0.884   3.712  25.302  0.00  0.00    +0.031 C 
BRANCH   4   2
ATOM      1  C   UNL     1      -0.674   5.012  24.745  0.00  0.00    +0.000 C 
ATOM      2  C   UNL     1      -0.594   4.192  24.696  0.00  0.00    +0.002 C 
ATOM      3  C   UNL     1      -0.223   3.852  24.043  0.00  0.00    +0.000 C 
ENDBRANCH   4   2
ENDBRANCH   5   4
ENDBRANCH   6   5
ENDBRANCH   9   7
BRANCH  11  24
ATOM     24  N   UNL     1      -2.779  -0.073  23.713  0.00  0.00    -0.079 NA
BRANCH  24  25
ATOM     25  S   UNL     1      -2.988  -0.818  24.001  0.00  0.00    +0.082 S 
ATOM     26  O   UNL     1      -3.711  -0.768  23.606  0.00  0.00    -0.151 OA
ATOM     27  O   UNL     1      -2.265  -0.867  24.396  0.00  0.00    -0.151 OA
BRANCH  25  28
ATOM     28  C   UNL     1      -3.196  -1.562  24.289  0.00  0.00    +0.153 A 
ATOM     29  C   UNL     1      -3.859  -2.000  24.069  0.00  0.00    +0.027 A 
ATOM     30  C   UNL     1      -3.850  -2.708  24.492  0.00  0.00    +0.009 A 
ATOM     31  C   UNL     1      -3.180  -2.708  24.973  0.00  0.00    +0.037 A 
ATOM     32  S   UNL     1      -2.775  -2.000  24.848  0.00  0.00    -0.067 S 
ENDBRANCH  25  28
ENDBRANCH  24  25
ENDBRANCH  11  24
TORSDOF 9
ENDMDL
