MODEL 1
REMARK VINA RESULT:     -11.9      0.000      0.000
REMARK  Name = 
REMARK  8 active torsions:
REMARK  status: ('A' for Active; 'I' for Inactive)
REMARK    1  A    between atoms: C_2  and  C_5
REMARK    2  A    between atoms: C_7  and  C_8
REMARK    3  A    between atoms: C_8  and  C_9
REMARK    4  A    between atoms: C_9  and  N_13
REMARK    5  A    between atoms: N_13  and  C_14
REMARK    6  A    between atoms: C_14  and  C_15
REMARK    7  A    between atoms: C_18  and  O_19
REMARK    8  A    between atoms: O_19  and  C_20
REMARK                            x       y       z     vdW  Elec       q    Type
REMARK                         _______ _______ _______ _____ _____    ______ ____
ROOT
ATOM      9  C   UNL     1      -4.688   2.382  25.070  0.00  0.00    +0.120 C 
ATOM     10  C   UNL     1      -5.317   2.055  25.493  0.00  0.00    +0.161 C 
ATOM     11  O   UNL     1      -5.705   2.783  25.479  0.00  0.00    -0.351 OA
ATOM     12  C   UNL     1      -5.076   3.110  25.056  0.00  0.00    +0.161 C 
ENDROOT
BRANCH   9   8
ATOM      8  C   UNL     1      -4.060   2.709  24.648  0.00  0.00    +0.070 C 
BRANCH   8   7
ATOM      5  C   UNL     1      -2.357   3.810  25.315  0.00  0.00    +0.153 A 
ATOM      6  C   UNL     1      -2.746   3.362  24.742  0.00  0.00    +0.054 A 
ATOM      7  C   UNL     1      -3.488   3.157  25.039  0.00  0.00    +0.102 A 
ATOM     26  N   UNL     1      -3.558   3.478  25.795  0.00  0.00    -0.082 NA
ATOM     27  O   UNL     1      -2.860   3.882  25.966  0.00  0.00    -0.358 OA
BRANCH   5   2
ATOM      1  C   UNL     1      -0.843   4.452  25.184  0.00  0.00    +0.008 C 
ATOM      2  C   UNL     1      -1.600   4.131  25.250  0.00  0.00    +0.054 C 
ATOM      3  C   UNL     1      -1.273   3.380  25.345  0.00  0.00    +0.008 C 
ATOM      4  C   UNL     1      -1.928   4.882  25.154  0.00  0.00    +0.008 C 
ENDBRANCH   5   2
ENDBRANCH   8   7
ENDBRANCH   9   8
BRANCH   9  13
ATOM     13  N   UNL     1      -4.300   1.654  25.085  0.00  0.00    -0.211 NA
BRANCH  13  14
ATOM     14  C   UNL     1      -4.713   0.964  24.895  0.00  0.00    +0.115 C 
BRANCH  14  15
ATOM     15  C   UNL     1      -4.310   0.246  24.839  0.00  0.00    -0.005 A 
ATOM     16  C   UNL     1      -4.156  -0.082  24.098  0.00  0.00    +0.000 A 
ATOM     17  C   UNL     1      -3.753  -0.800  24.040  0.00  0.00    +0.037 A 
ATOM     18  C   UNL     1      -3.505  -1.189  24.724  0.00  0.00    +0.147 A 
ATOM     24  C   UNL     1      -3.660  -0.861  25.465  0.00  0.00    +0.037 A 
ATOM     25  C   UNL     1      -4.062  -0.143  25.522  0.00  0.00    +0.000 A 
BRANCH  18  19
ATOM     19  O   UNL     1      -3.103  -1.908  24.667  0.00  0.00    -0.404 OA
BRANCH  19  20
ATOM     20  C   UNL     1      -3.525  -2.615  24.623  0.00  0.00    +0.575 C 
ATOM     21  F   UNL     1      -3.948  -3.321  24.577  0.00  0.00    -0.133 F 
ATOM     22  F   UNL     1      -3.549  -2.548  23.801  0.00  0.00    -0.133 F 
ATOM     23  F   UNL     1      -3.501  -2.681  25.445  0.00  0.00    -0.133 F 
ENDBRANCH  19  20
ENDBRANCH  18  19
ENDBRANCH  14  15
ENDBRANCH  13  14
ENDBRANCH   9  13
TORSDOF 8
ENDMDL
MODEL 2
REMARK VINA RESULT:     -11.5      2.884      5.164
REMARK  Name = 
REMARK  8 active torsions:
REMARK  status: ('A' for Active; 'I' for Inactive)
REMARK    1  A    between atoms: C_2  and  C_5
REMARK    2  A    between atoms: C_7  and  C_8
REMARK    3  A    between atoms: C_8  and  C_9
REMARK    4  A    between atoms: C_9  and  N_13
REMARK    5  A    between atoms: N_13  and  C_14
REMARK    6  A    between atoms: C_14  and  C_15
REMARK    7  A    between atoms: C_18  and  O_19
REMARK    8  A    between atoms: O_19  and  C_20
REMARK                            x       y       z     vdW  Elec       q    Type
REMARK                         _______ _______ _______ _____ _____    ______ ____
ROOT
ATOM      9  C   UNL     1      -4.911   1.724  24.995  0.00  0.00    +0.120 C 
ATOM     10  C   UNL     1      -5.307   2.261  25.481  0.00  0.00    +0.161 C 
ATOM     11  O   UNL     1      -6.021   1.879  25.319  0.00  0.00    -0.351 OA
ATOM     12  C   UNL     1      -5.625   1.343  24.833  0.00  0.00    +0.161 C 
ENDROOT
BRANCH   9   8
ATOM      8  C   UNL     1      -4.515   1.187  24.509  0.00  0.00    +0.070 C 
BRANCH   8   7
ATOM      5  C   UNL     1      -3.972  -0.851  24.837  0.00  0.00    +0.153 A 
ATOM      6  C   UNL     1      -4.096  -0.211  24.332  0.00  0.00    +0.054 A 
ATOM      7  C   UNL     1      -4.332   0.433  24.790  0.00  0.00    +0.102 A 
ATOM     26  N   UNL     1      -4.355   0.192  25.578  0.00  0.00    -0.082 NA
ATOM     27  O   UNL     1      -4.132  -0.602  25.607  0.00  0.00    -0.358 OA
BRANCH   5   2
ATOM      1  C   UNL     1      -3.488  -2.363  24.388  0.00  0.00    +0.008 C 
ATOM      2  C   UNL     1      -3.730  -1.607  24.612  0.00  0.00    +0.054 C 
ATOM      3  C   UNL     1      -4.256  -1.587  23.977  0.00  0.00    +0.008 C 
ATOM      4  C   UNL     1      -3.204  -1.626  25.247  0.00  0.00    +0.008 C 
ENDBRANCH   5   2
ENDBRANCH   8   7
ENDBRANCH   9   8
BRANCH   9  13
ATOM     13  N   UNL     1      -4.197   2.105  25.157  0.00  0.00    -0.211 NA
BRANCH  13  14
ATOM     14  C   UNL     1      -4.108   2.905  24.976  0.00  0.00    +0.115 C 
BRANCH  14  15
ATOM     15  C   UNL     1      -3.385   3.279  25.110  0.00  0.00    -0.005 A 
ATOM     16  C   UNL     1      -3.273   3.727  25.794  0.00  0.00    +0.000 A 
ATOM     17  C   UNL     1      -2.550   4.101  25.929  0.00  0.00    +0.037 A 
ATOM     18  C   UNL     1      -1.939   4.028  25.379  0.00  0.00    +0.147 A 
ATOM     24  C   UNL     1      -2.051   3.580  24.695  0.00  0.00    +0.037 A 
ATOM     25  C   UNL     1      -2.774   3.206  24.561  0.00  0.00    +0.000 A 
BRANCH  18  19
ATOM     19  O   UNL     1      -1.216   4.402  25.514  0.00  0.00    -0.404 OA
BRANCH  19  20
ATOM     20  C   UNL     1      -0.982   5.032  25.035  0.00  0.00    +0.575 C 
ATOM     21  F   UNL     1      -0.749   5.661  24.556  0.00  0.00    -0.133 F 
ATOM     22  F   UNL     1      -0.506   4.521  24.596  0.00  0.00    -0.133 F 
ATOM     23  F   UNL     1      -1.459   5.543  25.474  0.00  0.00    -0.133 F 
ENDBRANCH  19  20
ENDBRANCH  18  19
ENDBRANCH  14  15
ENDBRANCH  13  14
ENDBRANCH   9  13
TORSDOF 8
ENDMDL
MODEL 3
REMARK VINA RESULT:     -10.3      1.977      2.901
REMARK  Name = 
REMARK  8 active torsions:
REMARK  status: ('A' for Active; 'I' for Inactive)
REMARK    1  A    between atoms: C_2  and  C_5
REMARK    2  A    between atoms: C_7  and  C_8
REMARK    3  A    between atoms: C_8  and  C_9
REMARK    4  A    between atoms: C_9  and  N_13
REMARK    5  A    between atoms: N_13  and  C_14
REMARK    6  A    between atoms: C_14  and  C_15
REMARK    7  A    between atoms: C_18  and  O_19
REMARK    8  A    between atoms: O_19  and  C_20
REMARK                            x       y       z     vdW  Elec       q    Type
REMARK                         _______ _______ _______ _____ _____    ______ ____
ROOT
ATOM      9  C   UNL     1      -0.462   0.926  24.568  0.00  0.00    +0.120 C 
ATOM     10  C   UNL     1      -0.179   0.400  23.998  0.00  0.00    +0.161 C 
ATOM     11  O   UNL     1       0.495   0.865  23.903  0.00  0.00    -0.351 OA
ATOM     12  C   UNL     1       0.213   1.391  24.473  0.00  0.00    +0.161 C 
ENDROOT
BRANCH   9   8
ATOM      8  C   UNL     1      -0.744   1.452  25.138  0.00  0.00    +0.070 C 
BRANCH   8   7
ATOM      5  C   UNL     1      -1.456   3.455  24.945  0.00  0.00    +0.153 A 
ATOM      6  C   UNL     1      -1.145   2.841  25.400  0.00  0.00    +0.054 A 
ATOM      7  C   UNL     1      -1.042   2.186  24.910  0.00  0.00    +0.102 A 
ATOM     26  N   UNL     1      -1.289   2.394  24.151  0.00  0.00    -0.082 NA
ATOM     27  O   UNL     1      -1.546   3.178  24.172  0.00  0.00    -0.358 OA
BRANCH   5   2
ATOM      1  C   UNL     1      -1.833   4.968  25.481  0.00  0.00    +0.008 C 
ATOM      2  C   UNL     1      -1.645   4.211  25.213  0.00  0.00    +0.054 C 
ATOM      3  C   UNL     1      -2.347   3.922  25.537  0.00  0.00    +0.008 C 
ATOM      4  C   UNL     1      -0.944   4.500  24.889  0.00  0.00    +0.008 C 
ENDBRANCH   5   2
ENDBRANCH   8   7
ENDBRANCH   9   8
BRANCH   9  13
ATOM     13  N   UNL     1      -1.136   0.460  24.663  0.00  0.00    -0.211 NA
BRANCH  13  14
ATOM     14  C   UNL     1      -1.076  -0.286  25.009  0.00  0.00    +0.115 C 
BRANCH  14  15
ATOM     15  C   UNL     1      -1.723  -0.799  24.999  0.00  0.00    -0.005 A 
ATOM     16  C   UNL     1      -1.671  -1.520  24.602  0.00  0.00    +0.000 A 
ATOM     17  C   UNL     1      -2.317  -2.033  24.591  0.00  0.00    +0.037 A 
ATOM     18  C   UNL     1      -3.015  -1.824  24.978  0.00  0.00    +0.147 A 
ATOM     24  C   UNL     1      -3.067  -1.102  25.375  0.00  0.00    +0.037 A 
ATOM     25  C   UNL     1      -2.420  -0.590  25.386  0.00  0.00    +0.000 A 
BRANCH  18  19
ATOM     19  O   UNL     1      -3.662  -2.337  24.967  0.00  0.00    -0.404 OA
BRANCH  19  20
ATOM     20  C   UNL     1      -4.069  -2.473  24.262  0.00  0.00    +0.575 C 
ATOM     21  F   UNL     1      -4.475  -2.609  23.558  0.00  0.00    -0.133 F 
ATOM     22  F   UNL     1      -4.475  -1.762  24.360  0.00  0.00    -0.133 F 
ATOM     23  F   UNL     1      -3.662  -3.184  24.165  0.00  0.00    -0.133 F 
ENDBRANCH  19  20
ENDBRANCH  18  19
ENDBRANCH  14  15
ENDBRANCH  13  14
ENDBRANCH   9  13
TORSDOF 8
ENDMDL
MODEL 4
REMARK VINA RESULT:     -10.2      2.793      5.180
REMARK  Name = 
REMARK  8 active torsions:
REMARK  status: ('A' for Active; 'I' for Inactive)
REMARK    1  A    between atoms: C_2  and  C_5
REMARK    2  A    between atoms: C_7  and  C_8
REMARK    3  A    between atoms: C_8  and  C_9
REMARK    4  A    between atoms: C_9  and  N_13
REMARK    5  A    between atoms: N_13  and  C_14
REMARK    6  A    between atoms: C_14  and  C_15
REMARK    7  A    between atoms: C_18  and  O_19
REMARK    8  A    between atoms: O_19  and  C_20
REMARK                            x       y       z     vdW  Elec       q    Type
REMARK                         _______ _______ _______ _____ _____    ______ ____
ROOT
ATOM      9  C   UNL     1      -1.144   0.794  24.458  0.00  0.00    +0.120 C 
ATOM     10  C   UNL     1      -0.900   1.248  23.813  0.00  0.00    +0.161 C 
ATOM     11  O   UNL     1      -0.168   0.868  23.823  0.00  0.00    -0.351 OA
ATOM     12  C   UNL     1      -0.411   0.415  24.467  0.00  0.00    +0.161 C 
ENDROOT
BRANCH   9   8
ATOM      8  C   UNL     1      -1.388   0.340  25.101  0.00  0.00    +0.070 C 
BRANCH   8   7
ATOM      5  C   UNL     1      -2.321  -1.571  24.913  0.00  0.00    +0.153 A 
ATOM      6  C   UNL     1      -2.360  -0.762  25.069  0.00  0.00    +0.054 A 
ATOM      7  C   UNL     1      -1.601  -0.450  24.993  0.00  0.00    +0.102 A 
ATOM     26  N   UNL     1      -1.091  -1.065  24.789  0.00  0.00    -0.082 NA
ATOM     27  O   UNL     1      -1.536  -1.758  24.739  0.00  0.00    -0.358 OA
BRANCH   5   2
ATOM      1  C   UNL     1      -3.585  -2.630  24.940  0.00  0.00    +0.008 C 
ATOM      2  C   UNL     1      -2.953  -2.100  24.926  0.00  0.00    +0.054 C 
ATOM      3  C   UNL     1      -3.323  -1.644  25.506  0.00  0.00    +0.008 C 
ATOM      4  C   UNL     1      -2.583  -2.556  24.347  0.00  0.00    +0.008 C 
ENDBRANCH   5   2
ENDBRANCH   8   7
ENDBRANCH   9   8
BRANCH   9  13
ATOM     13  N   UNL     1      -1.877   1.174  24.447  0.00  0.00    -0.211 NA
BRANCH  13  14
ATOM     14  C   UNL     1      -1.914   1.993  24.355  0.00  0.00    +0.115 C 
BRANCH  14  15
ATOM     15  C   UNL     1      -2.627   2.389  24.481  0.00  0.00    -0.005 A 
ATOM     16  C   UNL     1      -2.717   2.872  25.144  0.00  0.00    +0.000 A 
ATOM     17  C   UNL     1      -3.430   3.269  25.272  0.00  0.00    +0.037 A 
ATOM     18  C   UNL     1      -4.051   3.182  24.735  0.00  0.00    +0.147 A 
ATOM     24  C   UNL     1      -3.960   2.699  24.073  0.00  0.00    +0.037 A 
ATOM     25  C   UNL     1      -3.248   2.303  23.946  0.00  0.00    +0.000 A 
BRANCH  18  19
ATOM     19  O   UNL     1      -4.764   3.579  24.862  0.00  0.00    -0.404 OA
BRANCH  19  20
ATOM     20  C   UNL     1      -5.289   3.309  25.439  0.00  0.00    +0.575 C 
ATOM     21  F   UNL     1      -5.814   3.039  26.014  0.00  0.00    -0.133 F 
ATOM     22  F   UNL     1      -4.958   3.831  25.985  0.00  0.00    -0.133 F 
ATOM     23  F   UNL     1      -5.621   2.787  24.892  0.00  0.00    -0.133 F 
ENDBRANCH  19  20
ENDBRANCH  18  19
ENDBRANCH  14  15
ENDBRANCH  13  14
ENDBRANCH   9  13
TORSDOF 8
ENDMDL
