MODEL 1
REMARK VINA RESULT:     -11.3      0.000      0.000
REMARK  Name = 
REMARK  7 active torsions:
REMARK  status: ('A' for Active; 'I' for Inactive)
REMARK    1  A    between atoms: C_2  and  C_3
REMARK    2  A    between atoms: N_5  and  S_21
REMARK    3  A    between atoms: C_8  and  C_9
REMARK    4  A    between atoms: C_9  and  C_10
REMARK    5  A    between atoms: N_12  and  C_13
REMARK    6  A    between atoms: C_13  and  C_14
REMARK    7  A    between atoms: S_21  and  C_24
REMARK                            x       y       z     vdW  Elec       q    Type
REMARK                         _______ _______ _______ _____ _____    ______ ____
ROOT
ATOM      3  C   UNL     1      -0.643   1.291  24.467  0.00  0.00    +0.018 C 
ATOM      4  C   UNL     1      -0.769   2.105  24.505  0.00  0.00    +0.096 C 
ATOM      5  N   UNL     1      -1.181   2.429  25.142  0.00  0.00    -0.155 NA
ATOM      6  C   UNL     1      -1.467   1.940  25.740  0.00  0.00    +0.096 C 
ATOM      7  C   UNL     1      -1.341   1.125  25.703  0.00  0.00    +0.020 C 
ATOM      8  C   UNL     1      -0.929   0.801  25.066  0.00  0.00    +0.012 C 
ENDROOT
BRANCH   5  21
ATOM     21  S   UNL     1      -1.307   3.243  25.179  0.00  0.00    +0.067 S 
ATOM     22  O   UNL     1      -1.774   3.203  24.500  0.00  0.00    -0.153 OA
ATOM     23  O   UNL     1      -0.840   3.285  25.858  0.00  0.00    -0.153 OA
BRANCH  21  24
ATOM     24  C   UNL     1      -1.433   4.058  25.216  0.00  0.00    +0.171 A 
ATOM     25  C   UNL     1      -2.090   4.433  25.549  0.00  0.00    +0.173 A 
ATOM     26  C   UNL     1      -2.734   4.058  25.902  0.00  0.00    +0.077 C 
ATOM     27  O   UNL     1      -1.987   5.248  25.465  0.00  0.00    -0.357 OA
ATOM     28  N   UNL     1      -1.268   5.376  25.082  0.00  0.00    -0.080 NA
ATOM     29  C   UNL     1      -0.925   4.642  24.928  0.00  0.00    +0.119 A 
ATOM     30  C   UNL     1      -0.203   4.512  24.552  0.00  0.00    +0.057 C 
ENDBRANCH  21  24
ENDBRANCH   5  21
BRANCH   3   2
ATOM      1  C   UNL     1       0.523   1.244  23.642  0.00  0.00    +0.000 C 
ATOM      2  C   UNL     1      -0.231   0.966  23.831  0.00  0.00    +0.001 C 
ENDBRANCH   3   2
BRANCH   8   9
ATOM      9  C   UNL     1      -0.803  -0.015  25.028  0.00  0.00    +0.087 C 
BRANCH   9  10
ATOM     10  C   UNL     1      -1.345  -0.532  25.374  0.00  0.00    +0.242 C 
ATOM     11  O   UNL     1      -1.305  -0.692  26.182  0.00  0.00    -0.273 OA
ATOM     12  N   UNL     1      -1.926  -0.888  24.910  0.00  0.00    -0.201 NA
BRANCH  12  13
ATOM     13  C   UNL     1      -2.469  -1.405  25.255  0.00  0.00    +0.141 C 
BRANCH  13  14
ATOM     14  C   UNL     1      -3.062  -1.747  24.795  0.00  0.00    -0.000 A 
ATOM     15  C   UNL     1      -3.042  -2.557  24.632  0.00  0.00    -0.000 A 
ATOM     16  C   UNL     1      -3.635  -2.899  24.172  0.00  0.00    +0.029 A 
ATOM     17  C   UNL     1      -4.247  -2.433  23.875  0.00  0.00    +0.140 A 
ATOM     18  F   UNL     1      -4.840  -2.776  23.415  0.00  0.00    -0.204 F 
ATOM     19  C   UNL     1      -4.268  -1.625  24.039  0.00  0.00    +0.029 A 
ATOM     20  C   UNL     1      -3.674  -1.282  24.499  0.00  0.00    -0.000 A 
ENDBRANCH  13  14
ENDBRANCH  12  13
ENDBRANCH   9  10
ENDBRANCH   8   9
TORSDOF 7
ENDMDL
MODEL 2
REMARK VINA RESULT:     -11.2      2.811      6.056
REMARK  Name = 
REMARK  7 active torsions:
REMARK  status: ('A' for Active; 'I' for Inactive)
REMARK    1  A    between atoms: C_2  and  C_3
REMARK    2  A    between atoms: N_5  and  S_21
REMARK    3  A    between atoms: C_8  and  C_9
REMARK    4  A    between atoms: C_9  and  C_10
REMARK    5  A    between atoms: N_12  and  C_13
REMARK    6  A    between atoms: C_13  and  C_14
REMARK    7  A    between atoms: S_21  and  C_24
REMARK                            x       y       z     vdW  Elec       q    Type
REMARK                         _______ _______ _______ _____ _____    ______ ____
ROOT
ATOM      3  C   UNL     1      -4.855   1.440  24.999  0.00  0.00    +0.018 C 
ATOM      4  C   UNL     1      -4.742   0.623  24.979  0.00  0.00    +0.096 C 
ATOM      5  N   UNL     1      -3.982   0.312  24.899  0.00  0.00    -0.155 NA
ATOM      6  C   UNL     1      -3.334   0.819  24.838  0.00  0.00    +0.096 C 
ATOM      7  C   UNL     1      -3.446   1.636  24.858  0.00  0.00    +0.020 C 
ATOM      8  C   UNL     1      -4.206   1.946  24.939  0.00  0.00    +0.012 C 
ENDROOT
BRANCH   5  21
ATOM     21  S   UNL     1      -3.870  -0.504  24.879  0.00  0.00    +0.067 S 
ATOM     22  O   UNL     1      -4.357  -0.588  25.540  0.00  0.00    -0.153 OA
ATOM     23  O   UNL     1      -3.384  -0.423  24.218  0.00  0.00    -0.153 OA
BRANCH  21  24
ATOM     24  C   UNL     1      -3.759  -1.322  24.859  0.00  0.00    +0.171 A 
ATOM     25  C   UNL     1      -3.376  -1.773  25.435  0.00  0.00    +0.173 A 
ATOM     26  C   UNL     1      -3.038  -1.486  26.130  0.00  0.00    +0.077 C 
ATOM     27  O   UNL     1      -3.392  -2.562  25.191  0.00  0.00    -0.357 OA
ATOM     28  N   UNL     1      -3.783  -2.598  24.466  0.00  0.00    -0.080 NA
ATOM     29  C   UNL     1      -4.011  -1.832  24.260  0.00  0.00    +0.119 A 
ATOM     30  C   UNL     1      -4.418  -1.613  23.578  0.00  0.00    +0.057 C 
ENDBRANCH  21  24
ENDBRANCH   5  21
BRANCH   3   2
ATOM      1  C   UNL     1      -6.256   1.365  24.732  0.00  0.00    +0.000 C 
ATOM      2  C   UNL     1      -5.614   1.750  25.080  0.00  0.00    +0.001 C 
ENDBRANCH   3   2
BRANCH   8   9
ATOM      9  C   UNL     1      -4.318   2.764  24.959  0.00  0.00    +0.087 C 
BRANCH   9  10
ATOM     10  C   UNL     1      -3.861   3.230  25.463  0.00  0.00    +0.242 C 
ATOM     11  O   UNL     1      -4.068   3.304  26.258  0.00  0.00    -0.273 OA
ATOM     12  N   UNL     1      -3.196   3.622  25.171  0.00  0.00    -0.201 NA
BRANCH  12  13
ATOM     13  C   UNL     1      -2.738   4.089  25.676  0.00  0.00    +0.141 C 
BRANCH  13  14
ATOM     14  C   UNL     1      -2.053   4.450  25.393  0.00  0.00    -0.000 A 
ATOM     15  C   UNL     1      -1.365   4.005  25.289  0.00  0.00    -0.000 A 
ATOM     16  C   UNL     1      -0.680   4.366  25.006  0.00  0.00    +0.029 A 
ATOM     17  C   UNL     1      -0.681   5.171  24.828  0.00  0.00    +0.140 A 
ATOM     18  F   UNL     1       0.006   5.532  24.545  0.00  0.00    -0.204 F 
ATOM     19  C   UNL     1      -1.367   5.616  24.932  0.00  0.00    +0.029 A 
ATOM     20  C   UNL     1      -2.054   5.255  25.215  0.00  0.00    -0.000 A 
ENDBRANCH  13  14
ENDBRANCH  12  13
ENDBRANCH   9  10
ENDBRANCH   8   9
TORSDOF 7
ENDMDL
MODEL 3
REMARK VINA RESULT:     -10.8      1.778      2.112
REMARK  Name = 
REMARK  7 active torsions:
REMARK  status: ('A' for Active; 'I' for Inactive)
REMARK    1  A    between atoms: C_2  and  C_3
REMARK    2  A    between atoms: N_5  and  S_21
REMARK    3  A    between atoms: C_8  and  C_9
REMARK    4  A    between atoms: C_9  and  C_10
REMARK    5  A    between atoms: N_12  and  C_13
REMARK    6  A    between atoms: C_13  and  C_14
REMARK    7  A    between atoms: S_21  and  C_24
REMARK                            x       y       z     vdW  Elec       q    Type
REMARK                         _______ _______ _______ _____ _____    ______ ____
ROOT
ATOM      3  C   UNL     1      -3.316   2.215  23.707  0.00  0.00    +0.018 C 
ATOM      4  C   UNL     1      -2.746   2.792  23.858  0.00  0.00    +0.096 C 
ATOM      5  N   UNL     1      -2.653   3.091  24.622  0.00  0.00    -0.155 NA
ATOM      6  C   UNL     1      -3.130   2.812  25.234  0.00  0.00    +0.096 C 
ATOM      7  C   UNL     1      -3.700   2.235  25.084  0.00  0.00    +0.020 C 
ATOM      8  C   UNL     1      -3.793   1.936  24.320  0.00  0.00    +0.012 C 
ENDROOT
BRANCH   5  21
ATOM     21  S   UNL     1      -2.084   3.667  24.773  0.00  0.00    +0.067 S 
ATOM     22  O   UNL     1      -2.427   4.156  24.203  0.00  0.00    -0.153 OA
ATOM     23  O   UNL     1      -1.740   3.180  25.342  0.00  0.00    -0.153 OA
BRANCH  21  24
ATOM     24  C   UNL     1      -1.514   4.245  24.923  0.00  0.00    +0.171 A 
ATOM     25  C   UNL     1      -1.655   4.995  25.237  0.00  0.00    +0.173 A 
ATOM     26  C   UNL     1      -2.390   5.299  25.455  0.00  0.00    +0.077 C 
ATOM     27  O   UNL     1      -0.931   5.388  25.294  0.00  0.00    -0.357 OA
ATOM     28  N   UNL     1      -0.343   4.880  25.016  0.00  0.00    -0.080 NA
ATOM     29  C   UNL     1      -0.703   4.174  24.786  0.00  0.00    +0.119 A 
ATOM     30  C   UNL     1      -0.321   3.513  24.475  0.00  0.00    +0.057 C 
ENDBRANCH  21  24
ENDBRANCH   5  21
BRANCH   3   2
ATOM      1  C   UNL     1      -2.794   1.984  22.397  0.00  0.00    +0.000 C 
ATOM      2  C   UNL     1      -3.408   1.917  22.944  0.00  0.00    +0.001 C 
ENDBRANCH   3   2
BRANCH   8   9
ATOM      9  C   UNL     1      -4.363   1.359  24.169  0.00  0.00    +0.087 C 
BRANCH   9  10
ATOM     10  C   UNL     1      -4.454   0.724  24.688  0.00  0.00    +0.242 C 
ATOM     11  O   UNL     1      -4.812   0.838  25.422  0.00  0.00    -0.273 OA
ATOM     12  N   UNL     1      -4.186  -0.026  24.471  0.00  0.00    -0.201 NA
BRANCH  12  13
ATOM     13  C   UNL     1      -4.276  -0.662  24.990  0.00  0.00    +0.141 C 
BRANCH  13  14
ATOM     14  C   UNL     1      -4.007  -1.411  24.774  0.00  0.00    -0.000 A 
ATOM     15  C   UNL     1      -3.449  -1.799  25.241  0.00  0.00    -0.000 A 
ATOM     16  C   UNL     1      -3.180  -2.548  25.025  0.00  0.00    +0.029 A 
ATOM     17  C   UNL     1      -3.468  -2.909  24.343  0.00  0.00    +0.140 A 
ATOM     18  F   UNL     1      -3.199  -3.659  24.127  0.00  0.00    -0.204 F 
ATOM     19  C   UNL     1      -4.027  -2.522  23.875  0.00  0.00    +0.029 A 
ATOM     20  C   UNL     1      -4.296  -1.772  24.091  0.00  0.00    -0.000 A 
ENDBRANCH  13  14
ENDBRANCH  12  13
ENDBRANCH   9  10
ENDBRANCH   8   9
TORSDOF 7
ENDMDL
MODEL 4
REMARK VINA RESULT:     -10.7      2.318      5.515
REMARK  Name = 
REMARK  7 active torsions:
REMARK  status: ('A' for Active; 'I' for Inactive)
REMARK    1  A    between atoms: C_2  and  C_3
REMARK    2  A    between atoms: N_5  and  S_21
REMARK    3  A    between atoms: C_8  and  C_9
REMARK    4  A    between atoms: C_9  and  C_10
REMARK    5  A    between atoms: N_12  and  C_13
REMARK    6  A    between atoms: C_13  and  C_14
REMARK    7  A    between atoms: S_21  and  C_24
REMARK                            x       y       z     vdW  Elec       q    Type
REMARK                         _______ _______ _______ _____ _____    ______ ____
ROOT
ATOM      3  C   UNL     1      -0.800   0.090  24.319  0.00  0.00    +0.018 C 
ATOM      4  C   UNL     1      -1.365  -0.497  24.191  0.00  0.00    +0.096 C 
ATOM      5  N   UNL     1      -1.993  -0.588  24.718  0.00  0.00    -0.155 NA
ATOM      6  C   UNL     1      -2.055  -0.093  25.374  0.00  0.00    +0.096 C 
ATOM      7  C   UNL     1      -1.490   0.495  25.504  0.00  0.00    +0.020 C 
ATOM      8  C   UNL     1      -0.862   0.586  24.976  0.00  0.00    +0.012 C 
ENDROOT
BRANCH   5  21
ATOM     21  S   UNL     1      -2.558  -1.174  24.589  0.00  0.00    +0.067 S 
ATOM     22  O   UNL     1      -2.592  -0.966  23.792  0.00  0.00    -0.153 OA
ATOM     23  O   UNL     1      -2.525  -1.383  25.387  0.00  0.00    -0.153 OA
BRANCH  21  24
ATOM     24  C   UNL     1      -3.124  -1.762  24.460  0.00  0.00    +0.171 A 
ATOM     25  C   UNL     1      -3.926  -1.637  24.309  0.00  0.00    +0.173 A 
ATOM     26  C   UNL     1      -4.302  -0.905  24.262  0.00  0.00    +0.077 C 
ATOM     27  O   UNL     1      -4.284  -2.375  24.214  0.00  0.00    -0.357 OA
ATOM     28  N   UNL     1      -3.704  -2.954  24.306  0.00  0.00    -0.080 NA
ATOM     29  C   UNL     1      -2.986  -2.576  24.458  0.00  0.00    +0.119 A 
ATOM     30  C   UNL     1      -2.260  -2.944  24.585  0.00  0.00    +0.057 C 
ENDBRANCH  21  24
ENDBRANCH   5  21
BRANCH   3   2
ATOM      1  C   UNL     1       0.231  -0.483  23.513  0.00  0.00    +0.000 C 
ATOM      2  C   UNL     1      -0.173   0.181  23.792  0.00  0.00    +0.001 C 
ENDBRANCH   3   2
BRANCH   8   9
ATOM      9  C   UNL     1      -0.296   1.173  25.105  0.00  0.00    +0.087 C 
BRANCH   9  10
ATOM     10  C   UNL     1      -0.458   1.793  25.625  0.00  0.00    +0.242 C 
ATOM     11  O   UNL     1      -0.401   1.674  26.440  0.00  0.00    -0.273 OA
ATOM     12  N   UNL     1      -0.675   2.531  25.329  0.00  0.00    -0.201 NA
BRANCH  12  13
ATOM     13  C   UNL     1      -0.837   3.152  25.849  0.00  0.00    +0.141 C 
BRANCH  13  14
ATOM     14  C   UNL     1      -1.088   3.881  25.555  0.00  0.00    -0.000 A 
ATOM     15  C   UNL     1      -0.575   4.342  25.102  0.00  0.00    -0.000 A 
ATOM     16  C   UNL     1      -0.826   5.070  24.808  0.00  0.00    +0.029 A 
ATOM     17  C   UNL     1      -1.589   5.338  24.966  0.00  0.00    +0.140 A 
ATOM     18  F   UNL     1      -1.840   6.067  24.671  0.00  0.00    -0.204 F 
ATOM     19  C   UNL     1      -2.103   4.878  25.419  0.00  0.00    +0.029 A 
ATOM     20  C   UNL     1      -1.851   4.148  25.714  0.00  0.00    -0.000 A 
ENDBRANCH  13  14
ENDBRANCH  12  13
ENDBRANCH   9  10
ENDBRANCH   8   9
TORSDOF 7
ENDMDL
