MODEL 1
REMARK VINA RESULT:     -11.6      0.000      0.000
REMARK  Name = 
REMARK  5 active torsions:
REMARK  status: ('A' for Active; 'I' for Inactive)
REMARK    1  A    between atoms: C_5  and  C_6
REMARK    2  A    between atoms: C_6  and  C_7
REMARK    3  A    between atoms: C_22  and  C_23
REMARK    4  A    between atoms: C_23  and  N_24
REMARK    5  A    between atoms: C_25  and  C_27
REMARK                            x       y       z     vdW  Elec       q    Type
REMARK                         _______ _______ _______ _____ _____    ______ ____
ROOT
ATOM      1  O   UNL     1      -5.774   3.990  25.984  0.00  0.00    -0.218 OA
ATOM      2  C   UNL     1      -5.329   3.374  25.663  0.00  0.00    +0.213 C 
ATOM      3  C   UNL     1      -5.627   2.663  25.368  0.00  0.00    +0.212 C 
ATOM      4  O   UNL     1      -6.421   2.444  25.343  0.00  0.00    -0.218 OA
ATOM      5  C   UNL     1      -4.990   2.211  25.103  0.00  0.00    +0.157 C 
ATOM     21  O   UNL     1      -4.299   2.642  25.234  0.00  0.00    -0.351 OA
ATOM     22  C   UNL     1      -4.508   3.361  25.580  0.00  0.00    +0.170 C 
ENDROOT
BRANCH   5   6
ATOM      6  C   UNL     1      -5.036   1.459  24.766  0.00  0.00    +0.117 C 
BRANCH   6   7
ATOM      7  C   UNL     1      -4.441   1.199  24.258  0.00  0.00    +0.228 C 
ATOM      8  O   UNL     1      -4.168   1.691  23.655  0.00  0.00    -0.275 OA
ATOM      9  N   UNL     1      -4.119   0.445  24.352  0.00  0.00    -0.276 N 
ATOM     10  C   UNL     1      -3.525   0.184  23.844  0.00  0.00    +0.115 C 
ATOM     11  C   UNL     1      -3.203  -0.569  23.937  0.00  0.00    +0.114 C 
ATOM     12  N   UNL     1      -3.476  -1.063  24.539  0.00  0.00    -0.290 N 
ATOM     13  C   UNL     1      -4.071  -0.802  25.048  0.00  0.00    +0.114 C 
ATOM     14  C   UNL     1      -4.393  -0.048  24.954  0.00  0.00    +0.115 C 
ATOM     15  C   UNL     1      -3.154  -1.817  24.633  0.00  0.00    +0.132 A 
ATOM     16  N   UNL     1      -2.559  -2.077  24.125  0.00  0.00    -0.229 NA
ATOM     17  C   UNL     1      -2.237  -2.831  24.218  0.00  0.00    +0.100 A 
ATOM     18  C   UNL     1      -2.510  -3.324  24.820  0.00  0.00    +0.021 A 
ATOM     19  C   UNL     1      -3.105  -3.063  25.329  0.00  0.00    +0.004 A 
ATOM     20  C   UNL     1      -3.427  -2.310  25.236  0.00  0.00    +0.034 A 
ENDBRANCH   6   7
ENDBRANCH   5   6
BRANCH  22  23
ATOM     23  C   UNL     1      -3.988   3.962  25.803  0.00  0.00    +0.148 C 
BRANCH  23  24
ATOM     24  N   UNL     1      -3.247   4.018  25.447  0.00  0.00    -0.199 NA
ATOM     25  C   UNL     1      -2.626   4.390  25.844  0.00  0.00    +0.265 C 
ATOM     26  O   UNL     1      -2.747   4.704  26.597  0.00  0.00    -0.268 OA
BRANCH  25  27
ATOM     27  C   UNL     1      -1.883   4.447  25.488  0.00  0.00    +0.057 A 
ATOM     28  C   UNL     1      -1.632   5.165  25.171  0.00  0.00    +0.005 A 
ATOM     29  C   UNL     1      -0.889   5.222  24.816  0.00  0.00    +0.002 A 
ATOM     30  C   UNL     1      -0.399   4.560  24.777  0.00  0.00    +0.030 A 
ATOM     31  C   UNL     1      -0.651   3.841  25.095  0.00  0.00    +0.140 A 
ATOM     32  F   UNL     1      -0.160   3.179  25.056  0.00  0.00    -0.204 F 
ATOM     33  C   UNL     1      -1.393   3.785  25.450  0.00  0.00    +0.034 A 
ENDBRANCH  25  27
ENDBRANCH  23  24
ENDBRANCH  22  23
TORSDOF 5
ENDMDL
MODEL 2
REMARK VINA RESULT:     -11.1      2.049      3.580
REMARK  Name = 
REMARK  5 active torsions:
REMARK  status: ('A' for Active; 'I' for Inactive)
REMARK    1  A    between atoms: C_5  and  C_6
REMARK    2  A    between atoms: C_6  and  C_7
REMARK    3  A    between atoms: C_22  and  C_23
REMARK    4  A    between atoms: C_23  and  N_24
REMARK    5  A    between atoms: C_25  and  C_27
REMARK                            x       y       z     vdW  Elec       q    Type
REMARK                         _______ _______ _______ _____ _____    ______ ____
ROOT
ATOM      1  O   UNL     1      -0.721   4.325  25.414  0.00  0.00    -0.218 OA
ATOM      2  C   UNL     1      -0.898   3.520  25.384  0.00  0.00    +0.213 C 
ATOM      3  C   UNL     1      -0.374   2.902  25.540  0.00  0.00    +0.212 C 
ATOM      4  O   UNL     1       0.419   2.981  25.754  0.00  0.00    -0.218 OA
ATOM      5  C   UNL     1      -0.782   2.192  25.445  0.00  0.00    +0.157 C 
ATOM     21  O   UNL     1      -1.558   2.371  25.230  0.00  0.00    -0.351 OA
ATOM     22  C   UNL     1      -1.630   3.191  25.192  0.00  0.00    +0.170 C 
ENDROOT
BRANCH   5   6
ATOM      6  C   UNL     1      -0.469   1.435  25.547  0.00  0.00    +0.117 C 
BRANCH   6   7
ATOM      7  C   UNL     1      -0.436   0.914  24.908  0.00  0.00    +0.228 C 
ATOM      8  O   UNL     1       0.080   1.058  24.282  0.00  0.00    -0.275 OA
ATOM      9  N   UNL     1      -0.922   0.246  24.897  0.00  0.00    -0.276 N 
ATOM     10  C   UNL     1      -0.890  -0.275  24.259  0.00  0.00    +0.115 C 
ATOM     11  C   UNL     1      -1.375  -0.942  24.247  0.00  0.00    +0.114 C 
ATOM     12  N   UNL     1      -1.893  -1.088  24.873  0.00  0.00    -0.290 N 
ATOM     13  C   UNL     1      -1.924  -0.566  25.511  0.00  0.00    +0.114 C 
ATOM     14  C   UNL     1      -1.439   0.101  25.523  0.00  0.00    +0.115 C 
ATOM     15  C   UNL     1      -2.378  -1.755  24.861  0.00  0.00    +0.132 A 
ATOM     16  N   UNL     1      -2.346  -2.277  24.223  0.00  0.00    -0.229 NA
ATOM     17  C   UNL     1      -2.831  -2.943  24.211  0.00  0.00    +0.100 A 
ATOM     18  C   UNL     1      -3.348  -3.089  24.837  0.00  0.00    +0.021 A 
ATOM     19  C   UNL     1      -3.380  -2.567  25.475  0.00  0.00    +0.004 A 
ATOM     20  C   UNL     1      -2.895  -1.900  25.487  0.00  0.00    +0.034 A 
ENDBRANCH   6   7
ENDBRANCH   5   6
BRANCH  22  23
ATOM     23  C   UNL     1      -2.313   3.610  24.997  0.00  0.00    +0.148 C 
BRANCH  23  24
ATOM     24  N   UNL     1      -3.054   3.300  25.186  0.00  0.00    -0.199 NA
ATOM     25  C   UNL     1      -3.726   3.567  24.788  0.00  0.00    +0.265 C 
ATOM     26  O   UNL     1      -3.657   4.144  24.202  0.00  0.00    -0.268 OA
BRANCH  25  27
ATOM     27  C   UNL     1      -4.468   3.258  24.976  0.00  0.00    +0.057 A 
ATOM     28  C   UNL     1      -4.967   3.666  25.490  0.00  0.00    +0.005 A 
ATOM     29  C   UNL     1      -5.708   3.356  25.679  0.00  0.00    +0.002 A 
ATOM     30  C   UNL     1      -5.950   2.639  25.352  0.00  0.00    +0.030 A 
ATOM     31  C   UNL     1      -5.451   2.231  24.837  0.00  0.00    +0.140 A 
ATOM     32  F   UNL     1      -5.693   1.513  24.510  0.00  0.00    -0.204 F 
ATOM     33  C   UNL     1      -4.710   2.541  24.649  0.00  0.00    +0.034 A 
ENDBRANCH  25  27
ENDBRANCH  23  24
ENDBRANCH  22  23
TORSDOF 5
ENDMDL
MODEL 3
REMARK VINA RESULT:     -10.7      2.873      6.191
REMARK  Name = 
REMARK  5 active torsions:
REMARK  status: ('A' for Active; 'I' for Inactive)
REMARK    1  A    between atoms: C_5  and  C_6
REMARK    2  A    between atoms: C_6  and  C_7
REMARK    3  A    between atoms: C_22  and  C_23
REMARK    4  A    between atoms: C_23  and  N_24
REMARK    5  A    between atoms: C_25  and  C_27
REMARK                            x       y       z     vdW  Elec       q    Type
REMARK                         _______ _______ _______ _____ _____    ______ ____
ROOT
ATOM      1  O   UNL     1       1.084  -0.648  23.314  0.00  0.00    -0.218 OA
ATOM      2  C   UNL     1       0.571  -0.098  23.654  0.00  0.00    +0.213 C 
ATOM      3  C   UNL     1       0.637   0.723  23.602  0.00  0.00    +0.212 C 
ATOM      4  O   UNL     1       1.226   1.137  23.201  0.00  0.00    -0.218 OA
ATOM      5  C   UNL     1       0.009   1.055  24.021  0.00  0.00    +0.157 C 
ATOM     21  O   UNL     1      -0.444   0.440  24.332  0.00  0.00    -0.351 OA
ATOM     22  C   UNL     1      -0.097  -0.272  24.105  0.00  0.00    +0.170 C 
ENDROOT
BRANCH   5   6
ATOM      6  C   UNL     1      -0.139   1.862  24.113  0.00  0.00    +0.117 C 
BRANCH   6   7
ATOM      7  C   UNL     1      -0.385   2.154  24.844  0.00  0.00    +0.228 C 
ATOM      8  O   UNL     1       0.127   2.134  25.490  0.00  0.00    -0.275 OA
ATOM      9  N   UNL     1      -1.144   2.467  24.928  0.00  0.00    -0.276 N 
ATOM     10  C   UNL     1      -1.391   2.759  25.659  0.00  0.00    +0.115 C 
ATOM     11  C   UNL     1      -2.149   3.072  25.743  0.00  0.00    +0.114 C 
ATOM     12  N   UNL     1      -2.662   3.092  25.097  0.00  0.00    -0.290 N 
ATOM     13  C   UNL     1      -2.415   2.800  24.366  0.00  0.00    +0.114 C 
ATOM     14  C   UNL     1      -1.656   2.487  24.281  0.00  0.00    +0.115 C 
ATOM     15  C   UNL     1      -3.420   3.405  25.182  0.00  0.00    +0.132 A 
ATOM     16  N   UNL     1      -3.667   3.697  25.912  0.00  0.00    -0.229 NA
ATOM     17  C   UNL     1      -4.425   4.010  25.997  0.00  0.00    +0.100 A 
ATOM     18  C   UNL     1      -4.938   4.030  25.351  0.00  0.00    +0.021 A 
ATOM     19  C   UNL     1      -4.691   3.738  24.620  0.00  0.00    +0.004 A 
ATOM     20  C   UNL     1      -3.933   3.425  24.535  0.00  0.00    +0.034 A 
ENDBRANCH   6   7
ENDBRANCH   5   6
BRANCH  22  23
ATOM     23  C   UNL     1      -0.370  -1.027  24.296  0.00  0.00    +0.148 C 
BRANCH  23  24
ATOM     24  N   UNL     1      -1.179  -1.164  24.380  0.00  0.00    -0.199 NA
ATOM     25  C   UNL     1      -1.445  -1.854  24.747  0.00  0.00    +0.265 C 
ATOM     26  O   UNL     1      -0.902  -2.407  25.028  0.00  0.00    -0.268 OA
BRANCH  25  27
ATOM     27  C   UNL     1      -2.254  -1.991  24.832  0.00  0.00    +0.057 A 
ATOM     28  C   UNL     1      -2.693  -1.551  25.374  0.00  0.00    +0.005 A 
ATOM     29  C   UNL     1      -3.502  -1.688  25.460  0.00  0.00    +0.002 A 
ATOM     30  C   UNL     1      -3.872  -2.266  25.002  0.00  0.00    +0.030 A 
ATOM     31  C   UNL     1      -3.434  -2.706  24.458  0.00  0.00    +0.140 A 
ATOM     32  F   UNL     1      -3.804  -3.283  24.000  0.00  0.00    -0.204 F 
ATOM     33  C   UNL     1      -2.625  -2.568  24.374  0.00  0.00    +0.034 A 
ENDBRANCH  25  27
ENDBRANCH  23  24
ENDBRANCH  22  23
TORSDOF 5
ENDMDL
MODEL 4
REMARK VINA RESULT:     -10.2      3.259      4.865
REMARK  Name = 
REMARK  5 active torsions:
REMARK  status: ('A' for Active; 'I' for Inactive)
REMARK    1  A    between atoms: C_5  and  C_6
REMARK    2  A    between atoms: C_6  and  C_7
REMARK    3  A    between atoms: C_22  and  C_23
REMARK    4  A    between atoms: C_23  and  N_24
REMARK    5  A    between atoms: C_25  and  C_27
REMARK                            x       y       z     vdW  Elec       q    Type
REMARK                         _______ _______ _______ _____ _____    ______ ____
ROOT
ATOM      1  O   UNL     1      -3.929  -1.395  25.524  0.00  0.00    -0.218 OA
ATOM      2  C   UNL     1      -3.366  -0.932  25.136  0.00  0.00    +0.213 C 
ATOM      3  C   UNL     1      -2.580  -1.141  24.996  0.00  0.00    +0.212 C 
ATOM      4  O   UNL     1      -2.219  -1.847  25.220  0.00  0.00    -0.218 OA
ATOM      5  C   UNL     1      -2.220  -0.518  24.594  0.00  0.00    +0.157 C 
ATOM     21  O   UNL     1      -2.783   0.075  24.484  0.00  0.00    -0.351 OA
ATOM     22  C   UNL     1      -3.491  -0.181  24.819  0.00  0.00    +0.170 C 
ENDROOT
BRANCH   5   6
ATOM      6  C   UNL     1      -1.433  -0.492  24.344  0.00  0.00    +0.117 C 
BRANCH   6   7
ATOM      7  C   UNL     1      -0.974   0.174  24.500  0.00  0.00    +0.228 C 
ATOM      8  O   UNL     1      -1.251   0.757  25.013  0.00  0.00    -0.275 OA
ATOM      9  N   UNL     1      -0.234   0.258  24.143  0.00  0.00    -0.276 N 
ATOM     10  C   UNL     1       0.226   0.924  24.298  0.00  0.00    +0.115 C 
ATOM     11  C   UNL     1       0.965   1.008  23.942  0.00  0.00    +0.114 C 
ATOM     12  N   UNL     1       1.244   0.425  23.429  0.00  0.00    -0.290 N 
ATOM     13  C   UNL     1       0.783  -0.242  23.273  0.00  0.00    +0.114 C 
ATOM     14  C   UNL     1       0.044  -0.326  23.630  0.00  0.00    +0.115 C 
ATOM     15  C   UNL     1       1.983   0.509  23.072  0.00  0.00    +0.132 A 
ATOM     16  N   UNL     1       2.443   1.175  23.228  0.00  0.00    -0.229 NA
ATOM     17  C   UNL     1       3.182   1.258  22.871  0.00  0.00    +0.100 A 
ATOM     18  C   UNL     1       3.461   0.676  22.358  0.00  0.00    +0.021 A 
ATOM     19  C   UNL     1       3.000   0.009  22.202  0.00  0.00    +0.004 A 
ATOM     20  C   UNL     1       2.261  -0.075  22.559  0.00  0.00    +0.034 A 
ENDBRANCH   6   7
ENDBRANCH   5   6
BRANCH  22  23
ATOM     23  C   UNL     1      -4.201   0.240  24.835  0.00  0.00    +0.148 C 
BRANCH  23  24
ATOM     24  N   UNL     1      -4.194   1.054  24.971  0.00  0.00    -0.199 NA
ATOM     25  C   UNL     1      -4.891   1.489  24.900  0.00  0.00    +0.265 C 
ATOM     26  O   UNL     1      -5.595   1.111  24.693  0.00  0.00    -0.268 OA
BRANCH  25  27
ATOM     27  C   UNL     1      -4.885   2.303  25.036  0.00  0.00    +0.057 A 
ATOM     28  C   UNL     1      -5.333   2.623  25.650  0.00  0.00    +0.005 A 
ATOM     29  C   UNL     1      -5.327   3.436  25.786  0.00  0.00    +0.002 A 
ATOM     30  C   UNL     1      -4.873   3.931  25.307  0.00  0.00    +0.030 A 
ATOM     31  C   UNL     1      -4.424   3.611  24.693  0.00  0.00    +0.140 A 
ATOM     32  F   UNL     1      -3.969   4.106  24.214  0.00  0.00    -0.204 F 
ATOM     33  C   UNL     1      -4.431   2.798  24.557  0.00  0.00    +0.034 A 
ENDBRANCH  25  27
ENDBRANCH  23  24
ENDBRANCH  22  23
TORSDOF 5
ENDMDL
MODEL 5
REMARK VINA RESULT:      -9.6      3.777      5.829
REMARK  Name = 
REMARK  5 active torsions:
REMARK  status: ('A' for Active; 'I' for Inactive)
REMARK    1  A    between atoms: C_5  and  C_6
REMARK    2  A    between atoms: C_6  and  C_7
REMARK    3  A    between atoms: C_22  and  C_23
REMARK    4  A    between atoms: C_23  and  N_24
REMARK    5  A    between atoms: C_25  and  C_27
REMARK                            x       y       z     vdW  Elec       q    Type
REMARK                         _______ _______ _______ _____ _____    ______ ____
ROOT
ATOM      1  O   UNL     1      -3.094   2.625  24.804  0.00  0.00    -0.218 OA
ATOM      2  C   UNL     1      -2.497   2.096  24.593  0.00  0.00    +0.213 C 
ATOM      3  C   UNL     1      -1.721   2.295  24.393  0.00  0.00    +0.212 C 
ATOM      4  O   UNL     1      -1.407   3.057  24.368  0.00  0.00    -0.218 OA
ATOM      5  C   UNL     1      -1.316   1.597  24.221  0.00  0.00    +0.157 C 
ATOM     21  O   UNL     1      -1.841   0.968  24.315  0.00  0.00    -0.351 OA
ATOM     22  C   UNL     1      -2.570   1.276  24.545  0.00  0.00    +0.170 C 
ENDROOT
BRANCH   5   6
ATOM      6  C   UNL     1      -0.525   1.539  23.995  0.00  0.00    +0.117 C 
BRANCH   6   7
ATOM      7  C   UNL     1      -0.240   0.836  23.671  0.00  0.00    +0.228 C 
ATOM      8  O   UNL     1      -0.756   0.210  23.523  0.00  0.00    -0.275 OA
ATOM      9  N   UNL     1       0.563   0.760  23.495  0.00  0.00    -0.276 N 
ATOM     10  C   UNL     1       0.849   0.057  23.171  0.00  0.00    +0.115 C 
ATOM     11  C   UNL     1       1.651  -0.020  22.995  0.00  0.00    +0.114 C 
ATOM     12  N   UNL     1       2.168   0.605  23.143  0.00  0.00    -0.290 N 
ATOM     13  C   UNL     1       1.882   1.309  23.467  0.00  0.00    +0.114 C 
ATOM     14  C   UNL     1       1.080   1.386  23.643  0.00  0.00    +0.115 C 
ATOM     15  C   UNL     1       2.970   0.528  22.967  0.00  0.00    +0.132 A 
ATOM     16  N   UNL     1       3.255  -0.174  22.643  0.00  0.00    -0.229 NA
ATOM     17  C   UNL     1       4.057  -0.252  22.467  0.00  0.00    +0.100 A 
ATOM     18  C   UNL     1       4.575   0.374  22.615  0.00  0.00    +0.021 A 
ATOM     19  C   UNL     1       4.289   1.077  22.939  0.00  0.00    +0.004 A 
ATOM     20  C   UNL     1       3.487   1.154  23.115  0.00  0.00    +0.034 A 
ENDBRANCH   6   7
ENDBRANCH   5   6
BRANCH  22  23
ATOM     23  C   UNL     1      -3.254   0.840  24.700  0.00  0.00    +0.148 C 
BRANCH  23  24
ATOM     24  N   UNL     1      -3.267   0.029  24.554  0.00  0.00    -0.199 NA
ATOM     25  C   UNL     1      -3.933  -0.416  24.755  0.00  0.00    +0.265 C 
ATOM     26  O   UNL     1      -4.585  -0.048  25.102  0.00  0.00    -0.268 OA
BRANCH  25  27
ATOM     27  C   UNL     1      -3.948  -1.228  24.609  0.00  0.00    +0.057 A 
ATOM     28  C   UNL     1      -4.291  -1.517  23.918  0.00  0.00    +0.005 A 
ATOM     29  C   UNL     1      -4.305  -2.329  23.772  0.00  0.00    +0.002 A 
ATOM     30  C   UNL     1      -3.975  -2.852  24.318  0.00  0.00    +0.030 A 
ATOM     31  C   UNL     1      -3.631  -2.562  25.010  0.00  0.00    +0.140 A 
ATOM     32  F   UNL     1      -3.301  -3.085  25.557  0.00  0.00    -0.204 F 
ATOM     33  C   UNL     1      -3.618  -1.750  25.155  0.00  0.00    +0.034 A 
ENDBRANCH  25  27
ENDBRANCH  23  24
ENDBRANCH  22  23
TORSDOF 5
ENDMDL
MODEL 6
REMARK VINA RESULT:      -9.5      3.036      4.704
REMARK  Name = 
REMARK  5 active torsions:
REMARK  status: ('A' for Active; 'I' for Inactive)
REMARK    1  A    between atoms: C_5  and  C_6
REMARK    2  A    between atoms: C_6  and  C_7
REMARK    3  A    between atoms: C_22  and  C_23
REMARK    4  A    between atoms: C_23  and  N_24
REMARK    5  A    between atoms: C_25  and  C_27
REMARK                            x       y       z     vdW  Elec       q    Type
REMARK                         _______ _______ _______ _____ _____    ______ ____
ROOT
ATOM      1  O   UNL     1      -2.155   5.268  25.435  0.00  0.00    -0.218 OA
ATOM      2  C   UNL     1      -2.010   4.457  25.395  0.00  0.00    +0.213 C 
ATOM      3  C   UNL     1      -1.267   4.099  25.346  0.00  0.00    +0.212 C 
ATOM      4  O   UNL     1      -0.541   4.489  25.327  0.00  0.00    -0.218 OA
ATOM      5  C   UNL     1      -1.380   3.283  25.318  0.00  0.00    +0.157 C 
ATOM     21  O   UNL     1      -2.191   3.135  25.351  0.00  0.00    -0.351 OA
ATOM     22  C   UNL     1      -2.580   3.861  25.398  0.00  0.00    +0.170 C 
ENDROOT
BRANCH   5   6
ATOM      6  C   UNL     1      -0.785   2.712  25.267  0.00  0.00    +0.117 C 
BRANCH   6   7
ATOM      7  C   UNL     1      -0.925   2.006  24.865  0.00  0.00    +0.228 C 
ATOM      8  O   UNL     1      -1.672   1.658  24.889  0.00  0.00    -0.275 OA
ATOM      9  N   UNL     1      -0.317   1.648  24.437  0.00  0.00    -0.276 N 
ATOM     10  C   UNL     1      -0.456   0.943  24.034  0.00  0.00    +0.115 C 
ATOM     11  C   UNL     1       0.151   0.584  23.606  0.00  0.00    +0.114 C 
ATOM     12  N   UNL     1       0.899   0.932  23.581  0.00  0.00    -0.290 N 
ATOM     13  C   UNL     1       1.038   1.639  23.985  0.00  0.00    +0.114 C 
ATOM     14  C   UNL     1       0.431   1.997  24.412  0.00  0.00    +0.115 C 
ATOM     15  C   UNL     1       1.506   0.574  23.154  0.00  0.00    +0.132 A 
ATOM     16  N   UNL     1       1.367  -0.132  22.751  0.00  0.00    -0.229 NA
ATOM     17  C   UNL     1       1.974  -0.490  22.324  0.00  0.00    +0.100 A 
ATOM     18  C   UNL     1       2.722  -0.143  22.299  0.00  0.00    +0.021 A 
ATOM     19  C   UNL     1       2.862   0.564  22.702  0.00  0.00    +0.004 A 
ATOM     20  C   UNL     1       2.254   0.922  23.129  0.00  0.00    +0.034 A 
ENDBRANCH   6   7
ENDBRANCH   5   6
BRANCH  22  23
ATOM     23  C   UNL     1      -3.397   3.972  25.441  0.00  0.00    +0.148 C 
BRANCH  23  24
ATOM     24  N   UNL     1      -3.902   3.319  25.436  0.00  0.00    -0.199 NA
ATOM     25  C   UNL     1      -4.719   3.431  25.418  0.00  0.00    +0.265 C 
ATOM     26  O   UNL     1      -5.031   4.195  25.405  0.00  0.00    -0.268 OA
BRANCH  25  27
ATOM     27  C   UNL     1      -5.225   2.779  25.413  0.00  0.00    +0.057 A 
ATOM     28  C   UNL     1      -5.307   2.326  24.729  0.00  0.00    +0.005 A 
ATOM     29  C   UNL     1      -5.813   1.674  24.724  0.00  0.00    +0.002 A 
ATOM     30  C   UNL     1      -6.237   1.476  25.403  0.00  0.00    +0.030 A 
ATOM     31  C   UNL     1      -6.155   1.930  26.088  0.00  0.00    +0.140 A 
ATOM     32  F   UNL     1      -6.579   1.732  26.767  0.00  0.00    -0.204 F 
ATOM     33  C   UNL     1      -5.649   2.581  26.092  0.00  0.00    +0.034 A 
ENDBRANCH  25  27
ENDBRANCH  23  24
ENDBRANCH  22  23
TORSDOF 5
ENDMDL
MODEL 7
REMARK VINA RESULT:      -8.1     14.656     16.649
REMARK  Name = 
REMARK  5 active torsions:
REMARK  status: ('A' for Active; 'I' for Inactive)
REMARK    1  A    between atoms: C_5  and  C_6
REMARK    2  A    between atoms: C_6  and  C_7
REMARK    3  A    between atoms: C_22  and  C_23
REMARK    4  A    between atoms: C_23  and  N_24
REMARK    5  A    between atoms: C_25  and  C_27
REMARK                            x       y       z     vdW  Elec       q    Type
REMARK                         _______ _______ _______ _____ _____    ______ ____
ROOT
ATOM      1  O   UNL     1      -6.633  -9.071  11.285  0.00  0.00    -0.218 OA
ATOM      2  C   UNL     1      -6.298  -9.393  11.966  0.00  0.00    +0.213 C 
ATOM      3  C   UNL     1      -6.656  -9.436  12.709  0.00  0.00    +0.212 C 
ATOM      4  O   UNL     1      -7.411  -9.163  12.899  0.00  0.00    -0.218 OA
ATOM      5  C   UNL     1      -6.127  -9.798  13.226  0.00  0.00    +0.157 C 
ATOM     21  O   UNL     1      -5.442  -9.980  12.804  0.00  0.00    -0.351 OA
ATOM     22  C   UNL     1      -5.548  -9.730  12.026  0.00  0.00    +0.170 C 
ENDROOT
BRANCH   5   6
ATOM      6  C   UNL     1      -6.259  -9.953  14.026  0.00  0.00    +0.117 C 
BRANCH   6   7
ATOM      7  C   UNL     1      -5.625 -10.143  14.518  0.00  0.00    +0.228 C 
ATOM      8  O   UNL     1      -4.876 -10.271  14.198  0.00  0.00    -0.275 OA
ATOM      9  N   UNL     1      -5.741 -10.205  15.333  0.00  0.00    -0.276 N 
ATOM     10  C   UNL     1      -5.107 -10.395  15.826  0.00  0.00    +0.115 C 
ATOM     11  C   UNL     1      -5.222 -10.458  16.640  0.00  0.00    +0.114 C 
ATOM     12  N   UNL     1      -5.971 -10.330  16.962  0.00  0.00    -0.290 N 
ATOM     13  C   UNL     1      -6.605 -10.140  16.469  0.00  0.00    +0.114 C 
ATOM     14  C   UNL     1      -6.490 -10.077  15.655  0.00  0.00    +0.115 C 
ATOM     15  C   UNL     1      -6.086 -10.392  17.777  0.00  0.00    +0.132 A 
ATOM     16  N   UNL     1      -5.453 -10.582  18.270  0.00  0.00    -0.229 NA
ATOM     17  C   UNL     1      -5.568 -10.645  19.084  0.00  0.00    +0.100 A 
ATOM     18  C   UNL     1      -6.317 -10.517  19.406  0.00  0.00    +0.021 A 
ATOM     19  C   UNL     1      -6.951 -10.327  18.912  0.00  0.00    +0.004 A 
ATOM     20  C   UNL     1      -6.836 -10.264  18.098  0.00  0.00    +0.034 A 
ENDBRANCH   6   7
ENDBRANCH   5   6
BRANCH  22  23
ATOM     23  C   UNL     1      -4.999  -9.803  11.413  0.00  0.00    +0.148 C 
BRANCH  23  24
ATOM     24  N   UNL     1      -4.192  -9.749  11.574  0.00  0.00    -0.199 NA
ATOM     25  C   UNL     1      -3.642  -9.906  10.980  0.00  0.00    +0.265 C 
ATOM     26  O   UNL     1      -3.899 -10.117  10.225  0.00  0.00    -0.268 OA
BRANCH  25  27
ATOM     27  C   UNL     1      -2.834  -9.853  11.140  0.00  0.00    +0.057 A 
ATOM     28  C   UNL     1      -2.484 -10.374  11.674  0.00  0.00    +0.005 A 
ATOM     29  C   UNL     1      -1.676 -10.321  11.834  0.00  0.00    +0.002 A 
ATOM     30  C   UNL     1      -1.219  -9.745  11.460  0.00  0.00    +0.030 A 
ATOM     31  C   UNL     1      -1.569  -9.223  10.926  0.00  0.00    +0.140 A 
ATOM     32  F   UNL     1      -1.112  -8.648  10.551  0.00  0.00    -0.204 F 
ATOM     33  C   UNL     1      -2.377  -9.277  10.766  0.00  0.00    +0.034 A 
ENDBRANCH  25  27
ENDBRANCH  23  24
ENDBRANCH  22  23
TORSDOF 5
ENDMDL
