MODEL 1
REMARK VINA RESULT:     -15.3      0.000      0.000
REMARK  Name = 
REMARK  4 active torsions:
REMARK  status: ('A' for Active; 'I' for Inactive)
REMARK    1  A    between atoms: N_3  and  C_4
REMARK    2  A    between atoms: C_6  and  C_10
REMARK    3  A    between atoms: N_12  and  C_13
REMARK    4  A    between atoms: C_23  and  C_25
REMARK                            x       y       z     vdW  Elec       q    Type
REMARK                         _______ _______ _______ _____ _____    ______ ____
ROOT
ATOM     13  C   UNL     1      -3.431   2.069  23.872  0.00  0.00    +0.131 A 
ATOM     14  C   UNL     1      -3.755   2.826  23.934  0.00  0.00    +0.023 A 
ATOM     15  C   UNL     1      -4.478   2.935  24.316  0.00  0.00    +0.014 A 
ATOM     16  C   UNL     1      -4.877   2.289  24.636  0.00  0.00    +0.041 A 
ATOM     17  C   UNL     1      -5.647   2.080  25.092  0.00  0.00    +0.058 C 
ATOM     18  C   UNL     1      -6.223   2.375  25.364  0.00  0.00    +0.011 C 
ATOM     19  C   UNL     1      -5.900   1.629  25.301  0.00  0.00    +0.043 C 
ATOM     20  C   UNL     1      -5.679   0.667  25.328  0.00  0.00    +0.096 C 
ATOM     21  N   UNL     1      -4.948   0.680  24.923  0.00  0.00    -0.276 N 
ATOM     22  C   UNL     1      -5.447   1.147  25.126  0.00  0.00    +0.099 C 
ATOM     23  C   UNL     1      -4.251   0.398  24.582  0.00  0.00    +0.249 C 
ATOM     24  O   UNL     1      -3.730   0.921  24.214  0.00  0.00    -0.270 OA
ATOM     31  C   UNL     1      -5.094   1.838  24.825  0.00  0.00    +0.110 C 
ATOM     32  N   UNL     1      -4.553   1.532  24.574  0.00  0.00    -0.298 N 
ATOM     33  C   UNL     1      -3.830   1.422  24.192  0.00  0.00    +0.276 A 
ATOM     34  O   UNL     1      -3.323   0.799  24.009  0.00  0.00    -0.266 OA
ENDROOT
BRANCH  23  25
ATOM     25  C   UNL     1      -4.076  -0.408  24.610  0.00  0.00    +0.054 A 
ATOM     26  C   UNL     1      -4.299  -0.901  23.988  0.00  0.00    +0.005 A 
ATOM     27  C   UNL     1      -4.124  -1.707  24.015  0.00  0.00    +0.000 A 
ATOM     28  C   UNL     1      -3.726  -2.019  24.667  0.00  0.00    +0.000 A 
ATOM     29  C   UNL     1      -3.502  -1.527  25.289  0.00  0.00    +0.000 A 
ATOM     30  C   UNL     1      -3.678  -0.721  25.261  0.00  0.00    +0.005 A 
ENDBRANCH  23  25
BRANCH  13  12
ATOM      1  O   UNL     1      -1.304   2.214  23.401  0.00  0.00    -0.248 OA
ATOM      2  C   UNL     1      -2.028   2.323  23.784  0.00  0.00    +0.348 C 
ATOM      3  N   UNL     1      -2.070   2.795  24.459  0.00  0.00    -0.161 NA
ATOM     12  N   UNL     1      -2.708   1.960  23.491  0.00  0.00    -0.156 NA
BRANCH   3   4
ATOM      4  C   UNL     1      -1.389   3.158  24.752  0.00  0.00    +0.076 A 
ATOM      5  C   UNL     1      -0.951   2.794  25.348  0.00  0.00    +0.027 A 
ATOM      6  C   UNL     1      -0.270   3.157  25.640  0.00  0.00    +0.070 A 
ATOM      7  C   UNL     1      -0.028   3.884  25.336  0.00  0.00    +0.010 A 
ATOM      8  C   UNL     1      -0.466   4.249  24.739  0.00  0.00    +0.002 A 
ATOM      9  C   UNL     1      -1.146   3.886  24.447  0.00  0.00    +0.017 A 
BRANCH   6  10
ATOM     10  C   UNL     1       0.168   2.792  26.237  0.00  0.00    +0.100 C 
ATOM     11  N   UNL     1       0.605   2.428  26.833  0.00  0.00    -0.191 NA
ENDBRANCH   6  10
ENDBRANCH   3   4
ENDBRANCH  13  12
TORSDOF 4
ENDMDL
MODEL 2
REMARK VINA RESULT:     -15.1      1.389      4.373
REMARK  Name = 
REMARK  4 active torsions:
REMARK  status: ('A' for Active; 'I' for Inactive)
REMARK    1  A    between atoms: N_3  and  C_4
REMARK    2  A    between atoms: C_6  and  C_10
REMARK    3  A    between atoms: N_12  and  C_13
REMARK    4  A    between atoms: C_23  and  C_25
REMARK                            x       y       z     vdW  Elec       q    Type
REMARK                         _______ _______ _______ _____ _____    ______ ____
ROOT
ATOM     13  C   UNL     1      -3.610   1.526  24.404  0.00  0.00    +0.131 A 
ATOM     14  C   UNL     1      -4.379   1.227  24.423  0.00  0.00    +0.023 A 
ATOM     15  C   UNL     1      -4.988   1.676  24.753  0.00  0.00    +0.014 A 
ATOM     16  C   UNL     1      -4.828   2.423  25.063  0.00  0.00    +0.041 A 
ATOM     17  C   UNL     1      -5.248   3.130  25.473  0.00  0.00    +0.058 C 
ATOM     18  C   UNL     1      -5.879   3.341  25.698  0.00  0.00    +0.011 C 
ATOM     19  C   UNL     1      -5.118   3.633  25.677  0.00  0.00    +0.043 C 
ATOM     20  C   UNL     1      -4.280   4.151  25.745  0.00  0.00    +0.096 C 
ATOM     21  N   UNL     1      -3.752   3.610  25.389  0.00  0.00    -0.276 N 
ATOM     22  C   UNL     1      -4.446   3.644  25.546  0.00  0.00    +0.099 C 
ATOM     23  C   UNL     1      -3.041   3.303  25.104  0.00  0.00    +0.249 C 
ATOM     24  O   UNL     1      -3.024   2.554  24.757  0.00  0.00    -0.270 OA
ATOM     31  C   UNL     1      -4.671   2.899  25.250  0.00  0.00    +0.110 C 
ATOM     32  N   UNL     1      -4.059   2.722  25.044  0.00  0.00    -0.298 N 
ATOM     33  C   UNL     1      -3.450   2.273  24.715  0.00  0.00    +0.276 A 
ATOM     34  O   UNL     1      -2.639   2.345  24.583  0.00  0.00    -0.266 OA
ENDROOT
BRANCH  23  25
ATOM     25  C   UNL     1      -2.347   3.745  25.166  0.00  0.00    +0.054 A 
ATOM     26  C   UNL     1      -1.785   3.552  25.738  0.00  0.00    +0.005 A 
ATOM     27  C   UNL     1      -1.090   3.994  25.799  0.00  0.00    +0.000 A 
ATOM     28  C   UNL     1      -0.959   4.628  25.288  0.00  0.00    +0.000 A 
ATOM     29  C   UNL     1      -1.520   4.821  24.717  0.00  0.00    +0.000 A 
ATOM     30  C   UNL     1      -2.215   4.379  24.655  0.00  0.00    +0.005 A 
ENDBRANCH  23  25
BRANCH  13  12
ATOM      1  O   UNL     1      -2.334  -0.176  23.915  0.00  0.00    -0.248 OA
ATOM      2  C   UNL     1      -2.943   0.273  24.245  0.00  0.00    +0.348 C 
ATOM      3  N   UNL     1      -3.494  -0.084  24.746  0.00  0.00    -0.161 NA
ATOM     12  N   UNL     1      -3.002   1.077  24.075  0.00  0.00    -0.156 NA
BRANCH   3   4
ATOM      4  C   UNL     1      -3.435  -0.890  24.916  0.00  0.00    +0.076 A 
ATOM      5  C   UNL     1      -3.759  -1.445  24.400  0.00  0.00    +0.027 A 
ATOM      6  C   UNL     1      -3.700  -2.250  24.571  0.00  0.00    +0.070 A 
ATOM      7  C   UNL     1      -3.317  -2.499  25.258  0.00  0.00    +0.010 A 
ATOM      8  C   UNL     1      -2.992  -1.943  25.774  0.00  0.00    +0.002 A 
ATOM      9  C   UNL     1      -3.051  -1.138  25.603  0.00  0.00    +0.017 A 
BRANCH   6  10
ATOM     10  C   UNL     1      -4.025  -2.806  24.055  0.00  0.00    +0.100 C 
ATOM     11  N   UNL     1      -4.350  -3.361  23.540  0.00  0.00    -0.191 NA
ENDBRANCH   6  10
ENDBRANCH   3   4
ENDBRANCH  13  12
TORSDOF 4
ENDMDL
MODEL 3
REMARK VINA RESULT:     -13.4      2.063      3.429
REMARK  Name = 
REMARK  4 active torsions:
REMARK  status: ('A' for Active; 'I' for Inactive)
REMARK    1  A    between atoms: N_3  and  C_4
REMARK    2  A    between atoms: C_6  and  C_10
REMARK    3  A    between atoms: N_12  and  C_13
REMARK    4  A    between atoms: C_23  and  C_25
REMARK                            x       y       z     vdW  Elec       q    Type
REMARK                         _______ _______ _______ _____ _____    ______ ____
ROOT
ATOM     13  C   UNL     1      -2.121   1.096  23.979  0.00  0.00    +0.131 A 
ATOM     14  C   UNL     1      -1.458   1.530  23.749  0.00  0.00    +0.023 A 
ATOM     15  C   UNL     1      -0.717   1.168  23.721  0.00  0.00    +0.014 A 
ATOM     16  C   UNL     1      -0.640   0.372  23.923  0.00  0.00    +0.041 A 
ATOM     17  C   UNL     1      -0.004  -0.288  23.994  0.00  0.00    +0.058 C 
ATOM     18  C   UNL     1       0.683  -0.402  23.908  0.00  0.00    +0.011 C 
ATOM     19  C   UNL     1       0.027  -0.827  24.135  0.00  0.00    +0.043 C 
ATOM     20  C   UNL     1      -0.636  -1.498  24.430  0.00  0.00    +0.096 C 
ATOM     21  N   UNL     1      -1.326  -1.027  24.420  0.00  0.00    -0.276 N 
ATOM     22  C   UNL     1      -0.632  -0.948  24.280  0.00  0.00    +0.099 C 
ATOM     23  C   UNL     1      -2.123  -0.827  24.501  0.00  0.00    +0.249 C 
ATOM     24  O   UNL     1      -2.374  -0.058  24.336  0.00  0.00    -0.270 OA
ATOM     31  C   UNL     1      -0.645  -0.144  24.064  0.00  0.00    +0.110 C 
ATOM     32  N   UNL     1      -1.303  -0.062  24.154  0.00  0.00    -0.298 N 
ATOM     33  C   UNL     1      -2.043   0.301  24.182  0.00  0.00    +0.276 A 
ATOM     34  O   UNL     1      -2.819   0.095  24.370  0.00  0.00    -0.266 OA
ENDROOT
BRANCH  23  25
ATOM     25  C   UNL     1      -2.667  -1.395  24.748  0.00  0.00    +0.054 A 
ATOM     26  C   UNL     1      -2.866  -1.457  25.546  0.00  0.00    +0.005 A 
ATOM     27  C   UNL     1      -3.411  -2.026  25.793  0.00  0.00    +0.000 A 
ATOM     28  C   UNL     1      -3.757  -2.532  25.241  0.00  0.00    +0.000 A 
ATOM     29  C   UNL     1      -3.559  -2.470  24.444  0.00  0.00    +0.000 A 
ATOM     30  C   UNL     1      -3.014  -1.902  24.197  0.00  0.00    +0.005 A 
ENDBRANCH  23  25
BRANCH  13  12
ATOM      1  O   UNL     1      -3.693   2.545  24.421  0.00  0.00    -0.248 OA
ATOM      2  C   UNL     1      -2.952   2.182  24.394  0.00  0.00    +0.348 C 
ATOM      3  N   UNL     1      -2.302   2.543  24.753  0.00  0.00    -0.161 NA
ATOM     12  N   UNL     1      -2.861   1.459  24.007  0.00  0.00    -0.156 NA
BRANCH   3   4
ATOM      4  C   UNL     1      -2.394   3.266  25.140  0.00  0.00    +0.076 A 
ATOM      5  C   UNL     1      -1.913   3.905  24.939  0.00  0.00    +0.027 A 
ATOM      6  C   UNL     1      -2.005   4.628  25.326  0.00  0.00    +0.070 A 
ATOM      7  C   UNL     1      -2.579   4.711  25.913  0.00  0.00    +0.010 A 
ATOM      8  C   UNL     1      -3.060   4.072  26.114  0.00  0.00    +0.002 A 
ATOM      9  C   UNL     1      -2.968   3.350  25.727  0.00  0.00    +0.017 A 
BRANCH   6  10
ATOM     10  C   UNL     1      -1.524   5.267  25.125  0.00  0.00    +0.100 C 
ATOM     11  N   UNL     1      -1.044   5.906  24.923  0.00  0.00    -0.191 NA
ENDBRANCH   6  10
ENDBRANCH   3   4
ENDBRANCH  13  12
TORSDOF 4
ENDMDL
MODEL 4
REMARK VINA RESULT:     -12.9      1.506      4.361
REMARK  Name = 
REMARK  4 active torsions:
REMARK  status: ('A' for Active; 'I' for Inactive)
REMARK    1  A    between atoms: N_3  and  C_4
REMARK    2  A    between atoms: C_6  and  C_10
REMARK    3  A    between atoms: N_12  and  C_13
REMARK    4  A    between atoms: C_23  and  C_25
REMARK                            x       y       z     vdW  Elec       q    Type
REMARK                         _______ _______ _______ _____ _____    ______ ____
ROOT
ATOM     13  C   UNL     1      -2.784   1.681  24.017  0.00  0.00    +0.131 A 
ATOM     14  C   UNL     1      -1.976   1.551  23.912  0.00  0.00    +0.023 A 
ATOM     15  C   UNL     1      -1.427   2.055  24.267  0.00  0.00    +0.014 A 
ATOM     16  C   UNL     1      -1.687   2.689  24.726  0.00  0.00    +0.041 A 
ATOM     17  C   UNL     1      -1.362   3.390  25.224  0.00  0.00    +0.058 C 
ATOM     18  C   UNL     1      -0.760   3.687  25.429  0.00  0.00    +0.011 C 
ATOM     19  C   UNL     1      -1.558   3.812  25.531  0.00  0.00    +0.043 C 
ATOM     20  C   UNL     1      -2.465   4.125  25.768  0.00  0.00    +0.096 C 
ATOM     21  N   UNL     1      -2.921   3.553  25.363  0.00  0.00    -0.276 N 
ATOM     22  C   UNL     1      -2.232   3.704  25.462  0.00  0.00    +0.099 C 
ATOM     23  C   UNL     1      -3.590   3.156  25.088  0.00  0.00    +0.249 C 
ATOM     24  O   UNL     1      -3.506   2.490  24.608  0.00  0.00    -0.270 OA
ATOM     31  C   UNL     1      -1.907   3.084  25.012  0.00  0.00    +0.110 C 
ATOM     32  N   UNL     1      -2.495   2.820  24.831  0.00  0.00    -0.298 N 
ATOM     33  C   UNL     1      -3.044   2.316  24.476  0.00  0.00    +0.276 A 
ATOM     34  O   UNL     1      -3.863   2.237  24.431  0.00  0.00    -0.266 OA
ENDROOT
BRANCH  23  25
ATOM     25  C   UNL     1      -4.342   3.426  25.292  0.00  0.00    +0.054 A 
ATOM     26  C   UNL     1      -4.666   4.078  24.904  0.00  0.00    +0.005 A 
ATOM     27  C   UNL     1      -5.419   4.347  25.108  0.00  0.00    +0.000 A 
ATOM     28  C   UNL     1      -5.847   3.965  25.701  0.00  0.00    +0.000 A 
ATOM     29  C   UNL     1      -5.524   3.314  26.089  0.00  0.00    +0.000 A 
ATOM     30  C   UNL     1      -4.771   3.044  25.884  0.00  0.00    +0.005 A 
ENDBRANCH  23  25
BRANCH  13  12
ATOM      1  O   UNL     1      -3.923  -0.118  23.537  0.00  0.00    -0.248 OA
ATOM      2  C   UNL     1      -3.375   0.386  23.893  0.00  0.00    +0.348 C 
ATOM      3  N   UNL     1      -2.869   0.099  24.479  0.00  0.00    -0.161 NA
ATOM     12  N   UNL     1      -3.332   1.177  23.662  0.00  0.00    -0.156 NA
BRANCH   3   4
ATOM      4  C   UNL     1      -2.913  -0.692  24.709  0.00  0.00    +0.076 A 
ATOM      5  C   UNL     1      -2.353  -1.233  24.435  0.00  0.00    +0.027 A 
ATOM      6  C   UNL     1      -2.397  -2.024  24.665  0.00  0.00    +0.070 A 
ATOM      7  C   UNL     1      -3.000  -2.274  25.170  0.00  0.00    +0.010 A 
ATOM      8  C   UNL     1      -3.560  -1.733  25.444  0.00  0.00    +0.002 A 
ATOM      9  C   UNL     1      -3.516  -0.942  25.213  0.00  0.00    +0.017 A 
BRANCH   6  10
ATOM     10  C   UNL     1      -1.838  -2.564  24.391  0.00  0.00    +0.100 C 
ATOM     11  N   UNL     1      -1.278  -3.104  24.117  0.00  0.00    -0.191 NA
ENDBRANCH   6  10
ENDBRANCH   3   4
ENDBRANCH  13  12
TORSDOF 4
ENDMDL
MODEL 5
REMARK VINA RESULT:     -12.9      2.036      3.354
REMARK  Name = 
REMARK  4 active torsions:
REMARK  status: ('A' for Active; 'I' for Inactive)
REMARK    1  A    between atoms: N_3  and  C_4
REMARK    2  A    between atoms: C_6  and  C_10
REMARK    3  A    between atoms: N_12  and  C_13
REMARK    4  A    between atoms: C_23  and  C_25
REMARK                            x       y       z     vdW  Elec       q    Type
REMARK                         _______ _______ _______ _____ _____    ______ ____
ROOT
ATOM     13  C   UNL     1      -2.173  -0.321  25.353  0.00  0.00    +0.131 A 
ATOM     14  C   UNL     1      -1.830  -1.059  25.214  0.00  0.00    +0.023 A 
ATOM     15  C   UNL     1      -2.258  -1.646  24.823  0.00  0.00    +0.014 A 
ATOM     16  C   UNL     1      -3.029  -1.496  24.572  0.00  0.00    +0.041 A 
ATOM     17  C   UNL     1      -3.731  -1.902  24.140  0.00  0.00    +0.058 C 
ATOM     18  C   UNL     1      -3.915  -2.509  23.839  0.00  0.00    +0.011 C 
ATOM     19  C   UNL     1      -4.251  -1.780  23.978  0.00  0.00    +0.043 C 
ATOM     20  C   UNL     1      -4.821  -0.976  24.050  0.00  0.00    +0.096 C 
ATOM     21  N   UNL     1      -4.294  -0.467  24.451  0.00  0.00    -0.276 N 
ATOM     22  C   UNL     1      -4.295  -1.134  24.202  0.00  0.00    +0.099 C 
ATOM     23  C   UNL     1      -4.016   0.218  24.818  0.00  0.00    +0.249 C 
ATOM     24  O   UNL     1      -3.252   0.237  25.131  0.00  0.00    -0.270 OA
ATOM     31  C   UNL     1      -3.523  -1.347  24.430  0.00  0.00    +0.110 C 
ATOM     32  N   UNL     1      -3.372  -0.758  24.711  0.00  0.00    -0.298 N 
ATOM     33  C   UNL     1      -2.944  -0.171  25.101  0.00  0.00    +0.276 A 
ATOM     34  O   UNL     1      -3.056   0.608  25.347  0.00  0.00    -0.266 OA
ENDROOT
BRANCH  23  25
ATOM     25  C   UNL     1      -4.500   0.883  24.873  0.00  0.00    +0.054 A 
ATOM     26  C   UNL     1      -4.400   1.511  24.349  0.00  0.00    +0.005 A 
ATOM     27  C   UNL     1      -4.886   2.177  24.404  0.00  0.00    +0.000 A 
ATOM     28  C   UNL     1      -5.471   2.213  24.984  0.00  0.00    +0.000 A 
ATOM     29  C   UNL     1      -5.571   1.585  25.509  0.00  0.00    +0.000 A 
ATOM     30  C   UNL     1      -5.086   0.920  25.454  0.00  0.00    +0.005 A 
ENDBRANCH  23  25
BRANCH  13  12
ATOM      1  O   UNL     1      -0.654   1.189  25.774  0.00  0.00    -0.248 OA
ATOM      2  C   UNL     1      -1.083   0.602  25.383  0.00  0.00    +0.348 C 
ATOM      3  N   UNL     1      -0.850   0.352  24.632  0.00  0.00    -0.161 NA
ATOM     12  N   UNL     1      -1.744   0.265  25.743  0.00  0.00    -0.156 NA
BRANCH   3   4
ATOM      4  C   UNL     1      -0.188   0.689  24.272  0.00  0.00    +0.076 A 
ATOM      5  C   UNL     1       0.288   0.235  23.774  0.00  0.00    +0.027 A 
ATOM      6  C   UNL     1       0.949   0.573  23.415  0.00  0.00    +0.070 A 
ATOM      7  C   UNL     1       1.135   1.364  23.554  0.00  0.00    +0.010 A 
ATOM      8  C   UNL     1       0.660   1.819  24.053  0.00  0.00    +0.002 A 
ATOM      9  C   UNL     1      -0.002   1.481  24.412  0.00  0.00    +0.017 A 
BRANCH   6  10
ATOM     10  C   UNL     1       1.424   0.118  22.917  0.00  0.00    +0.100 C 
ATOM     11  N   UNL     1       1.899  -0.337  22.419  0.00  0.00    -0.191 NA
ENDBRANCH   6  10
ENDBRANCH   3   4
ENDBRANCH  13  12
TORSDOF 4
ENDMDL
MODEL 6
REMARK VINA RESULT:     -12.9      2.244      3.935
REMARK  Name = 
REMARK  4 active torsions:
REMARK  status: ('A' for Active; 'I' for Inactive)
REMARK    1  A    between atoms: N_3  and  C_4
REMARK    2  A    between atoms: C_6  and  C_10
REMARK    3  A    between atoms: N_12  and  C_13
REMARK    4  A    between atoms: C_23  and  C_25
REMARK                            x       y       z     vdW  Elec       q    Type
REMARK                         _______ _______ _______ _____ _____    ______ ____
ROOT
ATOM     13  C   UNL     1      -1.106   2.107  25.375  0.00  0.00    +0.131 A 
ATOM     14  C   UNL     1      -0.376   2.489  25.425  0.00  0.00    +0.023 A 
ATOM     15  C   UNL     1      -0.335   3.311  25.363  0.00  0.00    +0.014 A 
ATOM     16  C   UNL     1      -1.024   3.751  25.251  0.00  0.00    +0.041 A 
ATOM     17  C   UNL     1      -1.307   4.619  25.149  0.00  0.00    +0.058 C 
ATOM     18  C   UNL     1      -1.066   5.277  25.123  0.00  0.00    +0.011 C 
ATOM     19  C   UNL     1      -1.785   4.897  25.074  0.00  0.00    +0.043 C 
ATOM     20  C   UNL     1      -2.731   4.627  24.991  0.00  0.00    +0.096 C 
ATOM     21  N   UNL     1      -2.648   3.799  25.067  0.00  0.00    -0.276 N 
ATOM     22  C   UNL     1      -2.227   4.373  25.067  0.00  0.00    +0.099 C 
ATOM     23  C   UNL     1      -2.865   3.004  25.107  0.00  0.00    +0.249 C 
ATOM     24  O   UNL     1      -2.289   2.423  25.218  0.00  0.00    -0.270 OA
ATOM     31  C   UNL     1      -1.498   3.987  25.179  0.00  0.00    +0.110 C 
ATOM     32  N   UNL     1      -1.753   3.369  25.201  0.00  0.00    -0.298 N 
ATOM     33  C   UNL     1      -1.794   2.547  25.263  0.00  0.00    +0.276 A 
ATOM     34  O   UNL     1      -2.373   1.960  25.246  0.00  0.00    -0.266 OA
ENDROOT
BRANCH  23  25
ATOM     25  C   UNL     1      -3.658   2.789  25.037  0.00  0.00    +0.054 A 
ATOM     26  C   UNL     1      -3.952   2.526  24.312  0.00  0.00    +0.005 A 
ATOM     27  C   UNL     1      -4.746   2.311  24.242  0.00  0.00    +0.000 A 
ATOM     28  C   UNL     1      -5.246   2.360  24.896  0.00  0.00    +0.000 A 
ATOM     29  C   UNL     1      -4.953   2.624  25.621  0.00  0.00    +0.000 A 
ATOM     30  C   UNL     1      -4.159   2.838  25.691  0.00  0.00    +0.005 A 
ENDBRANCH  23  25
BRANCH  13  12
ATOM      1  O   UNL     1      -0.744  -0.011  24.989  0.00  0.00    -0.248 OA
ATOM      2  C   UNL     1      -0.704   0.812  24.927  0.00  0.00    +0.348 C 
ATOM      3  N   UNL     1      -0.221   1.159  24.355  0.00  0.00    -0.161 NA
ATOM     12  N   UNL     1      -1.146   1.286  25.437  0.00  0.00    -0.156 NA
BRANCH   3   4
ATOM      4  C   UNL     1       0.221   0.683  23.845  0.00  0.00    +0.076 A 
ATOM      5  C   UNL     1       1.010   0.868  23.688  0.00  0.00    +0.027 A 
ATOM      6  C   UNL     1       1.451   0.393  23.178  0.00  0.00    +0.070 A 
ATOM      7  C   UNL     1       1.104  -0.268  22.826  0.00  0.00    +0.010 A 
ATOM      8  C   UNL     1       0.316  -0.453  22.984  0.00  0.00    +0.002 A 
ATOM      9  C   UNL     1      -0.126   0.022  23.493  0.00  0.00    +0.017 A 
BRANCH   6  10
ATOM     10  C   UNL     1       2.239   0.578  23.021  0.00  0.00    +0.100 C 
ATOM     11  N   UNL     1       3.027   0.763  22.863  0.00  0.00    -0.191 NA
ENDBRANCH   6  10
ENDBRANCH   3   4
ENDBRANCH  13  12
TORSDOF 4
ENDMDL
MODEL 7
REMARK VINA RESULT:     -12.7      1.908      3.771
REMARK  Name = 
REMARK  4 active torsions:
REMARK  status: ('A' for Active; 'I' for Inactive)
REMARK    1  A    between atoms: N_3  and  C_4
REMARK    2  A    between atoms: C_6  and  C_10
REMARK    3  A    between atoms: N_12  and  C_13
REMARK    4  A    between atoms: C_23  and  C_25
REMARK                            x       y       z     vdW  Elec       q    Type
REMARK                         _______ _______ _______ _____ _____    ______ ____
ROOT
ATOM     13  C   UNL     1      -3.476   0.308  23.878  0.00  0.00    +0.131 A 
ATOM     14  C   UNL     1      -4.187  -0.055  24.085  0.00  0.00    +0.023 A 
ATOM     15  C   UNL     1      -4.181  -0.784  24.471  0.00  0.00    +0.014 A 
ATOM     16  C   UNL     1      -3.464  -1.150  24.649  0.00  0.00    +0.041 A 
ATOM     17  C   UNL     1      -3.129  -1.909  25.044  0.00  0.00    +0.058 C 
ATOM     18  C   UNL     1      -3.334  -2.501  25.361  0.00  0.00    +0.011 C 
ATOM     19  C   UNL     1      -2.633  -2.140  25.155  0.00  0.00    +0.043 C 
ATOM     20  C   UNL     1      -1.698  -1.868  24.991  0.00  0.00    +0.096 C 
ATOM     21  N   UNL     1      -1.829  -1.137  24.607  0.00  0.00    -0.276 N 
ATOM     22  C   UNL     1      -2.219  -1.661  24.893  0.00  0.00    +0.099 C 
ATOM     23  C   UNL     1      -1.656  -0.425  24.227  0.00  0.00    +0.249 C 
ATOM     24  O   UNL     1      -2.269   0.069  23.979  0.00  0.00    -0.270 OA
ATOM     31  C   UNL     1      -2.974  -1.343  24.741  0.00  0.00    +0.110 C 
ATOM     32  N   UNL     1      -2.753  -0.787  24.442  0.00  0.00    -0.298 N 
ATOM     33  C   UNL     1      -2.759  -0.058  24.056  0.00  0.00    +0.276 A 
ATOM     34  O   UNL     1      -2.211   0.483  23.759  0.00  0.00    -0.266 OA
ENDROOT
BRANCH  23  25
ATOM     25  C   UNL     1      -0.872  -0.208  24.096  0.00  0.00    +0.054 A 
ATOM     26  C   UNL     1      -0.513   0.356  24.578  0.00  0.00    +0.005 A 
ATOM     27  C   UNL     1       0.272   0.574  24.446  0.00  0.00    +0.000 A 
ATOM     28  C   UNL     1       0.698   0.225  23.832  0.00  0.00    +0.000 A 
ATOM     29  C   UNL     1       0.341  -0.339  23.349  0.00  0.00    +0.000 A 
ATOM     30  C   UNL     1      -0.445  -0.556  23.481  0.00  0.00    +0.005 A 
ENDBRANCH  23  25
BRANCH  13  12
ATOM      1  O   UNL     1      -3.811   2.428  23.479  0.00  0.00    -0.248 OA
ATOM      2  C   UNL     1      -3.805   1.699  23.865  0.00  0.00    +0.348 C 
ATOM      3  N   UNL     1      -4.120   1.631  24.625  0.00  0.00    -0.161 NA
ATOM     12  N   UNL     1      -3.483   1.037  23.492  0.00  0.00    -0.156 NA
BRANCH   3   4
ATOM      4  C   UNL     1      -4.443   2.293  24.998  0.00  0.00    +0.076 A 
ATOM      5  C   UNL     1      -3.950   2.830  25.385  0.00  0.00    +0.027 A 
ATOM      6  C   UNL     1      -4.272   3.491  25.757  0.00  0.00    +0.070 A 
ATOM      7  C   UNL     1      -5.088   3.616  25.742  0.00  0.00    +0.010 A 
ATOM      8  C   UNL     1      -5.581   3.080  25.355  0.00  0.00    +0.002 A 
ATOM      9  C   UNL     1      -5.258   2.419  24.983  0.00  0.00    +0.017 A 
BRANCH   6  10
ATOM     10  C   UNL     1      -3.779   4.028  26.144  0.00  0.00    +0.100 C 
ATOM     11  N   UNL     1      -3.286   4.563  26.531  0.00  0.00    -0.191 NA
ENDBRANCH   6  10
ENDBRANCH   3   4
ENDBRANCH  13  12
TORSDOF 4
ENDMDL
