MODEL 1
REMARK VINA RESULT:     -10.6      0.000      0.000
REMARK  Name = 
REMARK  7 active torsions:
REMARK  status: ('A' for Active; 'I' for Inactive)
REMARK    1  A    between atoms: C_2  and  C_3
REMARK    2  A    between atoms: C_5  and  C_6
REMARK    3  A    between atoms: C_6  and  N_7
REMARK    4  A    between atoms: N_7  and  S_8
REMARK    5  A    between atoms: S_8  and  C_11
REMARK    6  A    between atoms: C_17  and  N_20
REMARK    7  A    between atoms: N_23  and  C_26
REMARK                            x       y       z     vdW  Elec       q    Type
REMARK                         _______ _______ _______ _____ _____    ______ ____
ROOT
ATOM      3  C   UNL     1      -5.879   1.885  25.120  0.00  0.00    +0.180 C 
ATOM      4  O   UNL     1      -5.450   1.185  25.037  0.00  0.00    -0.350 OA
ATOM      5  C   UNL     1      -4.650   1.380  24.983  0.00  0.00    +0.152 C 
ATOM     17  C   UNL     1      -4.584   2.201  25.033  0.00  0.00    +0.120 C 
ATOM     18  C   UNL     1      -5.344   2.513  25.118  0.00  0.00    +0.198 C 
ATOM     19  O   UNL     1      -5.535   3.313  25.187  0.00  0.00    -0.219 OA
ENDROOT
BRANCH  17  20
ATOM     20  N   UNL     1      -3.883   2.634  25.004  0.00  0.00    -0.267 NA
ATOM     21  C   UNL     1      -3.572   2.867  24.276  0.00  0.00    +0.094 C 
ATOM     22  C   UNL     1      -2.870   3.300  24.246  0.00  0.00    +0.108 C 
ATOM     23  N   UNL     1      -2.480   3.501  24.945  0.00  0.00    -0.305 N 
ATOM     24  C   UNL     1      -2.791   3.269  25.673  0.00  0.00    +0.108 C 
ATOM     25  C   UNL     1      -3.493   2.835  25.702  0.00  0.00    +0.094 C 
BRANCH  23  26
ATOM     26  C   UNL     1      -1.778   3.934  24.916  0.00  0.00    +0.048 A 
ATOM     27  C   UNL     1      -1.066   3.554  24.747  0.00  0.00    +0.015 A 
ATOM     28  C   UNL     1      -0.364   3.988  24.717  0.00  0.00    +0.001 A 
ATOM     29  C   UNL     1      -0.375   4.801  24.857  0.00  0.00    +0.000 A 
ATOM     30  C   UNL     1      -1.088   5.180  25.025  0.00  0.00    +0.001 A 
ATOM     31  C   UNL     1      -1.789   4.747  25.055  0.00  0.00    +0.015 A 
ENDBRANCH  23  26
ENDBRANCH  17  20
BRANCH   3   2
ATOM      1  O   UNL     1      -7.190   1.560  24.653  0.00  0.00    -0.218 OA
ATOM      2  C   UNL     1      -6.697   1.946  25.192  0.00  0.00    +0.214 C 
ENDBRANCH   3   2
BRANCH   5   6
ATOM      6  C   UNL     1      -4.026   0.848  24.895  0.00  0.00    +0.146 C 
BRANCH   6   7
ATOM      7  N   UNL     1      -4.175   0.037  24.879  0.00  0.00    -0.075 NA
BRANCH   7   8
ATOM      8  S   UNL     1      -3.547  -0.496  24.818  0.00  0.00    +0.077 S 
ATOM      9  O   UNL     1      -3.531  -0.570  25.640  0.00  0.00    -0.152 OA
ATOM     10  O   UNL     1      -3.564  -0.422  23.997  0.00  0.00    -0.152 OA
BRANCH   8  11
ATOM     11  C   UNL     1      -2.921  -1.028  24.758  0.00  0.00    +0.124 A 
ATOM     12  C   UNL     1      -3.071  -1.831  24.639  0.00  0.00    +0.020 A 
ATOM     13  C   UNL     1      -2.444  -2.364  24.579  0.00  0.00    +0.001 A 
ATOM     14  C   UNL     1      -1.666  -2.094  24.638  0.00  0.00    +0.000 A 
ATOM     15  C   UNL     1      -1.516  -1.292  24.758  0.00  0.00    +0.001 A 
ATOM     16  C   UNL     1      -2.143  -0.759  24.818  0.00  0.00    +0.020 A 
ENDBRANCH   8  11
ENDBRANCH   7   8
ENDBRANCH   6   7
ENDBRANCH   5   6
TORSDOF 7
ENDMDL
MODEL 2
REMARK VINA RESULT:     -10.5      1.640      4.391
REMARK  Name = 
REMARK  7 active torsions:
REMARK  status: ('A' for Active; 'I' for Inactive)
REMARK    1  A    between atoms: C_2  and  C_3
REMARK    2  A    between atoms: C_5  and  C_6
REMARK    3  A    between atoms: C_6  and  N_7
REMARK    4  A    between atoms: N_7  and  S_8
REMARK    5  A    between atoms: S_8  and  C_11
REMARK    6  A    between atoms: C_17  and  N_20
REMARK    7  A    between atoms: N_23  and  C_26
REMARK                            x       y       z     vdW  Elec       q    Type
REMARK                         _______ _______ _______ _____ _____    ______ ____
ROOT
ATOM      3  C   UNL     1      -5.231   2.964  25.243  0.00  0.00    +0.180 C 
ATOM      4  O   UNL     1      -4.425   3.135  25.210  0.00  0.00    -0.350 OA
ATOM      5  C   UNL     1      -4.019   2.429  25.076  0.00  0.00    +0.152 C 
ATOM     17  C   UNL     1      -4.575   1.821  25.025  0.00  0.00    +0.120 C 
ATOM     18  C   UNL     1      -5.324   2.152  25.129  0.00  0.00    +0.198 C 
ATOM     19  O   UNL     1      -6.040   1.742  25.120  0.00  0.00    -0.219 OA
ENDROOT
BRANCH  17  20
ATOM     20  N   UNL     1      -4.411   1.024  24.894  0.00  0.00    -0.267 NA
ATOM     21  C   UNL     1      -4.404   0.495  25.528  0.00  0.00    +0.094 C 
ATOM     22  C   UNL     1      -4.240  -0.303  25.398  0.00  0.00    +0.108 C 
ATOM     23  N   UNL     1      -4.083  -0.572  24.633  0.00  0.00    -0.305 N 
ATOM     24  C   UNL     1      -4.090  -0.044  24.001  0.00  0.00    +0.108 C 
ATOM     25  C   UNL     1      -4.254   0.755  24.131  0.00  0.00    +0.094 C 
BRANCH  23  26
ATOM     26  C   UNL     1      -3.919  -1.371  24.503  0.00  0.00    +0.048 A 
ATOM     27  C   UNL     1      -3.351  -1.755  24.960  0.00  0.00    +0.015 A 
ATOM     28  C   UNL     1      -3.187  -2.553  24.830  0.00  0.00    +0.001 A 
ATOM     29  C   UNL     1      -3.592  -2.967  24.241  0.00  0.00    +0.000 A 
ATOM     30  C   UNL     1      -4.160  -2.582  23.784  0.00  0.00    +0.001 A 
ATOM     31  C   UNL     1      -4.324  -1.784  23.915  0.00  0.00    +0.015 A 
ENDBRANCH  23  26
ENDBRANCH  17  20
BRANCH   3   2
ATOM      1  O   UNL     1      -5.676   4.226  25.744  0.00  0.00    -0.218 OA
ATOM      2  C   UNL     1      -5.837   3.508  25.369  0.00  0.00    +0.214 C 
ENDBRANCH   3   2
BRANCH   5   6
ATOM      6  C   UNL     1      -3.202   2.346  25.004  0.00  0.00    +0.146 C 
BRANCH   6   7
ATOM      7  N   UNL     1      -2.705   2.976  25.192  0.00  0.00    -0.075 NA
BRANCH   7   8
ATOM      8  S   UNL     1      -1.891   2.854  25.259  0.00  0.00    +0.077 S 
ATOM      9  O   UNL     1      -1.960   2.845  26.081  0.00  0.00    -0.152 OA
ATOM     10  O   UNL     1      -1.822   2.864  24.437  0.00  0.00    -0.152 OA
BRANCH   8  11
ATOM     11  C   UNL     1      -1.078   2.733  25.326  0.00  0.00    +0.124 A 
ATOM     12  C   UNL     1      -0.709   2.801  26.061  0.00  0.00    +0.020 A 
ATOM     13  C   UNL     1       0.104   2.679  26.128  0.00  0.00    +0.001 A 
ATOM     14  C   UNL     1       0.549   2.489  25.459  0.00  0.00    +0.000 A 
ATOM     15  C   UNL     1       0.181   2.421  24.725  0.00  0.00    +0.001 A 
ATOM     16  C   UNL     1      -0.632   2.543  24.658  0.00  0.00    +0.020 A 
ENDBRANCH   8  11
ENDBRANCH   7   8
ENDBRANCH   6   7
ENDBRANCH   5   6
TORSDOF 7
ENDMDL
MODEL 3
REMARK VINA RESULT:     -10.2      2.042      5.404
REMARK  Name = 
REMARK  7 active torsions:
REMARK  status: ('A' for Active; 'I' for Inactive)
REMARK    1  A    between atoms: C_2  and  C_3
REMARK    2  A    between atoms: C_5  and  C_6
REMARK    3  A    between atoms: C_6  and  N_7
REMARK    4  A    between atoms: N_7  and  S_8
REMARK    5  A    between atoms: S_8  and  C_11
REMARK    6  A    between atoms: C_17  and  N_20
REMARK    7  A    between atoms: N_23  and  C_26
REMARK                            x       y       z     vdW  Elec       q    Type
REMARK                         _______ _______ _______ _____ _____    ______ ____
ROOT
ATOM      3  C   UNL     1      -0.440   2.011  25.224  0.00  0.00    +0.180 C 
ATOM      4  O   UNL     1      -1.141   2.446  25.225  0.00  0.00    -0.350 OA
ATOM      5  C   UNL     1      -1.766   1.924  25.091  0.00  0.00    +0.152 C 
ATOM     17  C   UNL     1      -1.451   1.166  25.006  0.00  0.00    +0.120 C 
ATOM     18  C   UNL     1      -0.632   1.220  25.088  0.00  0.00    +0.198 C 
ATOM     19  O   UNL     1      -0.098   0.592  25.043  0.00  0.00    -0.219 OA
ENDROOT
BRANCH  17  20
ATOM     20  N   UNL     1      -1.880   0.476  24.864  0.00  0.00    -0.267 NA
ATOM     21  C   UNL     1      -2.037   0.240  24.089  0.00  0.00    +0.094 C 
ATOM     22  C   UNL     1      -2.466  -0.450  23.947  0.00  0.00    +0.108 C 
ATOM     23  N   UNL     1      -2.738  -0.905  24.580  0.00  0.00    -0.305 N 
ATOM     24  C   UNL     1      -2.581  -0.669  25.354  0.00  0.00    +0.108 C 
ATOM     25  C   UNL     1      -2.152   0.022  25.497  0.00  0.00    +0.094 C 
BRANCH  23  26
ATOM     26  C   UNL     1      -3.167  -1.595  24.438  0.00  0.00    +0.048 A 
ATOM     27  C   UNL     1      -2.876  -2.322  24.697  0.00  0.00    +0.015 A 
ATOM     28  C   UNL     1      -3.305  -3.013  24.554  0.00  0.00    +0.001 A 
ATOM     29  C   UNL     1      -4.025  -2.976  24.153  0.00  0.00    +0.000 A 
ATOM     30  C   UNL     1      -4.315  -2.248  23.894  0.00  0.00    +0.001 A 
ATOM     31  C   UNL     1      -3.886  -1.558  24.037  0.00  0.00    +0.015 A 
ENDBRANCH  23  26
ENDBRANCH  17  20
BRANCH   3   2
ATOM      1  O   UNL     1       0.509   2.694  26.045  0.00  0.00    -0.218 OA
ATOM      2  C   UNL     1       0.318   2.314  25.337  0.00  0.00    +0.214 C 
ENDBRANCH   3   2
BRANCH   5   6
ATOM      6  C   UNL     1      -2.565   2.125  25.049  0.00  0.00    +0.146 C 
BRANCH   6   7
ATOM      7  N   UNL     1      -2.800   2.907  25.163  0.00  0.00    -0.075 NA
BRANCH   7   8
ATOM      8  S   UNL     1      -3.600   3.087  25.262  0.00  0.00    +0.077 S 
ATOM      9  O   UNL     1      -3.715   3.022  24.447  0.00  0.00    -0.152 OA
ATOM     10  O   UNL     1      -3.486   3.152  26.076  0.00  0.00    -0.152 OA
BRANCH   8  11
ATOM     11  C   UNL     1      -4.399   3.267  25.359  0.00  0.00    +0.124 A 
ATOM     12  C   UNL     1      -4.952   2.660  25.437  0.00  0.00    +0.020 A 
ATOM     13  C   UNL     1      -5.751   2.839  25.535  0.00  0.00    +0.001 A 
ATOM     14  C   UNL     1      -5.997   3.627  25.555  0.00  0.00    +0.000 A 
ATOM     15  C   UNL     1      -5.444   4.234  25.477  0.00  0.00    +0.001 A 
ATOM     16  C   UNL     1      -4.645   4.054  25.379  0.00  0.00    +0.020 A 
ENDBRANCH   8  11
ENDBRANCH   7   8
ENDBRANCH   6   7
ENDBRANCH   5   6
TORSDOF 7
ENDMDL
MODEL 4
REMARK VINA RESULT:     -10.2      2.012      4.878
REMARK  Name = 
REMARK  7 active torsions:
REMARK  status: ('A' for Active; 'I' for Inactive)
REMARK    1  A    between atoms: C_2  and  C_3
REMARK    2  A    between atoms: C_5  and  C_6
REMARK    3  A    between atoms: C_6  and  N_7
REMARK    4  A    between atoms: N_7  and  S_8
REMARK    5  A    between atoms: S_8  and  C_11
REMARK    6  A    between atoms: C_17  and  N_20
REMARK    7  A    between atoms: N_23  and  C_26
REMARK                            x       y       z     vdW  Elec       q    Type
REMARK                         _______ _______ _______ _____ _____    ______ ____
ROOT
ATOM      3  C   UNL     1      -0.912   3.838  24.742  0.00  0.00    +0.180 C 
ATOM      4  O   UNL     1      -1.735   3.811  24.782  0.00  0.00    -0.350 OA
ATOM      5  C   UNL     1      -1.964   3.019  24.807  0.00  0.00    +0.152 C 
ATOM     17  C   UNL     1      -1.282   2.555  24.782  0.00  0.00    +0.120 C 
ATOM     18  C   UNL     1      -0.631   3.062  24.742  0.00  0.00    +0.198 C 
ATOM     19  O   UNL     1       0.161   2.832  24.707  0.00  0.00    -0.219 OA
ENDROOT
BRANCH  17  20
ATOM     20  N   UNL     1      -1.255   1.731  24.794  0.00  0.00    -0.267 NA
ATOM     21  C   UNL     1      -1.284   1.307  24.087  0.00  0.00    +0.094 C 
ATOM     22  C   UNL     1      -1.257   0.482  24.099  0.00  0.00    +0.108 C 
ATOM     23  N   UNL     1      -1.200   0.082  24.819  0.00  0.00    -0.305 N 
ATOM     24  C   UNL     1      -1.170   0.506  25.525  0.00  0.00    +0.108 C 
ATOM     25  C   UNL     1      -1.198   1.331  25.513  0.00  0.00    +0.094 C 
BRANCH  23  26
ATOM     26  C   UNL     1      -1.172  -0.743  24.831  0.00  0.00    +0.048 A 
ATOM     27  C   UNL     1      -0.464  -1.129  25.004  0.00  0.00    +0.015 A 
ATOM     28  C   UNL     1      -0.437  -1.954  25.016  0.00  0.00    +0.001 A 
ATOM     29  C   UNL     1      -1.118  -2.392  24.855  0.00  0.00    +0.000 A 
ATOM     30  C   UNL     1      -1.826  -2.004  24.683  0.00  0.00    +0.001 A 
ATOM     31  C   UNL     1      -1.853  -1.180  24.671  0.00  0.00    +0.015 A 
ENDBRANCH  23  26
ENDBRANCH  17  20
BRANCH   3   2
ATOM      1  O   UNL     1      -0.770   5.246  24.936  0.00  0.00    -0.218 OA
ATOM      2  C   UNL     1      -0.450   4.520  24.708  0.00  0.00    +0.214 C 
ENDBRANCH   3   2
BRANCH   5   6
ATOM      6  C   UNL     1      -2.739   2.739  24.849  0.00  0.00    +0.146 C 
BRANCH   6   7
ATOM      7  N   UNL     1      -3.368   3.271  24.881  0.00  0.00    -0.075 NA
BRANCH   7   8
ATOM      8  S   UNL     1      -4.136   2.994  25.004  0.00  0.00    +0.077 S 
ATOM      9  O   UNL     1      -4.226   2.885  24.190  0.00  0.00    -0.152 OA
ATOM     10  O   UNL     1      -4.047   3.103  25.816  0.00  0.00    -0.152 OA
BRANCH   8  11
ATOM     11  C   UNL     1      -4.904   2.717  25.125  0.00  0.00    +0.124 A 
ATOM     12  C   UNL     1      -5.149   2.011  24.776  0.00  0.00    +0.020 A 
ATOM     13  C   UNL     1      -5.916   1.734  24.897  0.00  0.00    +0.001 A 
ATOM     14  C   UNL     1      -6.439   2.165  25.369  0.00  0.00    +0.000 A 
ATOM     15  C   UNL     1      -6.195   2.870  25.718  0.00  0.00    +0.001 A 
ATOM     16  C   UNL     1      -5.427   3.147  25.597  0.00  0.00    +0.020 A 
ENDBRANCH   8  11
ENDBRANCH   7   8
ENDBRANCH   6   7
ENDBRANCH   5   6
TORSDOF 7
ENDMDL
MODEL 5
REMARK VINA RESULT:     -10.1      2.613      4.189
REMARK  Name = 
REMARK  7 active torsions:
REMARK  status: ('A' for Active; 'I' for Inactive)
REMARK    1  A    between atoms: C_2  and  C_3
REMARK    2  A    between atoms: C_5  and  C_6
REMARK    3  A    between atoms: C_6  and  N_7
REMARK    4  A    between atoms: N_7  and  S_8
REMARK    5  A    between atoms: S_8  and  C_11
REMARK    6  A    between atoms: C_17  and  N_20
REMARK    7  A    between atoms: N_23  and  C_26
REMARK                            x       y       z     vdW  Elec       q    Type
REMARK                         _______ _______ _______ _____ _____    ______ ____
ROOT
ATOM      3  C   UNL     1       1.210   0.275  23.388  0.00  0.00    +0.180 C 
ATOM      4  O   UNL     1       0.599  -0.232  23.612  0.00  0.00    -0.350 OA
ATOM      5  C   UNL     1       0.007   0.221  23.965  0.00  0.00    +0.152 C 
ATOM     17  C   UNL     1       0.252   1.009  23.960  0.00  0.00    +0.120 C 
ATOM     18  C   UNL     1       0.996   1.043  23.604  0.00  0.00    +0.198 C 
ATOM     19  O   UNL     1       1.446   1.724  23.484  0.00  0.00    -0.219 OA
ENDROOT
BRANCH  17  20
ATOM     20  N   UNL     1      -0.171   1.651  24.259  0.00  0.00    -0.267 NA
ATOM     21  C   UNL     1      -0.753   2.012  23.798  0.00  0.00    +0.094 C 
ATOM     22  C   UNL     1      -1.177   2.654  24.097  0.00  0.00    +0.108 C 
ATOM     23  N   UNL     1      -1.019   2.934  24.857  0.00  0.00    -0.305 N 
ATOM     24  C   UNL     1      -0.439   2.573  25.318  0.00  0.00    +0.108 C 
ATOM     25  C   UNL     1      -0.014   1.931  25.019  0.00  0.00    +0.094 C 
BRANCH  23  26
ATOM     26  C   UNL     1      -1.443   3.576  25.156  0.00  0.00    +0.048 A 
ATOM     27  C   UNL     1      -1.178   4.345  25.019  0.00  0.00    +0.015 A 
ATOM     28  C   UNL     1      -1.602   4.987  25.318  0.00  0.00    +0.001 A 
ATOM     29  C   UNL     1      -2.292   4.859  25.753  0.00  0.00    +0.000 A 
ATOM     30  C   UNL     1      -2.556   4.090  25.890  0.00  0.00    +0.001 A 
ATOM     31  C   UNL     1      -2.132   3.449  25.591  0.00  0.00    +0.015 A 
ENDBRANCH  23  26
ENDBRANCH  17  20
BRANCH   3   2
ATOM      1  O   UNL     1       1.887  -0.327  22.284  0.00  0.00    -0.218 OA
ATOM      2  C   UNL     1       1.911   0.055  23.015  0.00  0.00    +0.214 C 
ENDBRANCH   3   2
BRANCH   5   6
ATOM      6  C   UNL     1      -0.704  -0.063  24.270  0.00  0.00    +0.146 C 
BRANCH   6   7
ATOM      7  N   UNL     1      -0.809  -0.873  24.386  0.00  0.00    -0.075 NA
BRANCH   7   8
ATOM      8  S   UNL     1      -1.530  -1.160  24.667  0.00  0.00    +0.077 S 
ATOM      9  O   UNL     1      -1.872  -1.026  23.928  0.00  0.00    -0.152 OA
ATOM     10  O   UNL     1      -1.189  -1.294  25.406  0.00  0.00    -0.152 OA
BRANCH   8  11
ATOM     11  C   UNL     1      -2.251  -1.446  24.948  0.00  0.00    +0.124 A 
ATOM     12  C   UNL     1      -2.694  -0.998  25.481  0.00  0.00    +0.020 A 
ATOM     13  C   UNL     1      -3.415  -1.285  25.762  0.00  0.00    +0.001 A 
ATOM     14  C   UNL     1      -3.693  -2.020  25.509  0.00  0.00    +0.000 A 
ATOM     15  C   UNL     1      -3.250  -2.467  24.976  0.00  0.00    +0.001 A 
ATOM     16  C   UNL     1      -2.529  -2.181  24.696  0.00  0.00    +0.020 A 
ENDBRANCH   8  11
ENDBRANCH   7   8
ENDBRANCH   6   7
ENDBRANCH   5   6
TORSDOF 7
ENDMDL
MODEL 6
REMARK VINA RESULT:     -10.0      2.142      3.793
REMARK  Name = 
REMARK  7 active torsions:
REMARK  status: ('A' for Active; 'I' for Inactive)
REMARK    1  A    between atoms: C_2  and  C_3
REMARK    2  A    between atoms: C_5  and  C_6
REMARK    3  A    between atoms: C_6  and  N_7
REMARK    4  A    between atoms: N_7  and  S_8
REMARK    5  A    between atoms: S_8  and  C_11
REMARK    6  A    between atoms: C_17  and  N_20
REMARK    7  A    between atoms: N_23  and  C_26
REMARK                            x       y       z     vdW  Elec       q    Type
REMARK                         _______ _______ _______ _____ _____    ______ ____
ROOT
ATOM      3  C   UNL     1       0.084   1.797  24.258  0.00  0.00    +0.180 C 
ATOM      4  O   UNL     1      -0.199   1.030  24.363  0.00  0.00    -0.350 OA
ATOM      5  C   UNL     1      -1.003   1.076  24.545  0.00  0.00    +0.152 C 
ATOM     17  C   UNL     1      -1.217   1.873  24.553  0.00  0.00    +0.120 C 
ATOM     18  C   UNL     1      -0.545   2.319  24.376  0.00  0.00    +0.198 C 
ATOM     19  O   UNL     1      -0.509   3.142  24.325  0.00  0.00    -0.219 OA
ENDROOT
BRANCH  17  20
ATOM     20  N   UNL     1      -1.969   2.172  24.710  0.00  0.00    -0.267 NA
ATOM     21  C   UNL     1      -2.171   2.398  25.478  0.00  0.00    +0.094 C 
ATOM     22  C   UNL     1      -2.924   2.697  25.636  0.00  0.00    +0.108 C 
ATOM     23  N   UNL     1      -3.475   2.769  25.025  0.00  0.00    -0.305 N 
ATOM     24  C   UNL     1      -3.273   2.543  24.259  0.00  0.00    +0.108 C 
ATOM     25  C   UNL     1      -2.520   2.244  24.101  0.00  0.00    +0.094 C 
BRANCH  23  26
ATOM     26  C   UNL     1      -4.228   3.068  25.183  0.00  0.00    +0.048 A 
ATOM     27  C   UNL     1      -4.348   3.883  25.221  0.00  0.00    +0.015 A 
ATOM     28  C   UNL     1      -5.101   4.182  25.379  0.00  0.00    +0.001 A 
ATOM     29  C   UNL     1      -5.734   3.666  25.498  0.00  0.00    +0.000 A 
ATOM     30  C   UNL     1      -5.612   2.851  25.460  0.00  0.00    +0.001 A 
ATOM     31  C   UNL     1      -4.860   2.552  25.302  0.00  0.00    +0.015 A 
ENDBRANCH  23  26
ENDBRANCH  17  20
BRANCH   3   2
ATOM      1  O   UNL     1       1.403   1.424  23.858  0.00  0.00    -0.218 OA
ATOM      2  C   UNL     1       0.858   2.007  24.070  0.00  0.00    +0.214 C 
ENDBRANCH   3   2
BRANCH   5   6
ATOM      6  C   UNL     1      -1.504   0.438  24.693  0.00  0.00    +0.146 C 
BRANCH   6   7
ATOM      7  N   UNL     1      -1.213  -0.332  24.657  0.00  0.00    -0.075 NA
BRANCH   7   8
ATOM      8  S   UNL     1      -1.730  -0.973  24.717  0.00  0.00    +0.077 S 
ATOM      9  O   UNL     1      -1.860  -0.945  23.903  0.00  0.00    -0.152 OA
ATOM     10  O   UNL     1      -1.601  -1.001  25.531  0.00  0.00    -0.152 OA
BRANCH   8  11
ATOM     11  C   UNL     1      -2.248  -1.612  24.777  0.00  0.00    +0.124 A 
ATOM     12  C   UNL     1      -3.003  -1.505  25.094  0.00  0.00    +0.020 A 
ATOM     13  C   UNL     1      -3.520  -2.144  25.154  0.00  0.00    +0.001 A 
ATOM     14  C   UNL     1      -3.282  -2.892  24.897  0.00  0.00    +0.000 A 
ATOM     15  C   UNL     1      -2.529  -2.999  24.580  0.00  0.00    +0.001 A 
ATOM     16  C   UNL     1      -2.011  -2.360  24.520  0.00  0.00    +0.020 A 
ENDBRANCH   8  11
ENDBRANCH   7   8
ENDBRANCH   6   7
ENDBRANCH   5   6
TORSDOF 7
ENDMDL
MODEL 7
REMARK VINA RESULT:      -9.9      2.997      6.069
REMARK  Name = 
REMARK  7 active torsions:
REMARK  status: ('A' for Active; 'I' for Inactive)
REMARK    1  A    between atoms: C_2  and  C_3
REMARK    2  A    between atoms: C_5  and  C_6
REMARK    3  A    between atoms: C_6  and  N_7
REMARK    4  A    between atoms: N_7  and  S_8
REMARK    5  A    between atoms: S_8  and  C_11
REMARK    6  A    between atoms: C_17  and  N_20
REMARK    7  A    between atoms: N_23  and  C_26
REMARK                            x       y       z     vdW  Elec       q    Type
REMARK                         _______ _______ _______ _____ _____    ______ ____
ROOT
ATOM      3  C   UNL     1       1.379   0.741  23.361  0.00  0.00    +0.180 C 
ATOM      4  O   UNL     1       1.065   1.422  23.704  0.00  0.00    -0.350 OA
ATOM      5  C   UNL     1       0.338   1.225  24.043  0.00  0.00    +0.152 C 
ATOM     17  C   UNL     1       0.204   0.422  23.910  0.00  0.00    +0.120 C 
ATOM     18  C   UNL     1       0.848   0.123  23.489  0.00  0.00    +0.198 C 
ATOM     19  O   UNL     1       0.943  -0.658  23.239  0.00  0.00    -0.219 OA
ENDROOT
BRANCH  17  20
ATOM     20  N   UNL     1      -0.456  -0.006  24.155  0.00  0.00    -0.267 NA
ATOM     21  C   UNL     1      -1.151   0.017  23.709  0.00  0.00    +0.094 C 
ATOM     22  C   UNL     1      -1.813  -0.412  23.954  0.00  0.00    +0.108 C 
ATOM     23  N   UNL     1      -1.779  -0.864  24.644  0.00  0.00    -0.305 N 
ATOM     24  C   UNL     1      -1.085  -0.886  25.089  0.00  0.00    +0.108 C 
ATOM     25  C   UNL     1      -0.424  -0.457  24.844  0.00  0.00    +0.094 C 
BRANCH  23  26
ATOM     26  C   UNL     1      -2.440  -1.292  24.889  0.00  0.00    +0.048 A 
ATOM     27  C   UNL     1      -2.590  -2.037  24.569  0.00  0.00    +0.015 A 
ATOM     28  C   UNL     1      -3.252  -2.466  24.813  0.00  0.00    +0.001 A 
ATOM     29  C   UNL     1      -3.763  -2.149  25.378  0.00  0.00    +0.000 A 
ATOM     30  C   UNL     1      -3.613  -1.403  25.698  0.00  0.00    +0.001 A 
ATOM     31  C   UNL     1      -2.951  -0.975  25.453  0.00  0.00    +0.015 A 
ENDBRANCH  23  26
ENDBRANCH  17  20
BRANCH   3   2
ATOM      1  O   UNL     1       2.723   1.187  23.167  0.00  0.00    -0.218 OA
ATOM      2  C   UNL     1       2.098   0.687  22.963  0.00  0.00    +0.214 C 
ENDBRANCH   3   2
BRANCH   5   6
ATOM      6  C   UNL     1      -0.165   1.741  24.444  0.00  0.00    +0.146 C 
BRANCH   6   7
ATOM      7  N   UNL     1       0.040   2.535  24.529  0.00  0.00    -0.075 NA
BRANCH   7   8
ATOM      8  S   UNL     1      -0.513   3.076  24.816  0.00  0.00    +0.077 S 
ATOM      9  O   UNL     1      -0.768   3.224  24.045  0.00  0.00    -0.152 OA
ATOM     10  O   UNL     1      -0.259   2.928  25.586  0.00  0.00    -0.152 OA
BRANCH   8  11
ATOM     11  C   UNL     1      -1.067   3.617  25.102  0.00  0.00    +0.124 A 
ATOM     12  C   UNL     1      -0.965   4.424  24.964  0.00  0.00    +0.020 A 
ATOM     13  C   UNL     1      -1.518   4.965  25.250  0.00  0.00    +0.001 A 
ATOM     14  C   UNL     1      -2.174   4.698  25.674  0.00  0.00    +0.000 A 
ATOM     15  C   UNL     1      -2.276   3.891  25.812  0.00  0.00    +0.001 A 
ATOM     16  C   UNL     1      -1.723   3.351  25.526  0.00  0.00    +0.020 A 
ENDBRANCH   8  11
ENDBRANCH   7   8
ENDBRANCH   6   7
ENDBRANCH   5   6
TORSDOF 7
ENDMDL
