REMARK  Name = 
REMARK  5 active torsions:
REMARK  status: ('A' for Active; 'I' for Inactive)
REMARK    1  A    between atoms: N_2  and  C_4
REMARK    2  A    between atoms: C_4  and  C_5
REMARK    3  A    between atoms: C_7  and  C_8
REMARK    4  A    between atoms: C_8  and  C_9
REMARK    5  A    between atoms: C_12  and  C_14
REMARK                            x       y       z     vdW  Elec       q    Type
REMARK                         _______ _______ _______ _____ _____    ______ ____
ROOT
ATOM      5  C   UNL     1       0.107   2.413   0.000  0.00  0.00    +0.161 C 
ATOM      6  O   UNL     1      -0.608   2.001   0.000  0.00  0.00    -0.354 OA
ATOM      7  C   UNL     1      -1.322   2.413   0.000  0.00  0.00    +0.121 C 
ATOM     18  C   UNL     1      -1.322   3.238   0.000  0.00  0.00    +0.033 C 
ATOM     19  C   UNL     1      -0.608   3.651   0.000  0.00  0.00    +0.038 C 
ATOM     20  C   UNL     1       0.107   3.238   0.000  0.00  0.00    +0.180 C 
ATOM     21  O   UNL     1       0.821   3.651   0.000  0.00  0.00    -0.220 OA
ENDROOT
BRANCH   5   4
ATOM      4  C   UNL     1       0.821   2.001   0.000  0.00  0.00    +0.105 C 
BRANCH   4   2
ATOM      1  C   UNL     1       2.250   2.001   0.000  0.00  0.00    +0.090 C 
ATOM      2  N   UNL     1       1.536   2.413   0.000  0.00  0.00    -0.268 NA
ATOM      3  C   UNL     1       1.536   3.238   0.000  0.00  0.00    +0.090 C 
ENDBRANCH   4   2
ENDBRANCH   5   4
BRANCH   7   8
ATOM      8  C   UNL     1      -2.037   2.001   0.000  0.00  0.00    +0.079 C 
BRANCH   8   9
ATOM      9  C   UNL     1      -2.037   1.176   0.000  0.00  0.00    +0.103 A 
ATOM     10  N   UNL     1      -1.369   0.691   0.000  0.00  0.00    -0.082 NA
ATOM     11  O   UNL     1      -1.624  -0.094   0.000  0.00  0.00    -0.358 OA
ATOM     12  C   UNL     1      -2.449  -0.094   0.000  0.00  0.00    +0.153 A 
ATOM     13  C   UNL     1      -2.704   0.691   0.000  0.00  0.00    +0.054 A 
BRANCH  12  14
ATOM     14  C   UNL     1      -2.934  -0.761   0.000  0.00  0.00    +0.054 C 
ATOM     15  C   UNL     1      -3.419  -1.429   0.000  0.00  0.00    +0.008 C 
ATOM     16  C   UNL     1      -3.602  -0.276   0.000  0.00  0.00    +0.008 C 
ATOM     17  C   UNL     1      -2.267  -1.246   0.000  0.00  0.00    +0.008 C 
ENDBRANCH  12  14
ENDBRANCH   8   9
ENDBRANCH   7   8
TORSDOF 5
