MODEL 1
REMARK VINA RESULT:      -9.5      0.000      0.000
REMARK  Name = 
REMARK  8 active torsions:
REMARK  status: ('A' for Active; 'I' for Inactive)
REMARK    1  A    between atoms: O_2  and  C_3
REMARK    2  A    between atoms: C_3  and  C_5
REMARK    3  A    between atoms: C_10  and  C_11
REMARK    4  A    between atoms: C_11  and  C_12
REMARK    5  A    between atoms: C_14  and  C_15
REMARK    6  A    between atoms: C_18  and  C_19
REMARK    7  A    between atoms: C_19  and  N_20
REMARK    8  A    between atoms: C_21  and  C_23
REMARK                            x       y       z     vdW  Elec       q    Type
REMARK                         _______ _______ _______ _____ _____    ______ ____
ROOT
ATOM     12  C   UNL     1      -4.458   1.601  24.598  0.00  0.00    +0.026 C 
ATOM     13  C   UNL     1      -3.767   1.444  24.176  0.00  0.00    +0.005 C 
ATOM     14  C   UNL     1      -3.545   0.664  24.023  0.00  0.00    +0.006 C 
ATOM     18  C   UNL     1      -4.014   0.042  24.292  0.00  0.00    +0.043 C 
ATOM     29  C   UNL     1      -4.705   0.199  24.715  0.00  0.00    -0.033 C 
ATOM     30  C   UNL     1      -4.927   0.978  24.868  0.00  0.00    -0.048 C 
ATOM     31  C   UNL     1      -5.618   1.135  25.291  0.00  0.00    +0.026 C 
ENDROOT
BRANCH  14  15
ATOM     15  C   UNL     1      -2.854   0.507  23.601  0.00  0.00    +0.000 C 
ATOM     16  C   UNL     1      -2.884   0.407  22.782  0.00  0.00    +0.000 C 
ATOM     17  C   UNL     1      -2.132   0.449  23.997  0.00  0.00    +0.000 C 
ENDBRANCH  14  15
BRANCH  12  11
ATOM     11  C   UNL     1      -4.680   2.381  24.751  0.00  0.00    +0.070 C 
BRANCH  11  10
ATOM      5  C   UNL     1      -2.143   4.792  25.331  0.00  0.00    +0.077 A 
ATOM      6  C   UNL     1      -2.520   4.357  24.740  0.00  0.00    +0.027 A 
ATOM      7  C   UNL     1      -3.126   3.832  24.936  0.00  0.00    +0.100 A 
ATOM      8  C   UNL     1      -3.355   3.742  25.723  0.00  0.00    +0.100 A 
ATOM      9  N   UNL     1      -3.964   3.188  25.750  0.00  0.00    -0.229 NA
ATOM     10  C   UNL     1      -4.113   2.935  24.979  0.00  0.00    +0.139 A 
ATOM     32  N   UNL     1      -3.594   3.333  24.477  0.00  0.00    -0.229 NA
ATOM     33  C   UNL     1      -2.978   4.177  26.315  0.00  0.00    +0.021 A 
ATOM     34  C   UNL     1      -2.372   4.702  26.118  0.00  0.00    +0.008 A 
BRANCH   5   3
ATOM      3  C   UNL     1      -1.538   5.316  25.135  0.00  0.00    +0.341 C 
ATOM      4  O   UNL     1      -1.691   6.126  25.097  0.00  0.00    -0.245 OA
BRANCH   3   2
ATOM      1  C   UNL     1      -0.243   5.497  24.559  0.00  0.00    +0.256 C 
ATOM      2  O   UNL     1      -0.780   5.032  24.977  0.00  0.00    -0.441 OA
ENDBRANCH   3   2
ENDBRANCH   5   3
ENDBRANCH  11  10
ENDBRANCH  12  11
BRANCH  18  19
ATOM     19  C   UNL     1      -3.793  -0.739  24.140  0.00  0.00    +0.120 C 
BRANCH  19  20
ATOM     20  N   UNL     1      -4.348  -1.277  23.855  0.00  0.00    -0.200 NA
ATOM     21  C   UNL     1      -4.236  -2.087  23.969  0.00  0.00    +0.284 C 
ATOM     22  O   UNL     1      -4.791  -2.625  23.683  0.00  0.00    -0.267 OA
BRANCH  21  23
ATOM     23  C   UNL     1      -3.567  -2.357  24.369  0.00  0.00    +0.155 A 
ATOM     24  C   UNL     1      -3.565  -2.393  25.194  0.00  0.00    +0.123 A 
ATOM     25  N   UNL     1      -2.897  -2.664  25.594  0.00  0.00    -0.239 NA
ATOM     26  C   UNL     1      -2.229  -2.898  25.169  0.00  0.00    +0.120 A 
ATOM     27  C   UNL     1      -2.230  -2.862  24.345  0.00  0.00    +0.120 A 
ATOM     28  N   UNL     1      -2.899  -2.592  23.945  0.00  0.00    -0.236 NA
ENDBRANCH  21  23
ENDBRANCH  19  20
ENDBRANCH  18  19
TORSDOF 8
ENDMDL
MODEL 2
REMARK VINA RESULT:      -8.5      2.890      5.037
REMARK  Name = 
REMARK  8 active torsions:
REMARK  status: ('A' for Active; 'I' for Inactive)
REMARK    1  A    between atoms: O_2  and  C_3
REMARK    2  A    between atoms: C_3  and  C_5
REMARK    3  A    between atoms: C_10  and  C_11
REMARK    4  A    between atoms: C_11  and  C_12
REMARK    5  A    between atoms: C_14  and  C_15
REMARK    6  A    between atoms: C_18  and  C_19
REMARK    7  A    between atoms: C_19  and  N_20
REMARK    8  A    between atoms: C_21  and  C_23
REMARK                            x       y       z     vdW  Elec       q    Type
REMARK                         _______ _______ _______ _____ _____    ______ ____
ROOT
ATOM     12  C   UNL     1      -1.520   2.668  24.972  0.00  0.00    +0.026 C 
ATOM     13  C   UNL     1      -1.924   2.400  24.305  0.00  0.00    +0.005 C 
ATOM     14  C   UNL     1      -2.744   2.480  24.259  0.00  0.00    +0.006 C 
ATOM     18  C   UNL     1      -3.160   2.827  24.881  0.00  0.00    +0.043 C 
ATOM     29  C   UNL     1      -2.756   3.095  25.549  0.00  0.00    -0.033 C 
ATOM     30  C   UNL     1      -1.937   3.016  25.595  0.00  0.00    -0.048 C 
ATOM     31  C   UNL     1      -1.533   3.284  26.263  0.00  0.00    +0.026 C 
ENDROOT
BRANCH  14  15
ATOM     15  C   UNL     1      -3.148   2.212  23.592  0.00  0.00    +0.000 C 
ATOM     16  C   UNL     1      -3.394   1.426  23.545  0.00  0.00    +0.000 C 
ATOM     17  C   UNL     1      -3.306   2.731  22.969  0.00  0.00    +0.000 C 
ENDBRANCH  14  15
BRANCH  12  11
ATOM     11  C   UNL     1      -0.700   2.589  25.019  0.00  0.00    +0.070 C 
BRANCH  11  10
ATOM      5  C   UNL     1       1.119   0.212  23.116  0.00  0.00    +0.077 A 
ATOM      6  C   UNL     1       0.997   1.020  23.222  0.00  0.00    +0.027 A 
ATOM      7  C   UNL     1       0.464   1.286  23.793  0.00  0.00    +0.100 A 
ATOM      8  C   UNL     1       0.054   0.743  24.259  0.00  0.00    +0.100 A 
ATOM      9  N   UNL     1      -0.433   1.164  24.774  0.00  0.00    -0.229 NA
ATOM     10  C   UNL     1      -0.323   1.968  24.628  0.00  0.00    +0.139 A 
ATOM     32  N   UNL     1       0.232   2.043  24.022  0.00  0.00    -0.229 NA
ATOM     33  C   UNL     1       0.175  -0.067  24.153  0.00  0.00    +0.021 A 
ATOM     34  C   UNL     1       0.708  -0.332  23.581  0.00  0.00    +0.008 A 
BRANCH   5   3
ATOM      3  C   UNL     1       1.651  -0.054  22.545  0.00  0.00    +0.341 C 
ATOM      4  O   UNL     1       1.372  -0.407  21.854  0.00  0.00    -0.245 OA
BRANCH   3   2
ATOM      1  C   UNL     1       2.981  -0.007  22.024  0.00  0.00    +0.256 C 
ATOM      2  O   UNL     1       2.463   0.033  22.664  0.00  0.00    -0.441 OA
ENDBRANCH   3   2
ENDBRANCH   5   3
ENDBRANCH  11  10
ENDBRANCH  12  11
BRANCH  18  19
ATOM     19  C   UNL     1      -3.980   2.907  24.836  0.00  0.00    +0.120 C 
BRANCH  19  20
ATOM     20  N   UNL     1      -4.336   3.625  25.028  0.00  0.00    -0.200 NA
ATOM     21  C   UNL     1      -5.107   3.638  25.322  0.00  0.00    +0.284 C 
ATOM     22  O   UNL     1      -5.463   4.357  25.514  0.00  0.00    -0.267 OA
BRANCH  21  23
ATOM     23  C   UNL     1      -5.521   2.932  25.424  0.00  0.00    +0.155 A 
ATOM     24  C   UNL     1      -5.496   2.540  26.150  0.00  0.00    +0.123 A 
ATOM     25  N   UNL     1      -5.910   1.834  26.253  0.00  0.00    -0.239 NA
ATOM     26  C   UNL     1      -6.350   1.520  25.629  0.00  0.00    +0.120 A 
ATOM     27  C   UNL     1      -6.376   1.912  24.904  0.00  0.00    +0.120 A 
ATOM     28  N   UNL     1      -5.961   2.618  24.802  0.00  0.00    -0.236 NA
ENDBRANCH  21  23
ENDBRANCH  19  20
ENDBRANCH  18  19
TORSDOF 8
ENDMDL
MODEL 3
REMARK VINA RESULT:      -8.5      1.363      5.707
REMARK  Name = 
REMARK  8 active torsions:
REMARK  status: ('A' for Active; 'I' for Inactive)
REMARK    1  A    between atoms: O_2  and  C_3
REMARK    2  A    between atoms: C_3  and  C_5
REMARK    3  A    between atoms: C_10  and  C_11
REMARK    4  A    between atoms: C_11  and  C_12
REMARK    5  A    between atoms: C_14  and  C_15
REMARK    6  A    between atoms: C_18  and  C_19
REMARK    7  A    between atoms: C_19  and  N_20
REMARK    8  A    between atoms: C_21  and  C_23
REMARK                            x       y       z     vdW  Elec       q    Type
REMARK                         _______ _______ _______ _____ _____    ______ ____
ROOT
ATOM     12  C   UNL     1      -4.555   1.616  24.735  0.00  0.00    +0.026 C 
ATOM     13  C   UNL     1      -4.106   1.786  24.064  0.00  0.00    +0.005 C 
ATOM     14  C   UNL     1      -3.619   2.452  24.053  0.00  0.00    +0.006 C 
ATOM     18  C   UNL     1      -3.579   2.946  24.711  0.00  0.00    +0.043 C 
ATOM     29  C   UNL     1      -4.028   2.776  25.382  0.00  0.00    -0.033 C 
ATOM     30  C   UNL     1      -4.516   2.111  25.395  0.00  0.00    -0.048 C 
ATOM     31  C   UNL     1      -4.965   1.941  26.066  0.00  0.00    +0.026 C 
ENDROOT
BRANCH  14  15
ATOM     15  C   UNL     1      -3.170   2.622  23.382  0.00  0.00    +0.000 C 
ATOM     16  C   UNL     1      -3.424   3.200  22.851  0.00  0.00    +0.000 C 
ATOM     17  C   UNL     1      -2.466   2.214  23.241  0.00  0.00    +0.000 C 
ENDBRANCH  14  15
BRANCH  12  11
ATOM     11  C   UNL     1      -5.043   0.951  24.748  0.00  0.00    +0.070 C 
BRANCH  11  10
ATOM      5  C   UNL     1      -3.415  -2.196  24.590  0.00  0.00    +0.077 A 
ATOM      6  C   UNL     1      -3.443  -1.487  25.008  0.00  0.00    +0.027 A 
ATOM      7  C   UNL     1      -3.973  -0.895  24.784  0.00  0.00    +0.100 A 
ATOM      8  C   UNL     1      -4.476  -1.015  24.142  0.00  0.00    +0.100 A 
ATOM      9  N   UNL     1      -4.938  -0.338  24.050  0.00  0.00    -0.229 NA
ATOM     10  C   UNL     1      -4.721   0.200  24.635  0.00  0.00    +0.139 A 
ATOM     32  N   UNL     1      -4.125  -0.145  25.089  0.00  0.00    -0.229 NA
ATOM     33  C   UNL     1      -4.449  -1.726  23.722  0.00  0.00    +0.021 A 
ATOM     34  C   UNL     1      -3.918  -2.316  23.947  0.00  0.00    +0.008 A 
BRANCH   5   3
ATOM      3  C   UNL     1      -2.885  -2.787  24.813  0.00  0.00    +0.341 C 
ATOM      4  O   UNL     1      -3.100  -3.337  25.389  0.00  0.00    -0.245 OA
BRANCH   3   2
ATOM      1  C   UNL     1      -1.467  -2.926  24.929  0.00  0.00    +0.256 C 
ATOM      2  O   UNL     1      -2.139  -2.828  24.462  0.00  0.00    -0.441 OA
ENDBRANCH   3   2
ENDBRANCH   5   3
ENDBRANCH  11  10
ENDBRANCH  12  11
BRANCH  18  19
ATOM     19  C   UNL     1      -3.091   3.612  24.700  0.00  0.00    +0.120 C 
BRANCH  19  20
ATOM     20  N   UNL     1      -3.280   4.270  25.158  0.00  0.00    -0.200 NA
ATOM     21  C   UNL     1      -2.680   4.735  25.482  0.00  0.00    +0.284 C 
ATOM     22  O   UNL     1      -2.869   5.393  25.941  0.00  0.00    -0.267 OA
BRANCH  21  23
ATOM     23  C   UNL     1      -1.890   4.540  25.346  0.00  0.00    +0.155 A 
ATOM     24  C   UNL     1      -1.454   4.953  24.780  0.00  0.00    +0.123 A 
ATOM     25  N   UNL     1      -0.664   4.758  24.645  0.00  0.00    -0.239 NA
ATOM     26  C   UNL     1      -0.310   4.150  25.075  0.00  0.00    +0.120 A 
ATOM     27  C   UNL     1      -0.745   3.736  25.640  0.00  0.00    +0.120 A 
ATOM     28  N   UNL     1      -1.535   3.931  25.776  0.00  0.00    -0.236 NA
ENDBRANCH  21  23
ENDBRANCH  19  20
ENDBRANCH  18  19
TORSDOF 8
ENDMDL
MODEL 4
REMARK VINA RESULT:      -8.2      3.570      5.214
REMARK  Name = 
REMARK  8 active torsions:
REMARK  status: ('A' for Active; 'I' for Inactive)
REMARK    1  A    between atoms: O_2  and  C_3
REMARK    2  A    between atoms: C_3  and  C_5
REMARK    3  A    between atoms: C_10  and  C_11
REMARK    4  A    between atoms: C_11  and  C_12
REMARK    5  A    between atoms: C_14  and  C_15
REMARK    6  A    between atoms: C_18  and  C_19
REMARK    7  A    between atoms: C_19  and  N_20
REMARK    8  A    between atoms: C_21  and  C_23
REMARK                            x       y       z     vdW  Elec       q    Type
REMARK                         _______ _______ _______ _____ _____    ______ ____
ROOT
ATOM     12  C   UNL     1      -0.897  -0.382  24.808  0.00  0.00    +0.026 C 
ATOM     13  C   UNL     1      -0.709   0.409  24.662  0.00  0.00    +0.005 C 
ATOM     14  C   UNL     1      -0.090   0.598  24.151  0.00  0.00    +0.006 C 
ATOM     18  C   UNL     1       0.342  -0.001  23.785  0.00  0.00    +0.043 C 
ATOM     29  C   UNL     1       0.155  -0.792  23.931  0.00  0.00    -0.033 C 
ATOM     30  C   UNL     1      -0.464  -0.982  24.442  0.00  0.00    -0.048 C 
ATOM     31  C   UNL     1      -0.651  -1.773  24.587  0.00  0.00    +0.026 C 
ENDROOT
BRANCH  14  15
ATOM     15  C   UNL     1       0.097   1.388  24.006  0.00  0.00    +0.000 C 
ATOM     16  C   UNL     1       0.620   1.787  24.504  0.00  0.00    +0.000 C 
ATOM     17  C   UNL     1      -0.239   1.781  23.362  0.00  0.00    +0.000 C 
ENDBRANCH  14  15
BRANCH  12  11
ATOM     11  C   UNL     1      -1.515  -0.572  25.318  0.00  0.00    +0.070 C 
BRANCH  11  10
ATOM      5  C   UNL     1      -4.647   1.046  24.926  0.00  0.00    +0.077 A 
ATOM      6  C   UNL     1      -3.893   1.135  25.245  0.00  0.00    +0.027 A 
ATOM      7  C   UNL     1      -3.336   0.530  25.166  0.00  0.00    +0.100 A 
ATOM      8  C   UNL     1      -3.536  -0.163  24.767  0.00  0.00    +0.100 A 
ATOM      9  N   UNL     1      -2.879  -0.661  24.775  0.00  0.00    -0.229 NA
ATOM     10  C   UNL     1      -2.272  -0.275  25.180  0.00  0.00    +0.139 A 
ATOM     32  N   UNL     1      -2.556   0.461  25.421  0.00  0.00    -0.229 NA
ATOM     33  C   UNL     1      -4.292  -0.253  24.447  0.00  0.00    +0.021 A 
ATOM     34  C   UNL     1      -4.847   0.352  24.527  0.00  0.00    +0.008 A 
BRANCH   5   3
ATOM      3  C   UNL     1      -5.203   1.650  25.005  0.00  0.00    +0.341 C 
ATOM      4  O   UNL     1      -5.252   2.242  24.433  0.00  0.00    -0.245 OA
BRANCH   3   2
ATOM      1  C   UNL     1      -6.220   2.300  25.770  0.00  0.00    +0.256 C 
ATOM      2  O   UNL     1      -5.709   1.663  25.657  0.00  0.00    -0.441 OA
ENDBRANCH   3   2
ENDBRANCH   5   3
ENDBRANCH  11  10
ENDBRANCH  12  11
BRANCH  18  19
ATOM     19  C   UNL     1       0.961   0.188  23.274  0.00  0.00    +0.120 C 
BRANCH  19  20
ATOM     20  N   UNL     1       0.951  -0.082  22.495  0.00  0.00    -0.200 NA
ATOM     21  C   UNL     1       1.658  -0.172  22.080  0.00  0.00    +0.284 C 
ATOM     22  O   UNL     1       1.648  -0.442  21.301  0.00  0.00    -0.267 OA
BRANCH  21  23
ATOM     23  C   UNL     1       2.376   0.008  22.444  0.00  0.00    +0.155 A 
ATOM     24  C   UNL     1       2.768  -0.565  22.890  0.00  0.00    +0.123 A 
ATOM     25  N   UNL     1       3.486  -0.385  23.255  0.00  0.00    -0.239 NA
ATOM     26  C   UNL     1       3.812   0.369  23.174  0.00  0.00    +0.120 A 
ATOM     27  C   UNL     1       3.420   0.942  22.728  0.00  0.00    +0.120 A 
ATOM     28  N   UNL     1       2.702   0.762  22.364  0.00  0.00    -0.236 NA
ENDBRANCH  21  23
ENDBRANCH  19  20
ENDBRANCH  18  19
TORSDOF 8
ENDMDL
MODEL 5
REMARK VINA RESULT:      -8.2      3.624      4.861
REMARK  Name = 
REMARK  8 active torsions:
REMARK  status: ('A' for Active; 'I' for Inactive)
REMARK    1  A    between atoms: O_2  and  C_3
REMARK    2  A    between atoms: C_3  and  C_5
REMARK    3  A    between atoms: C_10  and  C_11
REMARK    4  A    between atoms: C_11  and  C_12
REMARK    5  A    between atoms: C_14  and  C_15
REMARK    6  A    between atoms: C_18  and  C_19
REMARK    7  A    between atoms: C_19  and  N_20
REMARK    8  A    between atoms: C_21  and  C_23
REMARK                            x       y       z     vdW  Elec       q    Type
REMARK                         _______ _______ _______ _____ _____    ______ ____
ROOT
ATOM     12  C   UNL     1      -0.652   1.045  24.227  0.00  0.00    +0.026 C 
ATOM     13  C   UNL     1      -0.478   0.413  24.728  0.00  0.00    +0.005 C 
ATOM     14  C   UNL     1      -1.081  -0.091  24.980  0.00  0.00    +0.006 C 
ATOM     18  C   UNL     1      -1.856   0.037  24.731  0.00  0.00    +0.043 C 
ATOM     29  C   UNL     1      -2.030   0.669  24.231  0.00  0.00    -0.033 C 
ATOM     30  C   UNL     1      -1.429   1.174  23.979  0.00  0.00    -0.048 C 
ATOM     31  C   UNL     1      -1.602   1.806  23.478  0.00  0.00    +0.026 C 
ENDROOT
BRANCH  14  15
ATOM     15  C   UNL     1      -0.907  -0.723  25.480  0.00  0.00    +0.000 C 
ATOM     16  C   UNL     1      -0.987  -0.638  26.297  0.00  0.00    +0.000 C 
ATOM     17  C   UNL     1      -0.653  -1.443  25.164  0.00  0.00    +0.000 C 
ENDBRANCH  14  15
BRANCH  12  11
ATOM     11  C   UNL     1      -0.050   1.550  23.975  0.00  0.00    +0.070 C 
BRANCH  11  10
ATOM      5  C   UNL     1       3.119   0.475  22.797  0.00  0.00    +0.077 A 
ATOM      6  C   UNL     1       2.749   0.999  23.315  0.00  0.00    +0.027 A 
ATOM      7  C   UNL     1       1.925   1.015  23.369  0.00  0.00    +0.100 A 
ATOM      8  C   UNL     1       1.472   0.505  22.905  0.00  0.00    +0.100 A 
ATOM      9  N   UNL     1       0.678   0.643  23.075  0.00  0.00    -0.229 NA
ATOM     10  C   UNL     1       0.639   1.238  23.645  0.00  0.00    +0.139 A 
ATOM     32  N   UNL     1       1.410   1.468  23.826  0.00  0.00    -0.229 NA
ATOM     33  C   UNL     1       1.843  -0.021  22.386  0.00  0.00    +0.021 A 
ATOM     34  C   UNL     1       2.666  -0.035  22.333  0.00  0.00    +0.008 A 
BRANCH   5   3
ATOM      3  C   UNL     1       3.941   0.460  22.743  0.00  0.00    +0.341 C 
ATOM      4  O   UNL     1       4.319   0.817  22.103  0.00  0.00    -0.245 OA
BRANCH   3   2
ATOM      1  C   UNL     1       5.211   0.106  23.295  0.00  0.00    +0.256 C 
ATOM      2  O   UNL     1       4.387   0.088  23.329  0.00  0.00    -0.441 OA
ENDBRANCH   3   2
ENDBRANCH   5   3
ENDBRANCH  11  10
ENDBRANCH  12  11
BRANCH  18  19
ATOM     19  C   UNL     1      -2.459  -0.467  24.983  0.00  0.00    +0.120 C 
BRANCH  19  20
ATOM     20  N   UNL     1      -3.148  -0.155  25.312  0.00  0.00    -0.200 NA
ATOM     21  C   UNL     1      -3.858  -0.573  25.258  0.00  0.00    +0.284 C 
ATOM     22  O   UNL     1      -4.546  -0.261  25.587  0.00  0.00    -0.267 OA
BRANCH  21  23
ATOM     23  C   UNL     1      -3.878  -1.303  24.875  0.00  0.00    +0.155 A 
ATOM     24  C   UNL     1      -4.096  -1.346  24.080  0.00  0.00    +0.123 A 
ATOM     25  N   UNL     1      -4.116  -2.077  23.696  0.00  0.00    -0.239 NA
ATOM     26  C   UNL     1      -3.918  -2.764  24.108  0.00  0.00    +0.120 A 
ATOM     27  C   UNL     1      -3.700  -2.721  24.902  0.00  0.00    +0.120 A 
ATOM     28  N   UNL     1      -3.680  -1.991  25.285  0.00  0.00    -0.236 NA
ENDBRANCH  21  23
ENDBRANCH  19  20
ENDBRANCH  18  19
TORSDOF 8
ENDMDL
MODEL 6
REMARK VINA RESULT:      -8.1      3.323      5.495
REMARK  Name = 
REMARK  8 active torsions:
REMARK  status: ('A' for Active; 'I' for Inactive)
REMARK    1  A    between atoms: O_2  and  C_3
REMARK    2  A    between atoms: C_3  and  C_5
REMARK    3  A    between atoms: C_10  and  C_11
REMARK    4  A    between atoms: C_11  and  C_12
REMARK    5  A    between atoms: C_14  and  C_15
REMARK    6  A    between atoms: C_18  and  C_19
REMARK    7  A    between atoms: C_19  and  N_20
REMARK    8  A    between atoms: C_21  and  C_23
REMARK                            x       y       z     vdW  Elec       q    Type
REMARK                         _______ _______ _______ _____ _____    ______ ____
ROOT
ATOM     12  C   UNL     1      -1.116   0.484  24.352  0.00  0.00    +0.026 C 
ATOM     13  C   UNL     1      -0.872   1.234  24.596  0.00  0.00    +0.005 C 
ATOM     14  C   UNL     1      -1.413   1.856  24.618  0.00  0.00    +0.006 C 
ATOM     18  C   UNL     1      -2.197   1.730  24.397  0.00  0.00    +0.043 C 
ATOM     29  C   UNL     1      -2.441   0.981  24.153  0.00  0.00    -0.033 C 
ATOM     30  C   UNL     1      -1.901   0.358  24.130  0.00  0.00    -0.048 C 
ATOM     31  C   UNL     1      -2.146  -0.392  23.886  0.00  0.00    +0.026 C 
ENDROOT
BRANCH  14  15
ATOM     15  C   UNL     1      -1.169   2.606  24.862  0.00  0.00    +0.000 C 
ATOM     16  C   UNL     1      -0.906   3.156  24.307  0.00  0.00    +0.000 C 
ATOM     17  C   UNL     1      -1.188   2.806  25.663  0.00  0.00    +0.000 C 
ENDBRANCH  14  15
BRANCH  12  11
ATOM     11  C   UNL     1      -0.576  -0.139  24.329  0.00  0.00    +0.070 C 
BRANCH  11  10
ATOM      5  C   UNL     1       2.568   0.310  22.749  0.00  0.00    +0.077 A 
ATOM      6  C   UNL     1       2.166   0.410  23.462  0.00  0.00    +0.027 A 
ATOM      7  C   UNL     1       1.372   0.193  23.523  0.00  0.00    +0.100 A 
ATOM      8  C   UNL     1       0.981  -0.125  22.869  0.00  0.00    +0.100 A 
ATOM      9  N   UNL     1       0.204  -0.288  23.092  0.00  0.00    -0.229 NA
ATOM     10  C   UNL     1       0.114  -0.071  23.882  0.00  0.00    +0.139 A 
ATOM     32  N   UNL     1       0.836   0.226  24.148  0.00  0.00    -0.229 NA
ATOM     33  C   UNL     1       1.383  -0.226  22.156  0.00  0.00    +0.021 A 
ATOM     34  C   UNL     1       2.177  -0.008  22.096  0.00  0.00    +0.008 A 
BRANCH   5   3
ATOM      3  C   UNL     1       3.361   0.527  22.689  0.00  0.00    +0.341 C 
ATOM      4  O   UNL     1       3.565   1.253  22.353  0.00  0.00    -0.245 OA
BRANCH   3   2
ATOM      1  C   UNL     1       4.729   0.285  23.023  0.00  0.00    +0.256 C 
ATOM      2  O   UNL     1       3.950   0.020  22.964  0.00  0.00    -0.441 OA
ENDBRANCH   3   2
ENDBRANCH   5   3
ENDBRANCH  11  10
ENDBRANCH  12  11
BRANCH  18  19
ATOM     19  C   UNL     1      -2.738   2.353  24.420  0.00  0.00    +0.120 C 
BRANCH  19  20
ATOM     20  N   UNL     1      -3.093   2.617  23.724  0.00  0.00    -0.200 NA
ATOM     21  C   UNL     1      -3.844   2.959  23.747  0.00  0.00    +0.284 C 
ATOM     22  O   UNL     1      -4.198   3.223  23.051  0.00  0.00    -0.267 OA
BRANCH  21  23
ATOM     23  C   UNL     1      -4.239   3.038  24.467  0.00  0.00    +0.155 A 
ATOM     24  C   UNL     1      -4.731   2.432  24.735  0.00  0.00    +0.123 A 
ATOM     25  N   UNL     1      -5.127   2.510  25.455  0.00  0.00    -0.239 NA
ATOM     26  C   UNL     1      -5.029   3.194  25.907  0.00  0.00    +0.120 A 
ATOM     27  C   UNL     1      -4.538   3.799  25.639  0.00  0.00    +0.120 A 
ATOM     28  N   UNL     1      -4.142   3.721  24.919  0.00  0.00    -0.236 NA
ENDBRANCH  21  23
ENDBRANCH  19  20
ENDBRANCH  18  19
TORSDOF 8
ENDMDL
MODEL 7
REMARK VINA RESULT:      -7.7      3.049      4.276
REMARK  Name = 
REMARK  8 active torsions:
REMARK  status: ('A' for Active; 'I' for Inactive)
REMARK    1  A    between atoms: O_2  and  C_3
REMARK    2  A    between atoms: C_3  and  C_5
REMARK    3  A    between atoms: C_10  and  C_11
REMARK    4  A    between atoms: C_11  and  C_12
REMARK    5  A    between atoms: C_14  and  C_15
REMARK    6  A    between atoms: C_18  and  C_19
REMARK    7  A    between atoms: C_19  and  N_20
REMARK    8  A    between atoms: C_21  and  C_23
REMARK                            x       y       z     vdW  Elec       q    Type
REMARK                         _______ _______ _______ _____ _____    ______ ____
ROOT
ATOM     12  C   UNL     1      -2.163   2.421  23.435  0.00  0.00    +0.026 C 
ATOM     13  C   UNL     1      -1.662   2.527  24.083  0.00  0.00    +0.005 C 
ATOM     14  C   UNL     1      -1.023   2.018  24.197  0.00  0.00    +0.006 C 
ATOM     18  C   UNL     1      -0.883   1.404  23.665  0.00  0.00    +0.043 C 
ATOM     29  C   UNL     1      -1.384   1.298  23.018  0.00  0.00    -0.033 C 
ATOM     30  C   UNL     1      -2.023   1.806  22.902  0.00  0.00    -0.048 C 
ATOM     31  C   UNL     1      -2.523   1.700  22.255  0.00  0.00    +0.026 C 
ENDROOT
BRANCH  14  15
ATOM     15  C   UNL     1      -0.522   2.125  24.845  0.00  0.00    +0.000 C 
ATOM     16  C   UNL     1       0.139   2.614  24.780  0.00  0.00    +0.000 C 
ATOM     17  C   UNL     1      -0.683   1.742  25.558  0.00  0.00    +0.000 C 
ENDBRANCH  14  15
BRANCH  12  11
ATOM     11  C   UNL     1      -2.802   2.929  23.320  0.00  0.00    +0.070 C 
BRANCH  11  10
ATOM      5  C   UNL     1      -5.562   2.579  25.520  0.00  0.00    +0.077 A 
ATOM      6  C   UNL     1      -5.121   2.186  24.946  0.00  0.00    +0.027 A 
ATOM      7  C   UNL     1      -4.483   2.564  24.584  0.00  0.00    +0.100 A 
ATOM      8  C   UNL     1      -4.286   3.336  24.799  0.00  0.00    +0.100 A 
ATOM      9  N   UNL     1      -3.633   3.567  24.351  0.00  0.00    -0.229 NA
ATOM     10  C   UNL     1      -3.426   2.937  23.860  0.00  0.00    +0.139 A 
ATOM     32  N   UNL     1      -3.951   2.318  24.005  0.00  0.00    -0.229 NA
ATOM     33  C   UNL     1      -4.728   3.730  25.374  0.00  0.00    +0.021 A 
ATOM     34  C   UNL     1      -5.366   3.351  25.735  0.00  0.00    +0.008 A 
BRANCH   5   3
ATOM      3  C   UNL     1      -6.200   2.201  25.881  0.00  0.00    +0.341 C 
ATOM      4  O   UNL     1      -6.811   1.894  25.420  0.00  0.00    -0.245 OA
BRANCH   3   2
ATOM      1  C   UNL     1      -6.707   1.557  27.052  0.00  0.00    +0.256 C 
ATOM      2  O   UNL     1      -6.227   2.130  26.703  0.00  0.00    -0.441 OA
ENDBRANCH   3   2
ENDBRANCH   5   3
ENDBRANCH  11  10
ENDBRANCH  12  11
BRANCH  18  19
ATOM     19  C   UNL     1      -0.244   0.896  23.780  0.00  0.00    +0.120 C 
BRANCH  19  20
ATOM     20  N   UNL     1      -0.374   0.105  23.973  0.00  0.00    -0.200 NA
ATOM     21  C   UNL     1       0.159  -0.475  23.727  0.00  0.00    +0.284 C 
ATOM     22  O   UNL     1       0.028  -1.265  23.920  0.00  0.00    -0.267 OA
BRANCH  21  23
ATOM     23  C   UNL     1       0.823  -0.262  23.286  0.00  0.00    +0.155 A 
ATOM     24  C   UNL     1       0.804  -0.310  22.462  0.00  0.00    +0.123 A 
ATOM     25  N   UNL     1       1.468  -0.098  22.021  0.00  0.00    -0.239 NA
ATOM     26  C   UNL     1       2.152   0.162  22.404  0.00  0.00    +0.120 A 
ATOM     27  C   UNL     1       2.171   0.209  23.227  0.00  0.00    +0.120 A 
ATOM     28  N   UNL     1       1.506  -0.003  23.668  0.00  0.00    -0.236 NA
ENDBRANCH  21  23
ENDBRANCH  19  20
ENDBRANCH  18  19
TORSDOF 8
ENDMDL
MODEL 8
REMARK VINA RESULT:      -7.3      1.663      6.151
REMARK  Name = 
REMARK  8 active torsions:
REMARK  status: ('A' for Active; 'I' for Inactive)
REMARK    1  A    between atoms: O_2  and  C_3
REMARK    2  A    between atoms: C_3  and  C_5
REMARK    3  A    between atoms: C_10  and  C_11
REMARK    4  A    between atoms: C_11  and  C_12
REMARK    5  A    between atoms: C_14  and  C_15
REMARK    6  A    between atoms: C_18  and  C_19
REMARK    7  A    between atoms: C_19  and  N_20
REMARK    8  A    between atoms: C_21  and  C_23
REMARK                            x       y       z     vdW  Elec       q    Type
REMARK                         _______ _______ _______ _____ _____    ______ ____
ROOT
ATOM     12  C   UNL     1      -0.841   1.001  24.889  0.00  0.00    +0.026 C 
ATOM     13  C   UNL     1      -1.253   1.162  24.193  0.00  0.00    +0.005 C 
ATOM     14  C   UNL     1      -1.630   1.890  24.096  0.00  0.00    +0.006 C 
ATOM     18  C   UNL     1      -1.595   2.455  24.695  0.00  0.00    +0.043 C 
ATOM     29  C   UNL     1      -1.183   2.294  25.391  0.00  0.00    -0.033 C 
ATOM     30  C   UNL     1      -0.806   1.567  25.489  0.00  0.00    -0.048 C 
ATOM     31  C   UNL     1      -0.394   1.406  26.185  0.00  0.00    +0.026 C 
ENDROOT
BRANCH  14  15
ATOM     15  C   UNL     1      -2.042   2.051  23.400  0.00  0.00    +0.000 C 
ATOM     16  C   UNL     1      -1.669   2.452  22.783  0.00  0.00    +0.000 C 
ATOM     17  C   UNL     1      -2.828   1.810  23.320  0.00  0.00    +0.000 C 
ENDBRANCH  14  15
BRANCH  12  11
ATOM     11  C   UNL     1      -0.463   0.274  24.987  0.00  0.00    +0.070 C 
BRANCH  11  10
ATOM      5  C   UNL     1      -2.570  -2.554  24.607  0.00  0.00    +0.077 A 
ATOM      6  C   UNL     1      -2.547  -1.780  24.889  0.00  0.00    +0.027 A 
ATOM      7  C   UNL     1      -1.852  -1.339  24.830  0.00  0.00    +0.100 A 
ATOM      8  C   UNL     1      -1.180  -1.673  24.488  0.00  0.00    +0.100 A 
ATOM      9  N   UNL     1      -0.578  -1.110  24.505  0.00  0.00    -0.229 NA
ATOM     10  C   UNL     1      -0.878  -0.427  24.858  0.00  0.00    +0.139 A 
ATOM     32  N   UNL     1      -1.665  -0.570  25.058  0.00  0.00    -0.229 NA
ATOM     33  C   UNL     1      -1.203  -2.448  24.205  0.00  0.00    +0.021 A 
ATOM     34  C   UNL     1      -1.898  -2.888  24.264  0.00  0.00    +0.008 A 
BRANCH   5   3
ATOM      3  C   UNL     1      -3.265  -2.994  24.666  0.00  0.00    +0.341 C 
ATOM      4  O   UNL     1      -3.536  -3.239  25.405  0.00  0.00    -0.245 OA
BRANCH   3   2
ATOM      1  C   UNL     1      -4.508  -3.097  23.969  0.00  0.00    +0.256 C 
ATOM      2  O   UNL     1      -3.689  -3.190  23.986  0.00  0.00    -0.441 OA
ENDBRANCH   3   2
ENDBRANCH   5   3
ENDBRANCH  11  10
ENDBRANCH  12  11
BRANCH  18  19
ATOM     19  C   UNL     1      -1.973   3.183  24.598  0.00  0.00    +0.120 C 
BRANCH  19  20
ATOM     20  N   UNL     1      -1.610   3.874  24.862  0.00  0.00    -0.200 NA
ATOM     21  C   UNL     1      -2.062   4.474  25.203  0.00  0.00    +0.284 C 
ATOM     22  O   UNL     1      -1.700   5.166  25.467  0.00  0.00    -0.267 OA
BRANCH  21  23
ATOM     23  C   UNL     1      -2.879   4.382  25.279  0.00  0.00    +0.155 A 
ATOM     24  C   UNL     1      -3.197   4.090  25.983  0.00  0.00    +0.123 A 
ATOM     25  N   UNL     1      -4.013   3.997  26.059  0.00  0.00    -0.239 NA
ATOM     26  C   UNL     1      -4.511   4.197  25.432  0.00  0.00    +0.120 A 
ATOM     27  C   UNL     1      -4.193   4.489  24.730  0.00  0.00    +0.120 A 
ATOM     28  N   UNL     1      -3.377   4.581  24.653  0.00  0.00    -0.236 NA
ENDBRANCH  21  23
ENDBRANCH  19  20
ENDBRANCH  18  19
TORSDOF 8
ENDMDL
