MODEL 1
REMARK VINA RESULT:     -10.4      0.000      0.000
REMARK  Name = 
REMARK  4 active torsions:
REMARK  status: ('A' for Active; 'I' for Inactive)
REMARK    1  A    between atoms: S_2  and  C_5
REMARK    2  A    between atoms: C_8  and  O_9
REMARK    3  A    between atoms: O_9  and  C_10
REMARK    4  A    between atoms: C_17  and  C_19
REMARK                            x       y       z     vdW  Elec       q    Type
REMARK                         _______ _______ _______ _____ _____    ______ ____
ROOT
ATOM     10  C   UNL     1      -3.702   2.026  24.658  0.00  0.00    +0.215 C 
ATOM     11  C   UNL     1      -4.515   1.887  24.682  0.00  0.00    +0.187 C 
ATOM     12  O   UNL     1      -5.099   2.322  25.069  0.00  0.00    -0.348 OA
ATOM     13  C   UNL     1      -5.016   3.002  25.527  0.00  0.00    +0.164 C 
ATOM     14  C   UNL     1      -4.327   3.416  25.712  0.00  0.00    +0.126 C 
ATOM     15  N   UNL     1      -3.551   3.252  25.484  0.00  0.00    -0.273 N 
ATOM     16  C   UNL     1      -3.274   2.634  25.015  0.00  0.00    +0.139 C 
ATOM     17  C   UNL     1      -2.978   3.776  25.762  0.00  0.00    +0.225 C 
ATOM     18  O   UNL     1      -3.198   4.414  26.236  0.00  0.00    -0.275 OA
ENDROOT
BRANCH  17  19
ATOM     19  C   UNL     1      -2.185   3.662  25.565  0.00  0.00    +0.077 C 
ATOM     20  C   UNL     1      -1.554   3.773  25.045  0.00  0.00    +0.010 C 
ATOM     21  C   UNL     1      -1.441   3.354  25.746  0.00  0.00    +0.010 C 
ENDBRANCH  17  19
BRANCH  10   9
ATOM      9  O   UNL     1      -3.260   1.485  24.218  0.00  0.00    -0.475 OA
BRANCH   9   8
ATOM      5  C   UNL     1      -3.402  -0.933  24.726  0.00  0.00    +0.106 A 
ATOM      6  C   UNL     1      -3.877  -0.607  24.135  0.00  0.00    +0.021 A 
ATOM      7  C   UNL     1      -3.830   0.200  23.966  0.00  0.00    +0.038 A 
ATOM      8  C   UNL     1      -3.307   0.679  24.387  0.00  0.00    +0.139 A 
ATOM     22  C   UNL     1      -2.832   0.354  24.977  0.00  0.00    +0.038 A 
ATOM     23  C   UNL     1      -2.879  -0.452  25.147  0.00  0.00    +0.021 A 
BRANCH   5   2
ATOM      1  C   UNL     1      -3.496  -2.544  25.066  0.00  0.00    +0.182 C 
ATOM      2  S   UNL     1      -3.449  -1.739  24.895  0.00  0.00    +0.010 S 
ATOM      3  O   UNL     1      -3.322  -1.914  24.099  0.00  0.00    -0.169 OA
ATOM      4  O   UNL     1      -3.576  -1.563  25.692  0.00  0.00    -0.169 OA
ENDBRANCH   5   2
ENDBRANCH   9   8
ENDBRANCH  10   9
TORSDOF 4
ENDMDL
MODEL 2
REMARK VINA RESULT:     -10.4      2.129      4.503
REMARK  Name = 
REMARK  4 active torsions:
REMARK  status: ('A' for Active; 'I' for Inactive)
REMARK    1  A    between atoms: S_2  and  C_5
REMARK    2  A    between atoms: C_8  and  O_9
REMARK    3  A    between atoms: O_9  and  C_10
REMARK    4  A    between atoms: C_17  and  C_19
REMARK                            x       y       z     vdW  Elec       q    Type
REMARK                         _______ _______ _______ _____ _____    ______ ____
ROOT
ATOM     10  C   UNL     1      -2.782   0.113  24.179  0.00  0.00    +0.215 C 
ATOM     11  C   UNL     1      -2.235   0.731  24.198  0.00  0.00    +0.187 C 
ATOM     12  O   UNL     1      -1.443   0.708  24.428  0.00  0.00    -0.348 OA
ATOM     13  C   UNL     1      -1.003   0.065  24.696  0.00  0.00    +0.164 C 
ATOM     14  C   UNL     1      -1.246  -0.717  24.800  0.00  0.00    +0.126 C 
ATOM     15  N   UNL     1      -1.989  -1.047  24.661  0.00  0.00    -0.273 N 
ATOM     16  C   UNL     1      -2.672  -0.678  24.385  0.00  0.00    +0.139 C 
ATOM     17  C   UNL     1      -2.057  -1.854  24.821  0.00  0.00    +0.225 C 
ATOM     18  O   UNL     1      -1.406  -2.276  25.099  0.00  0.00    -0.275 OA
ENDROOT
BRANCH  17  19
ATOM     19  C   UNL     1      -2.777  -2.239  24.701  0.00  0.00    +0.077 C 
ATOM     20  C   UNL     1      -3.314  -2.610  24.196  0.00  0.00    +0.010 C 
ATOM     21  C   UNL     1      -3.488  -2.534  24.999  0.00  0.00    +0.010 C 
ENDBRANCH  17  19
BRANCH  10   9
ATOM      9  O   UNL     1      -3.540   0.314  23.919  0.00  0.00    -0.475 OA
BRANCH   9   8
ATOM      5  C   UNL     1      -4.763   2.177  24.995  0.00  0.00    +0.106 A 
ATOM      6  C   UNL     1      -4.285   2.323  24.339  0.00  0.00    +0.021 A 
ATOM      7  C   UNL     1      -3.877   1.701  23.980  0.00  0.00    +0.038 A 
ATOM      8  C   UNL     1      -3.947   0.935  24.277  0.00  0.00    +0.139 A 
ATOM     22  C   UNL     1      -4.426   0.789  24.934  0.00  0.00    +0.038 A 
ATOM     23  C   UNL     1      -4.833   1.410  25.293  0.00  0.00    +0.021 A 
BRANCH   5   2
ATOM      1  C   UNL     1      -5.580   3.417  25.713  0.00  0.00    +0.182 C 
ATOM      2  S   UNL     1      -5.171   2.797  25.354  0.00  0.00    +0.010 S 
ATOM      3  O   UNL     1      -4.460   3.102  25.639  0.00  0.00    -0.169 OA
ATOM      4  O   UNL     1      -5.884   2.492  25.070  0.00  0.00    -0.169 OA
ENDBRANCH   5   2
ENDBRANCH   9   8
ENDBRANCH  10   9
TORSDOF 4
ENDMDL
MODEL 3
REMARK VINA RESULT:     -10.1      0.941      1.866
REMARK  Name = 
REMARK  4 active torsions:
REMARK  status: ('A' for Active; 'I' for Inactive)
REMARK    1  A    between atoms: S_2  and  C_5
REMARK    2  A    between atoms: C_8  and  O_9
REMARK    3  A    between atoms: O_9  and  C_10
REMARK    4  A    between atoms: C_17  and  C_19
REMARK                            x       y       z     vdW  Elec       q    Type
REMARK                         _______ _______ _______ _____ _____    ______ ____
ROOT
ATOM     10  C   UNL     1      -3.641   1.534  24.321  0.00  0.00    +0.215 C 
ATOM     11  C   UNL     1      -2.881   1.393  24.034  0.00  0.00    +0.187 C 
ATOM     12  O   UNL     1      -2.206   1.860  24.117  0.00  0.00    -0.348 OA
ATOM     13  C   UNL     1      -2.125   2.583  24.506  0.00  0.00    +0.164 C 
ATOM     14  C   UNL     1      -2.699   3.017  24.910  0.00  0.00    +0.126 C 
ATOM     15  N   UNL     1      -3.496   2.835  25.023  0.00  0.00    -0.273 N 
ATOM     16  C   UNL     1      -3.915   2.176  24.761  0.00  0.00    +0.139 C 
ATOM     17  C   UNL     1      -3.930   3.388  25.455  0.00  0.00    +0.225 C 
ATOM     18  O   UNL     1      -3.563   4.068  25.743  0.00  0.00    -0.275 OA
ENDROOT
BRANCH  17  19
ATOM     19  C   UNL     1      -4.732   3.260  25.600  0.00  0.00    +0.077 C 
ATOM     20  C   UNL     1      -5.521   3.333  25.369  0.00  0.00    +0.010 C 
ATOM     21  C   UNL     1      -5.333   2.963  26.082  0.00  0.00    +0.010 C 
ENDBRANCH  17  19
BRANCH  10   9
ATOM      9  O   UNL     1      -4.203   0.955  24.144  0.00  0.00    -0.475 OA
BRANCH   9   8
ATOM      5  C   UNL     1      -3.703  -1.429  24.581  0.00  0.00    +0.106 A 
ATOM      6  C   UNL     1      -3.922  -0.934  25.203  0.00  0.00    +0.021 A 
ATOM      7  C   UNL     1      -4.089  -0.138  25.057  0.00  0.00    +0.038 A 
ATOM      8  C   UNL     1      -4.036   0.161  24.290  0.00  0.00    +0.139 A 
ATOM     22  C   UNL     1      -3.817  -0.335  23.668  0.00  0.00    +0.038 A 
ATOM     23  C   UNL     1      -3.650  -1.130  23.813  0.00  0.00    +0.021 A 
BRANCH   5   2
ATOM      1  C   UNL     1      -3.368  -3.018  24.871  0.00  0.00    +0.182 C 
ATOM      2  S   UNL     1      -3.536  -2.224  24.725  0.00  0.00    +0.010 S 
ATOM      3  O   UNL     1      -4.080  -2.444  24.146  0.00  0.00    -0.169 OA
ATOM      4  O   UNL     1      -2.991  -2.003  25.305  0.00  0.00    -0.169 OA
ENDBRANCH   5   2
ENDBRANCH   9   8
ENDBRANCH  10   9
TORSDOF 4
ENDMDL
MODEL 4
REMARK VINA RESULT:      -9.5      1.394      2.437
REMARK  Name = 
REMARK  4 active torsions:
REMARK  status: ('A' for Active; 'I' for Inactive)
REMARK    1  A    between atoms: S_2  and  C_5
REMARK    2  A    between atoms: C_8  and  O_9
REMARK    3  A    between atoms: O_9  and  C_10
REMARK    4  A    between atoms: C_17  and  C_19
REMARK                            x       y       z     vdW  Elec       q    Type
REMARK                         _______ _______ _______ _____ _____    ______ ____
ROOT
ATOM     10  C   UNL     1      -3.401   2.125  24.604  0.00  0.00    +0.215 C 
ATOM     11  C   UNL     1      -2.701   2.562  24.638  0.00  0.00    +0.187 C 
ATOM     12  O   UNL     1      -2.567   3.289  25.006  0.00  0.00    -0.348 OA
ATOM     13  C   UNL     1      -3.098   3.757  25.429  0.00  0.00    +0.164 C 
ATOM     14  C   UNL     1      -3.894   3.615  25.589  0.00  0.00    +0.126 C 
ATOM     15  N   UNL     1      -4.357   2.969  25.366  0.00  0.00    -0.273 N 
ATOM     16  C   UNL     1      -4.137   2.307  24.928  0.00  0.00    +0.139 C 
ATOM     17  C   UNL     1      -5.143   2.990  25.615  0.00  0.00    +0.225 C 
ATOM     18  O   UNL     1      -5.420   3.628  26.057  0.00  0.00    -0.275 OA
ENDROOT
BRANCH  17  19
ATOM     19  C   UNL     1      -5.653   2.371  25.421  0.00  0.00    +0.077 C 
ATOM     20  C   UNL     1      -6.147   1.995  24.877  0.00  0.00    +0.010 C 
ATOM     21  C   UNL     1      -6.043   1.673  25.630  0.00  0.00    +0.010 C 
ENDBRANCH  17  19
BRANCH  10   9
ATOM      9  O   UNL     1      -3.356   1.412  24.190  0.00  0.00    -0.475 OA
BRANCH   9   8
ATOM      5  C   UNL     1      -1.712  -0.310  24.864  0.00  0.00    +0.106 A 
ATOM      6  C   UNL     1      -1.503   0.265  24.311  0.00  0.00    +0.021 A 
ATOM      7  C   UNL     1      -2.052   0.840  24.086  0.00  0.00    +0.038 A 
ATOM      8  C   UNL     1      -2.808   0.839  24.414  0.00  0.00    +0.139 A 
ATOM     22  C   UNL     1      -3.017   0.263  24.967  0.00  0.00    +0.038 A 
ATOM     23  C   UNL     1      -2.469  -0.311  25.192  0.00  0.00    +0.021 A 
BRANCH   5   2
ATOM      1  C   UNL     1      -0.617  -1.459  25.313  0.00  0.00    +0.182 C 
ATOM      2  S   UNL     1      -1.164  -0.884  25.089  0.00  0.00    +0.010 S 
ATOM      3  O   UNL     1      -0.980  -0.446  25.763  0.00  0.00    -0.169 OA
ATOM      4  O   UNL     1      -1.348  -1.323  24.414  0.00  0.00    -0.169 OA
ENDBRANCH   5   2
ENDBRANCH   9   8
ENDBRANCH  10   9
TORSDOF 4
ENDMDL
