MODEL 1
REMARK VINA RESULT:     -10.1      0.000      0.000
REMARK  Name = 
REMARK  5 active torsions:
REMARK  status: ('A' for Active; 'I' for Inactive)
REMARK    1  A    between atoms: N_2  and  C_4
REMARK    2  A    between atoms: C_7  and  C_10
REMARK    3  A    between atoms: C_13  and  C_15
REMARK    4  A    between atoms: N_19  and  C_20
REMARK    5  A    between atoms: C_20  and  C_21
REMARK                            x       y       z     vdW  Elec       q    Type
REMARK                         _______ _______ _______ _____ _____    ______ ____
ROOT
ATOM     10  C   UNL     1      -3.632   0.707  24.197  0.00  0.00    +0.205 A 
ATOM     11  N   UNL     1      -3.574   1.153  23.505  0.00  0.00    -0.056 NA
ATOM     12  O   UNL     1      -3.805   1.926  23.680  0.00  0.00    -0.336 OA
ATOM     13  C   UNL     1      -4.005   1.958  24.480  0.00  0.00    +0.251 A 
ATOM     14  N   UNL     1      -3.899   1.204  24.800  0.00  0.00    -0.190 NA
ENDROOT
BRANCH  10   7
ATOM      4  C   UNL     1      -3.101  -1.699  24.427  0.00  0.00    +0.132 A 
ATOM      5  C   UNL     1      -3.859  -1.464  24.202  0.00  0.00    +0.034 A 
ATOM      6  C   UNL     1      -4.036  -0.661  24.125  0.00  0.00    +0.008 A 
ATOM      7  C   UNL     1      -3.455  -0.095  24.274  0.00  0.00    +0.058 A 
ATOM      8  C   UNL     1      -2.698  -0.330  24.499  0.00  0.00    +0.103 A 
ATOM      9  N   UNL     1      -2.520  -1.133  24.576  0.00  0.00    -0.229 NA
BRANCH   4   2
ATOM      1  C   UNL     1      -2.139  -2.754  24.486  0.00  0.00    +0.114 C 
ATOM      2  N   UNL     1      -2.924  -2.502  24.503  0.00  0.00    -0.290 N 
ATOM      3  C   UNL     1      -3.532  -3.051  24.597  0.00  0.00    +0.114 C 
ENDBRANCH   4   2
ENDBRANCH  10   7
BRANCH  13  15
ATOM     15  C   UNL     1      -4.267   2.626  24.888  0.00  0.00    +0.138 C 
ATOM     16  C   UNL     1      -5.044   2.784  25.112  0.00  0.00    +0.027 C 
ATOM     17  C   UNL     1      -5.053   3.509  25.506  0.00  0.00    +0.019 C 
ATOM     18  C   UNL     1      -4.281   3.799  25.526  0.00  0.00    +0.073 C 
ATOM     19  N   UNL     1      -3.794   3.252  25.144  0.00  0.00    -0.266 NA
BRANCH  19  20
ATOM     20  C   UNL     1      -2.979   3.321  25.037  0.00  0.00    +0.072 C 
BRANCH  20  21
ATOM     21  C   UNL     1      -2.564   3.928  25.414  0.00  0.00    +0.016 C 
ATOM     22  C   UNL     1      -2.261   4.264  26.103  0.00  0.00    +0.001 C 
ATOM     23  C   UNL     1      -2.148   4.639  25.377  0.00  0.00    +0.001 C 
ENDBRANCH  20  21
ENDBRANCH  19  20
ENDBRANCH  13  15
TORSDOF 5
ENDMDL
MODEL 2
REMARK VINA RESULT:      -9.2      0.712      1.587
REMARK  Name = 
REMARK  5 active torsions:
REMARK  status: ('A' for Active; 'I' for Inactive)
REMARK    1  A    between atoms: N_2  and  C_4
REMARK    2  A    between atoms: C_7  and  C_10
REMARK    3  A    between atoms: C_13  and  C_15
REMARK    4  A    between atoms: N_19  and  C_20
REMARK    5  A    between atoms: C_20  and  C_21
REMARK                            x       y       z     vdW  Elec       q    Type
REMARK                         _______ _______ _______ _____ _____    ______ ____
ROOT
ATOM     10  C   UNL     1      -2.953   0.787  24.254  0.00  0.00    +0.205 A 
ATOM     11  N   UNL     1      -2.691   1.191  23.584  0.00  0.00    -0.056 NA
ATOM     12  O   UNL     1      -2.596   1.985  23.787  0.00  0.00    -0.336 OA
ATOM     13  C   UNL     1      -2.799   2.072  24.583  0.00  0.00    +0.251 A 
ATOM     14  N   UNL     1      -3.020   1.330  24.871  0.00  0.00    -0.190 NA
ENDROOT
BRANCH  10   7
ATOM      4  C   UNL     1      -3.453  -1.634  24.390  0.00  0.00    +0.132 A 
ATOM      5  C   UNL     1      -4.038  -1.105  24.151  0.00  0.00    +0.034 A 
ATOM      6  C   UNL     1      -3.872  -0.297  24.106  0.00  0.00    +0.008 A 
ATOM      7  C   UNL     1      -3.120  -0.020  24.299  0.00  0.00    +0.058 A 
ATOM      8  C   UNL     1      -2.534  -0.549  24.538  0.00  0.00    +0.103 A 
ATOM      9  N   UNL     1      -2.700  -1.357  24.584  0.00  0.00    -0.229 NA
BRANCH   4   2
ATOM      1  C   UNL     1      -3.343  -2.883  25.074  0.00  0.00    +0.114 C 
ATOM      2  N   UNL     1      -3.619  -2.441  24.435  0.00  0.00    -0.290 N 
ATOM      3  C   UNL     1      -4.061  -2.804  23.842  0.00  0.00    +0.114 C 
ENDBRANCH   4   2
ENDBRANCH  10   7
BRANCH  13  15
ATOM     15  C   UNL     1      -2.783   2.775  25.013  0.00  0.00    +0.138 C 
ATOM     16  C   UNL     1      -2.126   3.097  25.394  0.00  0.00    +0.027 C 
ATOM     17  C   UNL     1      -2.360   3.801  25.754  0.00  0.00    +0.019 C 
ATOM     18  C   UNL     1      -3.161   3.915  25.596  0.00  0.00    +0.073 C 
ATOM     19  N   UNL     1      -3.423   3.281  25.138  0.00  0.00    -0.266 NA
BRANCH  19  20
ATOM     20  C   UNL     1      -4.191   3.172  24.854  0.00  0.00    +0.072 C 
BRANCH  20  21
ATOM     21  C   UNL     1      -4.831   3.501  25.260  0.00  0.00    +0.016 C 
ATOM     22  C   UNL     1      -5.300   4.153  25.445  0.00  0.00    +0.001 C 
ATOM     23  C   UNL     1      -5.468   3.417  25.777  0.00  0.00    +0.001 C 
ENDBRANCH  20  21
ENDBRANCH  19  20
ENDBRANCH  13  15
TORSDOF 5
ENDMDL
MODEL 3
REMARK VINA RESULT:      -9.2      1.698      2.380
REMARK  Name = 
REMARK  5 active torsions:
REMARK  status: ('A' for Active; 'I' for Inactive)
REMARK    1  A    between atoms: N_2  and  C_4
REMARK    2  A    between atoms: C_7  and  C_10
REMARK    3  A    between atoms: C_13  and  C_15
REMARK    4  A    between atoms: N_19  and  C_20
REMARK    5  A    between atoms: C_20  and  C_21
REMARK                            x       y       z     vdW  Elec       q    Type
REMARK                         _______ _______ _______ _____ _____    ______ ____
ROOT
ATOM     10  C   UNL     1      -1.826   0.372  24.473  0.00  0.00    +0.205 A 
ATOM     11  N   UNL     1      -1.485   0.740  23.818  0.00  0.00    -0.056 NA
ATOM     12  O   UNL     1      -1.064   1.397  24.086  0.00  0.00    -0.336 OA
ATOM     13  C   UNL     1      -1.145   1.436  24.907  0.00  0.00    +0.251 A 
ATOM     14  N   UNL     1      -1.617   0.802  25.145  0.00  0.00    -0.190 NA
ENDROOT
BRANCH  10   7
ATOM      4  C   UNL     1      -3.234  -1.663  24.428  0.00  0.00    +0.132 A 
ATOM      5  C   UNL     1      -3.579  -0.921  24.328  0.00  0.00    +0.034 A 
ATOM      6  C   UNL     1      -3.109  -0.242  24.342  0.00  0.00    +0.008 A 
ATOM      7  C   UNL     1      -2.295  -0.307  24.458  0.00  0.00    +0.058 A 
ATOM      8  C   UNL     1      -1.950  -1.049  24.559  0.00  0.00    +0.103 A 
ATOM      9  N   UNL     1      -2.420  -1.728  24.544  0.00  0.00    -0.229 NA
BRANCH   4   2
ATOM      1  C   UNL     1      -4.322  -2.403  23.873  0.00  0.00    +0.114 C 
ATOM      2  N   UNL     1      -3.703  -2.342  24.413  0.00  0.00    -0.290 N 
ATOM      3  C   UNL     1      -3.552  -2.959  24.940  0.00  0.00    +0.114 C 
ENDBRANCH   4   2
ENDBRANCH  10   7
BRANCH  13  15
ATOM     15  C   UNL     1      -0.814   2.007  25.400  0.00  0.00    +0.138 C 
ATOM     16  C   UNL     1      -0.132   1.918  25.857  0.00  0.00    +0.027 C 
ATOM     17  C   UNL     1      -0.004   2.625  26.263  0.00  0.00    +0.019 C 
ATOM     18  C   UNL     1      -0.605   3.151  26.057  0.00  0.00    +0.073 C 
ATOM     19  N   UNL     1      -1.106   2.769  25.524  0.00  0.00    -0.266 NA
BRANCH  19  20
ATOM     20  C   UNL     1      -1.781   3.093  25.176  0.00  0.00    +0.072 C 
BRANCH  20  21
ATOM     21  C   UNL     1      -2.042   3.843  25.404  0.00  0.00    +0.016 C 
ATOM     22  C   UNL     1      -1.995   4.663  25.346  0.00  0.00    +0.001 C 
ATOM     23  C   UNL     1      -2.543   4.317  25.857  0.00  0.00    +0.001 C 
ENDBRANCH  20  21
ENDBRANCH  19  20
ENDBRANCH  13  15
TORSDOF 5
ENDMDL
MODEL 4
REMARK VINA RESULT:      -9.2      1.685      5.339
REMARK  Name = 
REMARK  5 active torsions:
REMARK  status: ('A' for Active; 'I' for Inactive)
REMARK    1  A    between atoms: N_2  and  C_4
REMARK    2  A    between atoms: C_7  and  C_10
REMARK    3  A    between atoms: C_13  and  C_15
REMARK    4  A    between atoms: N_19  and  C_20
REMARK    5  A    between atoms: C_20  and  C_21
REMARK                            x       y       z     vdW  Elec       q    Type
REMARK                         _______ _______ _______ _____ _____    ______ ____
ROOT
ATOM     10  C   UNL     1      -1.469   1.304  24.533  0.00  0.00    +0.205 A 
ATOM     11  N   UNL     1      -1.273   1.090  23.761  0.00  0.00    -0.056 NA
ATOM     12  O   UNL     1      -1.140   0.276  23.749  0.00  0.00    -0.336 OA
ATOM     13  C   UNL     1      -1.253  -0.013  24.514  0.00  0.00    +0.251 A 
ATOM     14  N   UNL     1      -1.457   0.624  24.999  0.00  0.00    -0.190 NA
ENDROOT
BRANCH  10   7
ATOM      4  C   UNL     1      -2.001   3.591  25.318  0.00  0.00    +0.132 A 
ATOM      5  C   UNL     1      -1.304   3.223  25.561  0.00  0.00    +0.034 A 
ATOM      6  C   UNL     1      -1.127   2.461  25.299  0.00  0.00    +0.008 A 
ATOM      7  C   UNL     1      -1.647   2.067  24.795  0.00  0.00    +0.058 A 
ATOM      8  C   UNL     1      -2.344   2.434  24.552  0.00  0.00    +0.103 A 
ATOM      9  N   UNL     1      -2.521   3.197  24.813  0.00  0.00    -0.229 NA
BRANCH   4   2
ATOM      1  C   UNL     1      -2.790   4.472  26.120  0.00  0.00    +0.114 C 
ATOM      2  N   UNL     1      -2.179   4.353  25.579  0.00  0.00    -0.290 N 
ATOM      3  C   UNL     1      -1.745   4.996  25.300  0.00  0.00    +0.114 C 
ENDBRANCH   4   2
ENDBRANCH  10   7
BRANCH  13  15
ATOM     15  C   UNL     1      -1.176  -0.799  24.752  0.00  0.00    +0.138 C 
ATOM     16  C   UNL     1      -0.484  -1.159  25.021  0.00  0.00    +0.027 C 
ATOM     17  C   UNL     1      -0.659  -1.946  25.198  0.00  0.00    +0.019 C 
ATOM     18  C   UNL     1      -1.458  -2.073  25.038  0.00  0.00    +0.073 C 
ATOM     19  N   UNL     1      -1.778  -1.363  24.762  0.00  0.00    -0.266 NA
BRANCH  19  20
ATOM     20  C   UNL     1      -2.562  -1.241  24.536  0.00  0.00    +0.072 C 
BRANCH  20  21
ATOM     21  C   UNL     1      -3.112  -1.853  24.607  0.00  0.00    +0.016 C 
ATOM     22  C   UNL     1      -3.593  -2.331  25.077  0.00  0.00    +0.001 C 
ATOM     23  C   UNL     1      -3.582  -2.435  24.259  0.00  0.00    +0.001 C 
ENDBRANCH  20  21
ENDBRANCH  19  20
ENDBRANCH  13  15
TORSDOF 5
ENDMDL
MODEL 5
REMARK VINA RESULT:      -9.0      1.270      4.962
REMARK  Name = 
REMARK  5 active torsions:
REMARK  status: ('A' for Active; 'I' for Inactive)
REMARK    1  A    between atoms: N_2  and  C_4
REMARK    2  A    between atoms: C_7  and  C_10
REMARK    3  A    between atoms: C_13  and  C_15
REMARK    4  A    between atoms: N_19  and  C_20
REMARK    5  A    between atoms: C_20  and  C_21
REMARK                            x       y       z     vdW  Elec       q    Type
REMARK                         _______ _______ _______ _____ _____    ______ ____
ROOT
ATOM     10  C   UNL     1      -2.821   1.203  24.501  0.00  0.00    +0.205 A 
ATOM     11  N   UNL     1      -2.381   1.209  23.803  0.00  0.00    -0.056 NA
ATOM     12  O   UNL     1      -1.891   0.544  23.804  0.00  0.00    -0.336 OA
ATOM     13  C   UNL     1      -2.029   0.127  24.503  0.00  0.00    +0.251 A 
ATOM     14  N   UNL     1      -2.604   0.535  24.934  0.00  0.00    -0.190 NA
ENDROOT
BRANCH  10   7
ATOM      4  C   UNL     1      -4.498   2.892  25.178  0.00  0.00    +0.132 A 
ATOM      5  C   UNL     1      -4.743   2.180  24.841  0.00  0.00    +0.034 A 
ATOM      6  C   UNL     1      -4.183   1.617  24.615  0.00  0.00    +0.008 A 
ATOM      7  C   UNL     1      -3.380   1.766  24.727  0.00  0.00    +0.058 A 
ATOM      8  C   UNL     1      -3.135   2.478  25.064  0.00  0.00    +0.103 A 
ATOM      9  N   UNL     1      -3.695   3.041  25.290  0.00  0.00    -0.229 NA
BRANCH   4   2
ATOM      1  C   UNL     1      -4.897   4.258  25.306  0.00  0.00    +0.114 C 
ATOM      2  N   UNL     1      -5.058   3.455  25.404  0.00  0.00    -0.290 N 
ATOM      3  C   UNL     1      -5.777   3.215  25.728  0.00  0.00    +0.114 C 
ENDBRANCH   4   2
ENDBRANCH  10   7
BRANCH  13  15
ATOM     15  C   UNL     1      -1.658  -0.573  24.731  0.00  0.00    +0.138 C 
ATOM     16  C   UNL     1      -0.905  -0.638  25.062  0.00  0.00    +0.027 C 
ATOM     17  C   UNL     1      -0.757  -1.437  25.203  0.00  0.00    +0.019 C 
ATOM     18  C   UNL     1      -1.418  -1.867  24.959  0.00  0.00    +0.073 C 
ATOM     19  N   UNL     1      -1.975  -1.332  24.667  0.00  0.00    -0.266 NA
BRANCH  19  20
ATOM     20  C   UNL     1      -2.718  -1.525  24.364  0.00  0.00    +0.072 C 
BRANCH  20  21
ATOM     21  C   UNL     1      -3.060  -2.255  24.543  0.00  0.00    +0.016 C 
ATOM     22  C   UNL     1      -3.443  -2.753  25.077  0.00  0.00    +0.001 C 
ATOM     23  C   UNL     1      -3.266  -3.021  24.317  0.00  0.00    +0.001 C 
ENDBRANCH  20  21
ENDBRANCH  19  20
ENDBRANCH  13  15
TORSDOF 5
ENDMDL
