REMARK  Name = 
REMARK  4 active torsions:
REMARK  status: ('A' for Active; 'I' for Inactive)
REMARK    1  A    between atoms: C_4  and  C_18
REMARK    2  A    between atoms: C_6  and  N_7
REMARK    3  A    between atoms: C_8  and  C_10
REMARK    4  A    between atoms: N_20  and  C_21
REMARK                            x       y       z     vdW  Elec       q    Type
REMARK                         _______ _______ _______ _____ _____    ______ ____
ROOT
ATOM      1  O   UNL     1       1.429  -1.650   0.000  0.00  0.00    -0.220 OA
ATOM      2  C   UNL     1       1.429  -2.475   0.000  0.00  0.00    +0.189 C 
ATOM      3  C   UNL     1       2.143  -2.888   0.000  0.00  0.00    +0.066 C 
ATOM      4  C   UNL     1       2.143  -3.712   0.000  0.00  0.00    +0.033 C 
ATOM      5  C   UNL     1       1.429  -4.125   0.000  0.00  0.00    -0.002 C 
ATOM      6  C   UNL     1       0.715  -3.712   0.000  0.00  0.00    +0.150 C 
ATOM     16  C   UNL     1       0.715  -2.888   0.000  0.00  0.00    +0.206 C 
ATOM     17  O   UNL     1       0.000  -2.475   0.000  0.00  0.00    -0.218 OA
ENDROOT
BRANCH   6   7
ATOM      7  N   UNL     1       0.000  -4.125   0.000  0.00  0.00    -0.196 NA
ATOM      8  C   UNL     1      -0.715  -3.712   0.000  0.00  0.00    +0.267 C 
ATOM      9  O   UNL     1      -0.715  -2.888   0.000  0.00  0.00    -0.268 OA
BRANCH   8  10
ATOM     10  C   UNL     1      -1.429  -4.125   0.000  0.00  0.00    +0.074 A 
ATOM     11  C   UNL     1      -1.429  -4.950   0.000  0.00  0.00    +0.103 A 
ATOM     12  N   UNL     1      -2.143  -5.362   0.000  0.00  0.00    -0.242 NA
ATOM     13  C   UNL     1      -2.858  -4.950   0.000  0.00  0.00    +0.099 A 
ATOM     14  C   UNL     1      -2.858  -4.125   0.000  0.00  0.00    +0.021 A 
ATOM     15  C   UNL     1      -2.143  -3.712   0.000  0.00  0.00    +0.008 A 
ENDBRANCH   8  10
ENDBRANCH   6   7
BRANCH   4  18
ATOM     18  C   UNL     1       2.858  -4.125   0.000  0.00  0.00    +0.261 C 
ATOM     19  O   UNL     1       2.858  -4.950   0.000  0.00  0.00    -0.269 OA
ATOM     20  N   UNL     1       3.572  -3.712   0.000  0.00  0.00    -0.194 NA
BRANCH  20  21
ATOM     21  C   UNL     1       4.287  -4.125   0.000  0.00  0.00    +0.173 C 
ATOM     22  C   UNL     1       5.001  -3.712   0.000  0.00  0.00    +0.033 C 
ATOM     23  C   UNL     1       5.716  -4.125   0.000  0.00  0.00    +0.026 C 
ATOM     24  C   UNL     1       5.716  -4.950   0.000  0.00  0.00    +0.115 C 
ATOM     25  N   UNL     1       5.001  -5.362   0.000  0.00  0.00    -0.204 NA
ATOM     26  C   UNL     1       4.287  -4.950   0.000  0.00  0.00    +0.261 C 
ATOM     27  O   UNL     1       3.572  -5.362   0.000  0.00  0.00    -0.271 OA
ENDBRANCH  20  21
ENDBRANCH   4  18
TORSDOF 4
