REMARK  Name = 
REMARK  5 active torsions:
REMARK  status: ('A' for Active; 'I' for Inactive)
REMARK    1  A    between atoms: C_4  and  C_6
REMARK    2  A    between atoms: C_6  and  O_7
REMARK    3  A    between atoms: O_7  and  C_8
REMARK    4  A    between atoms: N_13  and  C_14
REMARK    5  A    between atoms: C_14  and  C_15
REMARK                            x       y       z     vdW  Elec       q    Type
REMARK                         _______ _______ _______ _____ _____    ______ ____
ROOT
ATOM      8  C   UNL     1       1.633  -1.954   0.000  0.00  0.00    +0.161 C 
ATOM      9  C   UNL     1       1.571  -1.131   0.000  0.00  0.00    +0.173 C 
ATOM     10  O   UNL     1       2.176  -0.570   0.000  0.00  0.00    -0.350 OA
ATOM     11  C   UNL     1       2.992  -0.693   0.000  0.00  0.00    +0.160 C 
ATOM     12  C   UNL     1       3.404  -1.407   0.000  0.00  0.00    +0.105 C 
ATOM     13  N   UNL     1       3.103  -2.175   0.000  0.00  0.00    -0.263 NA
ATOM     21  C   UNL     1       2.315  -2.418   0.000  0.00  0.00    +0.105 C 
ENDROOT
BRANCH   8   7
ATOM      7  O   UNL     1       0.918  -2.366   0.000  0.00  0.00    -0.343 OA
BRANCH   7   6
ATOM      6  C   UNL     1       0.204  -1.954   0.000  0.00  0.00    +0.227 C 
BRANCH   6   4
ATOM      1  C   UNL     1      -1.939  -2.366   0.000  0.00  0.00    +0.115 C 
ATOM      2  N   UNL     1      -1.225  -1.954   0.000  0.00  0.00    -0.274 N 
ATOM      3  C   UNL     1      -1.225  -1.129   0.000  0.00  0.00    +0.115 C 
ATOM      4  C   UNL     1      -0.510  -2.366   0.000  0.00  0.00    +0.256 C 
ATOM      5  O   UNL     1      -0.510  -3.191   0.000  0.00  0.00    -0.272 OA
ENDBRANCH   6   4
ENDBRANCH   7   6
ENDBRANCH   8   7
BRANCH  13  14
ATOM     14  C   UNL     1       3.664  -2.780   0.000  0.00  0.00    +0.119 C 
BRANCH  14  15
ATOM     15  C   UNL     1       4.468  -2.596   0.000  0.00  0.00    +0.075 A 
ATOM     16  N   UNL     1       4.712  -1.808   0.000  0.00  0.00    -0.247 NA
ATOM     17  C   UNL     1       5.516  -1.625   0.000  0.00  0.00    +0.098 A 
ATOM     18  C   UNL     1       6.077  -2.229   0.000  0.00  0.00    +0.021 A 
ATOM     19  C   UNL     1       5.834  -3.018   0.000  0.00  0.00    +0.003 A 
ATOM     20  C   UNL     1       5.029  -3.201   0.000  0.00  0.00    +0.016 A 
ENDBRANCH  14  15
ENDBRANCH  13  14
TORSDOF 5
