REMARK  Name = 
REMARK  8 active torsions:
REMARK  status: ('A' for Active; 'I' for Inactive)
REMARK    1  A    between atoms: O_2  and  C_3
REMARK    2  A    between atoms: C_3  and  C_4
REMARK    3  A    between atoms: N_6  and  C_7
REMARK    4  A    between atoms: C_7  and  C_8
REMARK    5  A    between atoms: C_10  and  C_11
REMARK    6  A    between atoms: C_15  and  N_16
REMARK    7  A    between atoms: N_19  and  C_22
REMARK    8  A    between atoms: C_27  and  O_28
REMARK                            x       y       z     vdW  Elec       q    Type
REMARK                         _______ _______ _______ _____ _____    ______ ____
ROOT
ATOM      8  C   UNL     1       8.534  -4.124   0.000  0.00  0.00    +0.154 C 
ATOM      9  O   UNL     1       8.621  -3.304   0.000  0.00  0.00    -0.350 OA
ATOM     10  C   UNL     1       9.428  -3.132   0.000  0.00  0.00    +0.180 C 
ATOM     13  C   UNL     1       9.840  -3.847   0.000  0.00  0.00    +0.198 C 
ATOM     14  O   UNL     1      10.661  -3.933   0.000  0.00  0.00    -0.219 OA
ATOM     15  C   UNL     1       9.288  -4.460   0.000  0.00  0.00    +0.120 C 
ENDROOT
BRANCH  15  16
ATOM     16  N   UNL     1       9.460  -5.267   0.000  0.00  0.00    -0.267 NA
ATOM     17  C   UNL     1      10.244  -5.522   0.000  0.00  0.00    +0.094 C 
ATOM     18  C   UNL     1      10.416  -6.329   0.000  0.00  0.00    +0.108 C 
ATOM     19  N   UNL     1       9.803  -6.881   0.000  0.00  0.00    -0.302 N 
ATOM     20  C   UNL     1       9.018  -6.626   0.000  0.00  0.00    +0.108 C 
ATOM     21  C   UNL     1       8.846  -5.819   0.000  0.00  0.00    +0.094 C 
BRANCH  19  22
ATOM     22  C   UNL     1       9.974  -7.688   0.000  0.00  0.00    +0.082 A 
ATOM     23  C   UNL     1      10.759  -7.943   0.000  0.00  0.00    +0.018 A 
ATOM     24  C   UNL     1      10.930  -8.749   0.000  0.00  0.00    +0.001 A 
ATOM     25  C   UNL     1      10.317  -9.302   0.000  0.00  0.00    +0.003 A 
ATOM     26  C   UNL     1       9.533  -9.047   0.000  0.00  0.00    +0.038 A 
ATOM     27  C   UNL     1       9.361  -8.240   0.000  0.00  0.00    +0.152 A 
BRANCH  27  28
ATOM     28  O   UNL     1       8.576  -7.985   0.000  0.00  0.00    -0.470 OA
ATOM     29  C   UNL     1       8.405  -7.178   0.000  0.00  0.00    +0.253 C 
ENDBRANCH  27  28
ENDBRANCH  19  22
ENDBRANCH  15  16
BRANCH  10  11
ATOM     11  C   UNL     1       9.763  -2.378   0.000  0.00  0.00    +0.214 C 
ATOM     12  O   UNL     1      10.584  -2.292   0.000  0.00  0.00    -0.218 OA
ENDBRANCH  10  11
BRANCH   8   7
ATOM      7  C   UNL     1       7.820  -4.537   0.000  0.00  0.00    +0.146 C 
BRANCH   7   6
ATOM      4  C   UNL     1       6.391  -4.537   0.000  0.00  0.00    +0.272 C 
ATOM      5  O   UNL     1       6.391  -5.362   0.000  0.00  0.00    -0.271 OA
ATOM      6  N   UNL     1       7.105  -4.124   0.000  0.00  0.00    -0.201 NA
BRANCH   4   3
ATOM      3  C   UNL     1       5.676  -4.124   0.000  0.00  0.00    +0.229 C 
BRANCH   3   2
ATOM      1  C   UNL     1       4.247  -4.124   0.000  0.00  0.00    +0.175 C 
ATOM      2  O   UNL     1       4.962  -4.537   0.000  0.00  0.00    -0.342 OA
ENDBRANCH   3   2
ENDBRANCH   4   3
ENDBRANCH   7   6
ENDBRANCH   8   7
TORSDOF 8
