MODEL 1
REMARK VINA RESULT:     -11.6      0.000      0.000
REMARK  Name = 
REMARK  6 active torsions:
REMARK  status: ('A' for Active; 'I' for Inactive)
REMARK    1  A    between atoms: C_2  and  C_4
REMARK    2  A    between atoms: C_4  and  C_5
REMARK    3  A    between atoms: C_4  and  N_15
REMARK    4  A    between atoms: C_5  and  C_6
REMARK    5  A    between atoms: C_16  and  C_18
REMARK    6  A    between atoms: C_24  and  C_26
REMARK                            x       y       z     vdW  Elec       q    Type
REMARK                         _______ _______ _______ _____ _____    ______ ____
ROOT
ATOM     15  N   UNL     1      -1.821   0.890  24.288  0.00  0.00    -0.196 NA
ATOM     16  C   UNL     1      -2.208   1.592  24.480  0.00  0.00    +0.261 C 
ATOM     17  O   UNL     1      -2.140   1.906  25.240  0.00  0.00    -0.271 OA
ENDROOT
BRANCH  16  18
ATOM     18  C   UNL     1      -2.662   1.981  23.912  0.00  0.00    +0.171 C 
ATOM     19  C   UNL     1      -2.401   2.019  23.130  0.00  0.00    +0.118 C 
ATOM     20  N   UNL     1      -2.856   2.409  22.561  0.00  0.00    -0.214 NA
ATOM     21  C   UNL     1      -3.570   2.760  22.775  0.00  0.00    +0.110 C 
ATOM     22  C   UNL     1      -3.831   2.723  23.558  0.00  0.00    +0.113 C 
ATOM     23  N   UNL     1      -3.377   2.333  24.126  0.00  0.00    -0.270 N 
ATOM     24  C   UNL     1      -3.637   2.296  24.908  0.00  0.00    +0.226 C 
ATOM     25  O   UNL     1      -3.183   1.906  25.476  0.00  0.00    -0.275 OA
BRANCH  24  26
ATOM     26  C   UNL     1      -4.352   2.648  25.121  0.00  0.00    +0.080 C 
ATOM     27  C   UNL     1      -5.046   2.201  25.123  0.00  0.00    +0.028 C 
ATOM     28  C   UNL     1      -5.762   2.553  25.336  0.00  0.00    +0.089 C 
ATOM     29  N   UNL     1      -5.783   3.350  25.546  0.00  0.00    -0.218 NA
ATOM     30  C   UNL     1      -5.089   3.797  25.545  0.00  0.00    +0.089 C 
ATOM     31  C   UNL     1      -4.374   3.445  25.332  0.00  0.00    +0.028 C 
ENDBRANCH  24  26
ENDBRANCH  16  18
BRANCH  15   4
ATOM      4  C   UNL     1      -1.366   0.500  24.856  0.00  0.00    +0.179 C 
BRANCH   4   2
ATOM      1  N   UNL     1      -0.063   0.829  24.371  0.00  0.00    -0.086 NA
ATOM      2  C   UNL     1      -0.591   0.742  24.999  0.00  0.00    +0.281 C 
ATOM      3  O   UNL     1      -0.342   0.896  25.770  0.00  0.00    -0.270 OA
ENDBRANCH   4   2
BRANCH   4   5
ATOM      5  C   UNL     1      -1.687  -0.131  25.280  0.00  0.00    +0.059 C 
BRANCH   5   6
ATOM      6  C   UNL     1      -1.738  -0.877  24.934  0.00  0.00    +0.001 A 
ATOM      7  C   UNL     1      -1.175  -1.222  24.439  0.00  0.00    +0.095 A 
ATOM      8  N   UNL     1      -1.451  -1.968  24.221  0.00  0.00    -0.244 NA
ATOM      9  C   UNL     1      -2.183  -2.085  24.581  0.00  0.00    +0.081 A 
ATOM     10  C   UNL     1      -2.361  -1.410  25.021  0.00  0.00    +0.015 A 
ATOM     11  C   UNL     1      -3.068  -1.370  25.445  0.00  0.00    +0.001 A 
ATOM     12  C   UNL     1      -3.596  -2.002  25.429  0.00  0.00    +0.000 A 
ATOM     13  C   UNL     1      -3.418  -2.677  24.988  0.00  0.00    +0.002 A 
ATOM     14  C   UNL     1      -2.712  -2.719  24.564  0.00  0.00    +0.019 A 
ENDBRANCH   5   6
ENDBRANCH   4   5
ENDBRANCH  15   4
TORSDOF 6
ENDMDL
MODEL 2
REMARK VINA RESULT:     -11.4      1.159      4.517
REMARK  Name = 
REMARK  6 active torsions:
REMARK  status: ('A' for Active; 'I' for Inactive)
REMARK    1  A    between atoms: C_2  and  C_4
REMARK    2  A    between atoms: C_4  and  C_5
REMARK    3  A    between atoms: C_4  and  N_15
REMARK    4  A    between atoms: C_5  and  C_6
REMARK    5  A    between atoms: C_16  and  C_18
REMARK    6  A    between atoms: C_24  and  C_26
REMARK                            x       y       z     vdW  Elec       q    Type
REMARK                         _______ _______ _______ _____ _____    ______ ____
ROOT
ATOM     15  N   UNL     1      -2.399   1.604  24.394  0.00  0.00    -0.196 NA
ATOM     16  C   UNL     1      -2.226   0.809  24.266  0.00  0.00    +0.261 C 
ATOM     17  O   UNL     1      -2.449   0.446  23.559  0.00  0.00    -0.271 OA
ENDROOT
BRANCH  16  18
ATOM     18  C   UNL     1      -1.829   0.375  24.845  0.00  0.00    +0.171 C 
ATOM     19  C   UNL     1      -1.225   0.727  25.282  0.00  0.00    +0.118 C 
ATOM     20  N   UNL     1      -0.827   0.293  25.862  0.00  0.00    -0.214 NA
ATOM     21  C   UNL     1      -1.034  -0.493  26.002  0.00  0.00    +0.110 C 
ATOM     22  C   UNL     1      -1.639  -0.845  25.564  0.00  0.00    +0.113 C 
ATOM     23  N   UNL     1      -2.036  -0.411  24.985  0.00  0.00    -0.270 N 
ATOM     24  C   UNL     1      -2.641  -0.763  24.547  0.00  0.00    +0.226 C 
ATOM     25  O   UNL     1      -3.037  -0.329  23.969  0.00  0.00    -0.275 OA
BRANCH  24  26
ATOM     26  C   UNL     1      -2.847  -1.549  24.689  0.00  0.00    +0.080 C 
ATOM     27  C   UNL     1      -3.447  -1.726  25.227  0.00  0.00    +0.028 C 
ATOM     28  C   UNL     1      -3.654  -2.512  25.369  0.00  0.00    +0.089 C 
ATOM     29  N   UNL     1      -3.262  -3.120  24.973  0.00  0.00    -0.218 NA
ATOM     30  C   UNL     1      -2.662  -2.943  24.436  0.00  0.00    +0.089 C 
ATOM     31  C   UNL     1      -2.455  -2.157  24.293  0.00  0.00    +0.028 C 
ENDBRANCH  24  26
ENDBRANCH  16  18
BRANCH  15   4
ATOM      4  C   UNL     1      -2.796   2.039  23.815  0.00  0.00    +0.179 C 
BRANCH   4   2
ATOM      1  N   UNL     1      -2.648   2.297  22.418  0.00  0.00    -0.086 NA
ATOM      2  C   UNL     1      -2.375   2.376  23.192  0.00  0.00    +0.281 C 
ATOM      3  O   UNL     1      -1.679   2.793  23.343  0.00  0.00    -0.270 OA
ENDBRANCH   4   2
BRANCH   4   5
ATOM      5  C   UNL     1      -3.615   2.136  23.861  0.00  0.00    +0.059 C 
BRANCH   5   6
ATOM      6  C   UNL     1      -3.938   2.669  24.400  0.00  0.00    +0.001 A 
ATOM      7  C   UNL     1      -3.590   3.373  24.654  0.00  0.00    +0.095 A 
ATOM      8  N   UNL     1      -4.103   3.731  25.192  0.00  0.00    -0.244 NA
ATOM      9  C   UNL     1      -4.767   3.249  25.270  0.00  0.00    +0.081 A 
ATOM     10  C   UNL     1      -4.665   2.593  24.781  0.00  0.00    +0.015 A 
ATOM     11  C   UNL     1      -5.249   2.010  24.746  0.00  0.00    +0.001 A 
ATOM     12  C   UNL     1      -5.933   2.084  25.199  0.00  0.00    +0.000 A 
ATOM     13  C   UNL     1      -6.035   2.740  25.688  0.00  0.00    +0.002 A 
ATOM     14  C   UNL     1      -5.453   3.323  25.724  0.00  0.00    +0.019 A 
ENDBRANCH   5   6
ENDBRANCH   4   5
ENDBRANCH  15   4
TORSDOF 6
ENDMDL
MODEL 3
REMARK VINA RESULT:     -10.8      1.542      3.102
REMARK  Name = 
REMARK  6 active torsions:
REMARK  status: ('A' for Active; 'I' for Inactive)
REMARK    1  A    between atoms: C_2  and  C_4
REMARK    2  A    between atoms: C_4  and  C_5
REMARK    3  A    between atoms: C_4  and  N_15
REMARK    4  A    between atoms: C_5  and  C_6
REMARK    5  A    between atoms: C_16  and  C_18
REMARK    6  A    between atoms: C_24  and  C_26
REMARK                            x       y       z     vdW  Elec       q    Type
REMARK                         _______ _______ _______ _____ _____    ______ ____
ROOT
ATOM     15  N   UNL     1      -3.855   1.068  24.267  0.00  0.00    -0.196 NA
ATOM     16  C   UNL     1      -3.348   1.664  24.526  0.00  0.00    +0.261 C 
ATOM     17  O   UNL     1      -3.390   1.931  25.306  0.00  0.00    -0.271 OA
ENDROOT
BRANCH  16  18
ATOM     18  C   UNL     1      -2.797   1.992  24.007  0.00  0.00    +0.171 C 
ATOM     19  C   UNL     1      -3.001   2.122  23.218  0.00  0.00    +0.118 C 
ATOM     20  N   UNL     1      -2.450   2.451  22.698  0.00  0.00    -0.214 NA
ATOM     21  C   UNL     1      -1.696   2.650  22.968  0.00  0.00    +0.110 C 
ATOM     22  C   UNL     1      -1.492   2.520  23.758  0.00  0.00    +0.113 C 
ATOM     23  N   UNL     1      -2.043   2.191  24.277  0.00  0.00    -0.270 N 
ATOM     24  C   UNL     1      -1.840   2.061  25.066  0.00  0.00    +0.226 C 
ATOM     25  O   UNL     1      -2.390   1.732  25.585  0.00  0.00    -0.275 OA
BRANCH  24  26
ATOM     26  C   UNL     1      -1.086   2.260  25.335  0.00  0.00    +0.080 C 
ATOM     27  C   UNL     1      -0.470   1.714  25.275  0.00  0.00    +0.028 C 
ATOM     28  C   UNL     1       0.284   1.912  25.543  0.00  0.00    +0.089 C 
ATOM     29  N   UNL     1       0.423   2.656  25.872  0.00  0.00    -0.218 NA
ATOM     30  C   UNL     1      -0.192   3.202  25.932  0.00  0.00    +0.089 C 
ATOM     31  C   UNL     1      -0.947   3.004  25.663  0.00  0.00    +0.028 C 
ENDBRANCH  24  26
ENDBRANCH  16  18
BRANCH  15   4
ATOM      4  C   UNL     1      -4.406   0.739  24.786  0.00  0.00    +0.179 C 
BRANCH   4   2
ATOM      1  N   UNL     1      -5.384   1.205  25.717  0.00  0.00    -0.086 NA
ATOM      2  C   UNL     1      -5.112   1.135  24.941  0.00  0.00    +0.281 C 
ATOM      3  O   UNL     1      -5.547   1.461  24.321  0.00  0.00    -0.270 OA
ENDBRANCH   4   2
BRANCH   4   5
ATOM      5  C   UNL     1      -4.250   0.015  25.149  0.00  0.00    +0.059 C 
BRANCH   5   6
ATOM      6  C   UNL     1      -4.228  -0.676  24.699  0.00  0.00    +0.001 A 
ATOM      7  C   UNL     1      -4.583  -0.786  23.962  0.00  0.00    +0.095 A 
ATOM      8  N   UNL     1      -4.422  -1.556  23.714  0.00  0.00    -0.244 NA
ATOM      9  C   UNL     1      -3.968  -1.922  24.297  0.00  0.00    +0.081 A 
ATOM     10  C   UNL     1      -3.848  -1.378  24.906  0.00  0.00    +0.015 A 
ATOM     11  C   UNL     1      -3.408  -1.593  25.570  0.00  0.00    +0.001 A 
ATOM     12  C   UNL     1      -3.089  -2.351  25.626  0.00  0.00    +0.000 A 
ATOM     13  C   UNL     1      -3.209  -2.895  25.017  0.00  0.00    +0.002 A 
ATOM     14  C   UNL     1      -3.648  -2.681  24.353  0.00  0.00    +0.019 A 
ENDBRANCH   5   6
ENDBRANCH   4   5
ENDBRANCH  15   4
TORSDOF 6
ENDMDL
MODEL 4
REMARK VINA RESULT:     -10.6      1.275      1.661
REMARK  Name = 
REMARK  6 active torsions:
REMARK  status: ('A' for Active; 'I' for Inactive)
REMARK    1  A    between atoms: C_2  and  C_4
REMARK    2  A    between atoms: C_4  and  C_5
REMARK    3  A    between atoms: C_4  and  N_15
REMARK    4  A    between atoms: C_5  and  C_6
REMARK    5  A    between atoms: C_16  and  C_18
REMARK    6  A    between atoms: C_24  and  C_26
REMARK                            x       y       z     vdW  Elec       q    Type
REMARK                         _______ _______ _______ _____ _____    ______ ____
ROOT
ATOM     15  N   UNL     1      -1.915   1.671  24.727  0.00  0.00    -0.196 NA
ATOM     16  C   UNL     1      -2.361   2.347  24.575  0.00  0.00    +0.261 C 
ATOM     17  O   UNL     1      -2.729   2.442  23.842  0.00  0.00    -0.271 OA
ENDROOT
BRANCH  16  18
ATOM     18  C   UNL     1      -2.438   2.929  25.154  0.00  0.00    +0.171 C 
ATOM     19  C   UNL     1      -1.766   3.261  25.498  0.00  0.00    +0.118 C 
ATOM     20  N   UNL     1      -1.844   3.844  26.078  0.00  0.00    -0.214 NA
ATOM     21  C   UNL     1      -2.593   4.094  26.313  0.00  0.00    +0.110 C 
ATOM     22  C   UNL     1      -3.267   3.761  25.969  0.00  0.00    +0.113 C 
ATOM     23  N   UNL     1      -3.189   3.179  25.389  0.00  0.00    -0.270 N 
ATOM     24  C   UNL     1      -3.861   2.847  25.045  0.00  0.00    +0.226 C 
ATOM     25  O   UNL     1      -3.783   2.265  24.466  0.00  0.00    -0.275 OA
BRANCH  24  26
ATOM     26  C   UNL     1      -4.611   3.098  25.281  0.00  0.00    +0.080 C 
ATOM     27  C   UNL     1      -5.085   2.602  25.738  0.00  0.00    +0.028 C 
ATOM     28  C   UNL     1      -5.835   2.852  25.975  0.00  0.00    +0.089 C 
ATOM     29  N   UNL     1      -6.110   3.597  25.754  0.00  0.00    -0.218 NA
ATOM     30  C   UNL     1      -5.636   4.093  25.296  0.00  0.00    +0.089 C 
ATOM     31  C   UNL     1      -4.886   3.843  25.060  0.00  0.00    +0.028 C 
ENDBRANCH  24  26
ENDBRANCH  16  18
BRANCH  15   4
ATOM      4  C   UNL     1      -1.837   1.088  24.147  0.00  0.00    +0.179 C 
BRANCH   4   2
ATOM      1  N   UNL     1      -0.437   1.192  23.878  0.00  0.00    -0.086 NA
ATOM      2  C   UNL     1      -1.214   1.125  23.608  0.00  0.00    +0.281 C 
ATOM      3  O   UNL     1      -1.368   1.094  22.798  0.00  0.00    -0.270 OA
ENDBRANCH   4   2
BRANCH   4   5
ATOM      5  C   UNL     1      -2.381   0.469  24.108  0.00  0.00    +0.059 C 
BRANCH   5   6
ATOM      6  C   UNL     1      -2.283  -0.198  24.584  0.00  0.00    +0.001 A 
ATOM      7  C   UNL     1      -1.654  -0.337  25.100  0.00  0.00    +0.095 A 
ATOM      8  N   UNL     1      -1.779  -1.067  25.462  0.00  0.00    -0.244 NA
ATOM      9  C   UNL     1      -2.485  -1.379  25.171  0.00  0.00    +0.081 A 
ATOM     10  C   UNL     1      -2.796  -0.841  24.628  0.00  0.00    +0.015 A 
ATOM     11  C   UNL     1      -3.507  -1.009  24.244  0.00  0.00    +0.001 A 
ATOM     12  C   UNL     1      -3.906  -1.712  24.402  0.00  0.00    +0.000 A 
ATOM     13  C   UNL     1      -3.595  -2.250  24.945  0.00  0.00    +0.002 A 
ATOM     14  C   UNL     1      -2.884  -2.084  25.329  0.00  0.00    +0.019 A 
ENDBRANCH   5   6
ENDBRANCH   4   5
ENDBRANCH  15   4
TORSDOF 6
ENDMDL
MODEL 5
REMARK VINA RESULT:     -10.4      1.768      4.804
REMARK  Name = 
REMARK  6 active torsions:
REMARK  status: ('A' for Active; 'I' for Inactive)
REMARK    1  A    between atoms: C_2  and  C_4
REMARK    2  A    between atoms: C_4  and  C_5
REMARK    3  A    between atoms: C_4  and  N_15
REMARK    4  A    between atoms: C_5  and  C_6
REMARK    5  A    between atoms: C_16  and  C_18
REMARK    6  A    between atoms: C_24  and  C_26
REMARK                            x       y       z     vdW  Elec       q    Type
REMARK                         _______ _______ _______ _____ _____    ______ ____
ROOT
ATOM     15  N   UNL     1      -1.784   1.203  24.004  0.00  0.00    -0.196 NA
ATOM     16  C   UNL     1      -2.009   0.589  24.506  0.00  0.00    +0.261 C 
ATOM     17  O   UNL     1      -2.692   0.660  24.964  0.00  0.00    -0.271 OA
ENDROOT
BRANCH  16  18
ATOM     18  C   UNL     1      -1.552  -0.096  24.551  0.00  0.00    +0.171 C 
ATOM     19  C   UNL     1      -0.728  -0.044  24.541  0.00  0.00    +0.118 C 
ATOM     20  N   UNL     1      -0.270  -0.730  24.586  0.00  0.00    -0.214 NA
ATOM     21  C   UNL     1      -0.636  -1.467  24.640  0.00  0.00    +0.110 C 
ATOM     22  C   UNL     1      -1.461  -1.519  24.649  0.00  0.00    +0.113 C 
ATOM     23  N   UNL     1      -1.918  -0.834  24.605  0.00  0.00    -0.270 N 
ATOM     24  C   UNL     1      -2.741  -0.886  24.614  0.00  0.00    +0.226 C 
ATOM     25  O   UNL     1      -3.198  -0.200  24.570  0.00  0.00    -0.275 OA
BRANCH  24  26
ATOM     26  C   UNL     1      -3.106  -1.623  24.668  0.00  0.00    +0.080 C 
ATOM     27  C   UNL     1      -3.435  -1.970  23.995  0.00  0.00    +0.028 C 
ATOM     28  C   UNL     1      -3.801  -2.708  24.049  0.00  0.00    +0.089 C 
ATOM     29  N   UNL     1      -3.837  -3.099  24.774  0.00  0.00    -0.218 NA
ATOM     30  C   UNL     1      -3.509  -2.752  25.447  0.00  0.00    +0.089 C 
ATOM     31  C   UNL     1      -3.143  -2.014  25.394  0.00  0.00    +0.028 C 
ENDBRANCH  24  26
ENDBRANCH  16  18
BRANCH  15   4
ATOM      4  C   UNL     1      -2.241   1.889  23.959  0.00  0.00    +0.179 C 
BRANCH   4   2
ATOM      1  N   UNL     1      -2.467   1.917  22.549  0.00  0.00    -0.086 NA
ATOM      2  C   UNL     1      -2.748   2.004  23.320  0.00  0.00    +0.281 C 
ATOM      3  O   UNL     1      -3.537   2.206  23.450  0.00  0.00    -0.270 OA
ENDBRANCH   4   2
BRANCH   4   5
ATOM      5  C   UNL     1      -2.190   2.458  24.554  0.00  0.00    +0.059 C 
BRANCH   5   6
ATOM      6  C   UNL     1      -1.610   3.043  24.517  0.00  0.00    +0.001 A 
ATOM      7  C   UNL     1      -0.870   2.970  24.160  0.00  0.00    +0.095 A 
ATOM      8  N   UNL     1      -0.470   3.685  24.253  0.00  0.00    -0.244 NA
ATOM      9  C   UNL     1      -0.963   4.200  24.668  0.00  0.00    +0.081 A 
ATOM     10  C   UNL     1      -1.667   3.803  24.831  0.00  0.00    +0.015 A 
ATOM     11  C   UNL     1      -2.270   4.186  25.245  0.00  0.00    +0.001 A 
ATOM     12  C   UNL     1      -2.168   4.965  25.495  0.00  0.00    +0.000 A 
ATOM     13  C   UNL     1      -1.464   5.362  25.332  0.00  0.00    +0.002 A 
ATOM     14  C   UNL     1      -0.861   4.980  24.918  0.00  0.00    +0.019 A 
ENDBRANCH   5   6
ENDBRANCH   4   5
ENDBRANCH  15   4
TORSDOF 6
ENDMDL
MODEL 6
REMARK VINA RESULT:     -10.3      1.436      4.520
REMARK  Name = 
REMARK  6 active torsions:
REMARK  status: ('A' for Active; 'I' for Inactive)
REMARK    1  A    between atoms: C_2  and  C_4
REMARK    2  A    between atoms: C_4  and  C_5
REMARK    3  A    between atoms: C_4  and  N_15
REMARK    4  A    between atoms: C_5  and  C_6
REMARK    5  A    between atoms: C_16  and  C_18
REMARK    6  A    between atoms: C_24  and  C_26
REMARK                            x       y       z     vdW  Elec       q    Type
REMARK                         _______ _______ _______ _____ _____    ______ ____
ROOT
ATOM     15  N   UNL     1      -2.726   2.996  24.771  0.00  0.00    -0.196 NA
ATOM     16  C   UNL     1      -2.122   2.494  24.519  0.00  0.00    +0.261 C 
ATOM     17  O   UNL     1      -2.196   2.085  23.806  0.00  0.00    -0.271 OA
ENDROOT
BRANCH  16  18
ATOM     18  C   UNL     1      -1.444   2.402  24.979  0.00  0.00    +0.171 C 
ATOM     19  C   UNL     1      -1.090   3.060  25.329  0.00  0.00    +0.118 C 
ATOM     20  N   UNL     1      -0.410   2.967  25.790  0.00  0.00    -0.214 NA
ATOM     21  C   UNL     1      -0.086   2.217  25.900  0.00  0.00    +0.110 C 
ATOM     22  C   UNL     1      -0.440   1.558  25.549  0.00  0.00    +0.113 C 
ATOM     23  N   UNL     1      -1.119   1.651  25.089  0.00  0.00    -0.270 N 
ATOM     24  C   UNL     1      -1.473   0.993  24.739  0.00  0.00    +0.226 C 
ATOM     25  O   UNL     1      -2.152   1.086  24.279  0.00  0.00    -0.275 OA
BRANCH  24  26
ATOM     26  C   UNL     1      -1.148   0.243  24.850  0.00  0.00    +0.080 C 
ATOM     27  C   UNL     1      -1.391  -0.220  25.487  0.00  0.00    +0.028 C 
ATOM     28  C   UNL     1      -1.067  -0.971  25.598  0.00  0.00    +0.089 C 
ATOM     29  N   UNL     1      -0.499  -1.257  25.073  0.00  0.00    -0.218 NA
ATOM     30  C   UNL     1      -0.255  -0.793  24.435  0.00  0.00    +0.089 C 
ATOM     31  C   UNL     1      -0.580  -0.043  24.324  0.00  0.00    +0.028 C 
ENDBRANCH  24  26
ENDBRANCH  16  18
BRANCH  15   4
ATOM      4  C   UNL     1      -3.405   3.089  24.311  0.00  0.00    +0.179 C 
BRANCH   4   2
ATOM      1  N   UNL     1      -3.657   3.475  22.959  0.00  0.00    -0.086 NA
ATOM      2  C   UNL     1      -3.430   3.671  23.727  0.00  0.00    +0.281 C 
ATOM      3  O   UNL     1      -3.228   4.449  23.913  0.00  0.00    -0.270 OA
ENDBRANCH   4   2
BRANCH   4   5
ATOM      5  C   UNL     1      -4.058   2.600  24.435  0.00  0.00    +0.059 C 
BRANCH   5   6
ATOM      6  C   UNL     1      -4.593   2.771  25.039  0.00  0.00    +0.001 A 
ATOM      7  C   UNL     1      -4.608   3.460  25.493  0.00  0.00    +0.095 A 
ATOM      8  N   UNL     1      -5.231   3.398  26.029  0.00  0.00    -0.244 NA
ATOM      9  C   UNL     1      -5.601   2.671  25.908  0.00  0.00    +0.081 A 
ATOM     10  C   UNL     1      -5.206   2.284  25.295  0.00  0.00    +0.015 A 
ATOM     11  C   UNL     1      -5.458   1.536  25.051  0.00  0.00    +0.001 A 
ATOM     12  C   UNL     1      -6.102   1.177  25.418  0.00  0.00    +0.000 A 
ATOM     13  C   UNL     1      -6.497   1.565  26.030  0.00  0.00    +0.002 A 
ATOM     14  C   UNL     1      -6.247   2.312  26.276  0.00  0.00    +0.019 A 
ENDBRANCH   5   6
ENDBRANCH   4   5
ENDBRANCH  15   4
TORSDOF 6
ENDMDL
MODEL 7
REMARK VINA RESULT:     -10.2      1.288      4.353
REMARK  Name = 
REMARK  6 active torsions:
REMARK  status: ('A' for Active; 'I' for Inactive)
REMARK    1  A    between atoms: C_2  and  C_4
REMARK    2  A    between atoms: C_4  and  C_5
REMARK    3  A    between atoms: C_4  and  N_15
REMARK    4  A    between atoms: C_5  and  C_6
REMARK    5  A    between atoms: C_16  and  C_18
REMARK    6  A    between atoms: C_24  and  C_26
REMARK                            x       y       z     vdW  Elec       q    Type
REMARK                         _______ _______ _______ _____ _____    ______ ____
ROOT
ATOM     15  N   UNL     1      -1.261   2.122  24.730  0.00  0.00    -0.196 NA
ATOM     16  C   UNL     1      -0.841   1.463  24.993  0.00  0.00    +0.261 C 
ATOM     17  O   UNL     1      -0.837   1.271  25.796  0.00  0.00    -0.271 OA
ENDROOT
BRANCH  16  18
ATOM     18  C   UNL     1      -0.425   0.997  24.455  0.00  0.00    +0.171 C 
ATOM     19  C   UNL     1       0.112   1.348  23.935  0.00  0.00    +0.118 C 
ATOM     20  N   UNL     1       0.529   0.881  23.396  0.00  0.00    -0.214 NA
ATOM     21  C   UNL     1       0.409   0.065  23.378  0.00  0.00    +0.110 C 
ATOM     22  C   UNL     1      -0.129  -0.285  23.898  0.00  0.00    +0.113 C 
ATOM     23  N   UNL     1      -0.545   0.181  24.436  0.00  0.00    -0.270 N 
ATOM     24  C   UNL     1      -1.082  -0.168  24.956  0.00  0.00    +0.226 C 
ATOM     25  O   UNL     1      -1.499   0.298  25.494  0.00  0.00    -0.275 OA
BRANCH  24  26
ATOM     26  C   UNL     1      -1.202  -0.984  24.936  0.00  0.00    +0.080 C 
ATOM     27  C   UNL     1      -1.849  -1.295  24.529  0.00  0.00    +0.028 C 
ATOM     28  C   UNL     1      -1.969  -2.112  24.509  0.00  0.00    +0.089 C 
ATOM     29  N   UNL     1      -1.444  -2.616  24.896  0.00  0.00    -0.218 NA
ATOM     30  C   UNL     1      -0.797  -2.305  25.303  0.00  0.00    +0.089 C 
ATOM     31  C   UNL     1      -0.677  -1.489  25.323  0.00  0.00    +0.028 C 
ENDBRANCH  24  26
ENDBRANCH  16  18
BRANCH  15   4
ATOM      4  C   UNL     1      -1.678   2.588  25.268  0.00  0.00    +0.179 C 
BRANCH   4   2
ATOM      1  N   UNL     1      -0.880   3.770  25.181  0.00  0.00    -0.086 NA
ATOM      2  C   UNL     1      -1.307   3.228  25.633  0.00  0.00    +0.281 C 
ATOM      3  O   UNL     1      -1.361   3.325  26.450  0.00  0.00    -0.270 OA
ENDBRANCH   4   2
BRANCH   4   5
ATOM      5  C   UNL     1      -2.467   2.416  25.441  0.00  0.00    +0.059 C 
BRANCH   5   6
ATOM      6  C   UNL     1      -3.067   2.687  24.945  0.00  0.00    +0.001 A 
ATOM      7  C   UNL     1      -2.988   3.261  24.357  0.00  0.00    +0.095 A 
ATOM      8  N   UNL     1      -3.724   3.362  23.999  0.00  0.00    -0.244 NA
ATOM      9  C   UNL     1      -4.258   2.851  24.365  0.00  0.00    +0.081 A 
ATOM     10  C   UNL     1      -3.851   2.434  24.950  0.00  0.00    +0.015 A 
ATOM     11  C   UNL     1      -4.250   1.877  25.411  0.00  0.00    +0.001 A 
ATOM     12  C   UNL     1      -5.053   1.737  25.288  0.00  0.00    +0.000 A 
ATOM     13  C   UNL     1      -5.459   2.154  24.703  0.00  0.00    +0.002 A 
ATOM     14  C   UNL     1      -5.062   2.711  24.242  0.00  0.00    +0.019 A 
ENDBRANCH   5   6
ENDBRANCH   4   5
ENDBRANCH  15   4
TORSDOF 6
ENDMDL
MODEL 8
REMARK VINA RESULT:     -10.0      1.769      4.304
REMARK  Name = 
REMARK  6 active torsions:
REMARK  status: ('A' for Active; 'I' for Inactive)
REMARK    1  A    between atoms: C_2  and  C_4
REMARK    2  A    between atoms: C_4  and  C_5
REMARK    3  A    between atoms: C_4  and  N_15
REMARK    4  A    between atoms: C_5  and  C_6
REMARK    5  A    between atoms: C_16  and  C_18
REMARK    6  A    between atoms: C_24  and  C_26
REMARK                            x       y       z     vdW  Elec       q    Type
REMARK                         _______ _______ _______ _____ _____    ______ ____
ROOT
ATOM     15  N   UNL     1      -3.256   2.023  24.031  0.00  0.00    -0.196 NA
ATOM     16  C   UNL     1      -3.559   1.264  23.928  0.00  0.00    +0.261 C 
ATOM     17  O   UNL     1      -3.289   0.793  23.306  0.00  0.00    -0.271 OA
ENDROOT
BRANCH  16  18
ATOM     18  C   UNL     1      -4.131   0.974  24.446  0.00  0.00    +0.171 C 
ATOM     19  C   UNL     1      -4.671   1.492  24.796  0.00  0.00    +0.118 C 
ATOM     20  N   UNL     1      -5.244   1.202  25.315  0.00  0.00    -0.214 NA
ATOM     21  C   UNL     1      -5.277   0.396  25.483  0.00  0.00    +0.110 C 
ATOM     22  C   UNL     1      -4.737  -0.123  25.133  0.00  0.00    +0.113 C 
ATOM     23  N   UNL     1      -4.165   0.167  24.615  0.00  0.00    -0.270 N 
ATOM     24  C   UNL     1      -3.625  -0.350  24.265  0.00  0.00    +0.226 C 
ATOM     25  O   UNL     1      -3.053  -0.060  23.747  0.00  0.00    -0.275 OA
BRANCH  24  26
ATOM     26  C   UNL     1      -3.659  -1.156  24.434  0.00  0.00    +0.080 C 
ATOM     27  C   UNL     1      -4.087  -1.662  23.942  0.00  0.00    +0.028 C 
ATOM     28  C   UNL     1      -4.121  -2.469  24.111  0.00  0.00    +0.089 C 
ATOM     29  N   UNL     1      -3.729  -2.770  24.771  0.00  0.00    -0.218 NA
ATOM     30  C   UNL     1      -3.301  -2.264  25.263  0.00  0.00    +0.089 C 
ATOM     31  C   UNL     1      -3.267  -1.457  25.095  0.00  0.00    +0.028 C 
ENDBRANCH  24  26
ENDBRANCH  16  18
BRANCH  15   4
ATOM      4  C   UNL     1      -2.683   2.314  23.512  0.00  0.00    +0.179 C 
BRANCH   4   2
ATOM      1  N   UNL     1      -2.523   2.383  22.094  0.00  0.00    -0.086 NA
ATOM      2  C   UNL     1      -2.908   2.625  22.783  0.00  0.00    +0.281 C 
ATOM      3  O   UNL     1      -3.518   3.178  22.741  0.00  0.00    -0.270 OA
ENDBRANCH   4   2
BRANCH   4   5
ATOM      5  C   UNL     1      -1.886   2.293  23.724  0.00  0.00    +0.059 C 
BRANCH   5   6
ATOM      6  C   UNL     1      -1.604   2.787  24.321  0.00  0.00    +0.001 A 
ATOM      7  C   UNL     1      -1.886   3.542  24.499  0.00  0.00    +0.095 A 
ATOM      8  N   UNL     1      -1.447   3.835  25.133  0.00  0.00    -0.244 NA
ATOM      9  C   UNL     1      -0.895   3.261  25.348  0.00  0.00    +0.081 A 
ATOM     10  C   UNL     1      -0.992   2.614  24.846  0.00  0.00    +0.015 A 
ATOM     11  C   UNL     1      -0.510   1.950  24.932  0.00  0.00    +0.001 A 
ATOM     12  C   UNL     1       0.069   1.933  25.519  0.00  0.00    +0.000 A 
ATOM     13  C   UNL     1       0.166   2.581  26.021  0.00  0.00    +0.002 A 
ATOM     14  C   UNL     1      -0.316   3.245  25.936  0.00  0.00    +0.019 A 
ENDBRANCH   5   6
ENDBRANCH   4   5
ENDBRANCH  15   4
TORSDOF 6
ENDMDL
MODEL 9
REMARK VINA RESULT:      -8.2     16.890     19.086
REMARK  Name = 
REMARK  6 active torsions:
REMARK  status: ('A' for Active; 'I' for Inactive)
REMARK    1  A    between atoms: C_2  and  C_4
REMARK    2  A    between atoms: C_4  and  C_5
REMARK    3  A    between atoms: C_4  and  N_15
REMARK    4  A    between atoms: C_5  and  C_6
REMARK    5  A    between atoms: C_16  and  C_18
REMARK    6  A    between atoms: C_24  and  C_26
REMARK                            x       y       z     vdW  Elec       q    Type
REMARK                         _______ _______ _______ _____ _____    ______ ____
ROOT
ATOM     15  N   UNL     1      13.549   7.289  19.211  0.00  0.00    -0.196 NA
ATOM     16  C   UNL     1      14.281   7.663  19.152  0.00  0.00    +0.261 C 
ATOM     17  O   UNL     1      14.319   8.480  19.039  0.00  0.00    -0.271 OA
ENDROOT
BRANCH  16  18
ATOM     18  C   UNL     1      14.975   7.221  19.207  0.00  0.00    +0.171 C 
ATOM     19  C   UNL     1      15.059   6.528  18.767  0.00  0.00    +0.118 C 
ATOM     20  N   UNL     1      15.755   6.086  18.821  0.00  0.00    -0.214 NA
ATOM     21  C   UNL     1      16.365   6.336  19.316  0.00  0.00    +0.110 C 
ATOM     22  C   UNL     1      16.281   7.030  19.757  0.00  0.00    +0.113 C 
ATOM     23  N   UNL     1      15.586   7.472  19.702  0.00  0.00    -0.270 N 
ATOM     24  C   UNL     1      15.502   8.164  20.143  0.00  0.00    +0.226 C 
ATOM     25  O   UNL     1      14.807   8.606  20.088  0.00  0.00    -0.275 OA
BRANCH  24  26
ATOM     26  C   UNL     1      16.113   8.414  20.637  0.00  0.00    +0.080 C 
ATOM     27  C   UNL     1      16.090   8.233  21.442  0.00  0.00    +0.028 C 
ATOM     28  C   UNL     1      16.701   8.483  21.938  0.00  0.00    +0.089 C 
ATOM     29  N   UNL     1      17.334   8.913  21.629  0.00  0.00    -0.218 NA
ATOM     30  C   UNL     1      17.356   9.094  20.824  0.00  0.00    +0.089 C 
ATOM     31  C   UNL     1      16.745   8.844  20.328  0.00  0.00    +0.028 C 
ENDBRANCH  24  26
ENDBRANCH  16  18
BRANCH  15   4
ATOM      4  C   UNL     1      12.854   7.731  19.156  0.00  0.00    +0.179 C 
BRANCH   4   2
ATOM      1  N   UNL     1      12.355   7.246  17.908  0.00  0.00    -0.086 NA
ATOM      2  C   UNL     1      12.514   7.875  18.419  0.00  0.00    +0.281 C 
ATOM      3  O   UNL     1      12.334   8.647  18.191  0.00  0.00    -0.270 OA
ENDBRANCH   4   2
BRANCH   4   5
ATOM      5  C   UNL     1      12.499   8.029  19.839  0.00  0.00    +0.059 C 
BRANCH   5   6
ATOM      6  C   UNL     1      12.012   7.545  20.296  0.00  0.00    +0.001 A 
ATOM      7  C   UNL     1      11.880   6.739  20.177  0.00  0.00    +0.095 A 
ATOM      8  N   UNL     1      11.358   6.477  20.759  0.00  0.00    -0.244 NA
ATOM      9  C   UNL     1      11.168   7.121  21.239  0.00  0.00    +0.081 A 
ATOM     10  C   UNL     1      11.572   7.780  20.952  0.00  0.00    +0.015 A 
ATOM     11  C   UNL     1      11.487   8.510  21.327  0.00  0.00    +0.001 A 
ATOM     12  C   UNL     1      10.999   8.581  21.987  0.00  0.00    +0.000 A 
ATOM     13  C   UNL     1      10.594   7.921  22.274  0.00  0.00    +0.002 A 
ATOM     14  C   UNL     1      10.679   7.191  21.900  0.00  0.00    +0.019 A 
ENDBRANCH   5   6
ENDBRANCH   4   5
ENDBRANCH  15   4
TORSDOF 6
ENDMDL
MODEL 10
REMARK VINA RESULT:      -8.1     16.661     18.947
REMARK  Name = 
REMARK  6 active torsions:
REMARK  status: ('A' for Active; 'I' for Inactive)
REMARK    1  A    between atoms: C_2  and  C_4
REMARK    2  A    between atoms: C_4  and  C_5
REMARK    3  A    between atoms: C_4  and  N_15
REMARK    4  A    between atoms: C_5  and  C_6
REMARK    5  A    between atoms: C_16  and  C_18
REMARK    6  A    between atoms: C_24  and  C_26
REMARK                            x       y       z     vdW  Elec       q    Type
REMARK                         _______ _______ _______ _____ _____    ______ ____
ROOT
ATOM     15  N   UNL     1      13.285   8.189  19.411  0.00  0.00    -0.196 NA
ATOM     16  C   UNL     1      13.942   7.699  19.496  0.00  0.00    +0.261 C 
ATOM     17  O   UNL     1      13.890   6.900  19.295  0.00  0.00    -0.271 OA
ENDROOT
BRANCH  16  18
ATOM     18  C   UNL     1      14.653   8.006  19.781  0.00  0.00    +0.171 C 
ATOM     19  C   UNL     1      14.672   8.763  20.110  0.00  0.00    +0.118 C 
ATOM     20  N   UNL     1      15.384   9.071  20.395  0.00  0.00    -0.214 NA
ATOM     21  C   UNL     1      16.074   8.622  20.350  0.00  0.00    +0.110 C 
ATOM     22  C   UNL     1      16.055   7.865  20.021  0.00  0.00    +0.113 C 
ATOM     23  N   UNL     1      15.344   7.558  19.736  0.00  0.00    -0.270 N 
ATOM     24  C   UNL     1      15.324   6.802  19.407  0.00  0.00    +0.226 C 
ATOM     25  O   UNL     1      14.614   6.494  19.122  0.00  0.00    -0.275 OA
BRANCH  24  26
ATOM     26  C   UNL     1      16.016   6.354  19.362  0.00  0.00    +0.080 C 
ATOM     27  C   UNL     1      16.364   6.066  20.053  0.00  0.00    +0.028 C 
ATOM     28  C   UNL     1      17.056   5.618  20.009  0.00  0.00    +0.089 C 
ATOM     29  N   UNL     1      17.399   5.458  19.276  0.00  0.00    -0.218 NA
ATOM     30  C   UNL     1      17.050   5.746  18.586  0.00  0.00    +0.089 C 
ATOM     31  C   UNL     1      16.358   6.194  18.629  0.00  0.00    +0.028 C 
ENDBRANCH  24  26
ENDBRANCH  16  18
BRANCH  15   4
ATOM      4  C   UNL     1      12.574   7.881  19.127  0.00  0.00    +0.179 C 
BRANCH   4   2
ATOM      1  N   UNL     1      12.155   7.279  17.901  0.00  0.00    -0.086 NA
ATOM      2  C   UNL     1      12.389   7.946  18.326  0.00  0.00    +0.281 C 
ATOM      3  O   UNL     1      12.439   8.678  17.949  0.00  0.00    -0.270 OA
ENDBRANCH   4   2
BRANCH   4   5
ATOM      5  C   UNL     1      12.048   7.510  19.643  0.00  0.00    +0.059 C 
BRANCH   5   6
ATOM      6  C   UNL     1      11.553   7.962  20.123  0.00  0.00    +0.001 A 
ATOM      7  C   UNL     1      11.364   8.758  20.013  0.00  0.00    +0.095 A 
ATOM      8  N   UNL     1      10.854   8.985  20.619  0.00  0.00    -0.244 NA
ATOM      9  C   UNL     1      10.727   8.330  21.104  0.00  0.00    +0.081 A 
ATOM     10  C   UNL     1      11.159   7.698  20.797  0.00  0.00    +0.015 A 
ATOM     11  C   UNL     1      11.137   6.963  21.173  0.00  0.00    +0.001 A 
ATOM     12  C   UNL     1      10.684   6.861  21.854  0.00  0.00    +0.000 A 
ATOM     13  C   UNL     1      10.251   7.493  22.160  0.00  0.00    +0.002 A 
ATOM     14  C   UNL     1      10.273   8.228  21.786  0.00  0.00    +0.019 A 
ENDBRANCH   5   6
ENDBRANCH   4   5
ENDBRANCH  15   4
TORSDOF 6
ENDMDL
