REMARK  Name = 
REMARK  3 active torsions:
REMARK  status: ('A' for Active; 'I' for Inactive)
REMARK    1  A    between atoms: O_2  and  C_3
REMARK    2  A    between atoms: C_6  and  C_7
REMARK    3  A    between atoms: C_8  and  C_9
REMARK                            x       y       z     vdW  Elec       q    Type
REMARK                         _______ _______ _______ _____ _____    ______ ____
ROOT
ATOM      9  C   UNL     1       0.595  -1.673   0.000  0.00  0.00    +0.000 A 
ATOM     10  C   UNL     1       0.421  -0.867   0.000  0.00  0.00    +0.001 A 
ATOM     11  C   UNL     1       1.032  -0.313   0.000  0.00  0.00    +0.017 A 
ATOM     12  C   UNL     1       1.817  -0.565   0.000  0.00  0.00    +0.078 A 
ATOM     13  N   UNL     1       2.339   0.074   0.000  0.00  0.00    -0.178 NA
ATOM     14  C   UNL     1       3.164   0.065   0.000  0.00  0.00    +0.265 C 
ATOM     15  O   UNL     1       3.530   0.804   0.000  0.00  0.00    -0.271 OA
ATOM     16  C   UNL     1       3.671  -0.586   0.000  0.00  0.00    +0.172 C 
ATOM     17  C   UNL     1       4.493  -0.521   0.000  0.00  0.00    +0.121 C 
ATOM     18  N   UNL     1       4.924   0.183   0.000  0.00  0.00    -0.131 NA
ATOM     19  C   UNL     1       4.809  -1.283   0.000  0.00  0.00    +0.043 C 
ATOM     20  C   UNL     1       4.182  -1.819   0.000  0.00  0.00    +0.096 C 
ATOM     21  N   UNL     1       3.478  -1.388   0.000  0.00  0.00    -0.268 N 
ATOM     22  C   UNL     1       2.731  -1.737   0.000  0.00  0.00    +0.251 C 
ATOM     23  O   UNL     1       2.722  -2.562   0.000  0.00  0.00    -0.270 OA
ATOM     24  C   UNL     1       1.992  -1.371   0.000  0.00  0.00    +0.069 A 
ATOM     25  C   UNL     1       1.381  -1.925   0.000  0.00  0.00    +0.006 A 
ENDROOT
BRANCH   9   8
ATOM      7  C   UNL     1      -0.801  -1.976   0.000  0.00  0.00    +0.000 C 
ATOM      8  C   UNL     1      -0.016  -2.228   0.000  0.00  0.00    +0.000 C 
BRANCH   7   6
ATOM      3  C   UNL     1      -2.634  -3.639   0.000  0.00  0.00    +0.139 A 
ATOM      4  C   UNL     1      -2.809  -2.833   0.000  0.00  0.00    +0.037 A 
ATOM      5  C   UNL     1      -2.198  -2.278   0.000  0.00  0.00    +0.003 A 
ATOM      6  C   UNL     1      -1.412  -2.530   0.000  0.00  0.00    +0.000 A 
ATOM     26  C   UNL     1      -1.238  -3.337   0.000  0.00  0.00    +0.003 A 
ATOM     27  C   UNL     1      -1.849  -3.891   0.000  0.00  0.00    +0.037 A 
BRANCH   3   2
ATOM      1  C   UNL     1      -3.071  -5.000   0.000  0.00  0.00    +0.252 C 
ATOM      2  O   UNL     1      -3.245  -4.193   0.000  0.00  0.00    -0.471 OA
ENDBRANCH   3   2
ENDBRANCH   7   6
ENDBRANCH   9   8
TORSDOF 3
