MODEL 1
REMARK VINA RESULT:     -10.9      0.000      0.000
REMARK  Name = 
REMARK  3 active torsions:
REMARK  status: ('A' for Active; 'I' for Inactive)
REMARK    1  A    between atoms: C_4  and  C_13
REMARK    2  A    between atoms: N_5  and  C_7
REMARK    3  A    between atoms: C_15  and  C_18
REMARK                            x       y       z     vdW  Elec       q    Type
REMARK                         _______ _______ _______ _____ _____    ______ ____
ROOT
ATOM      1  O   UNL     1      -5.825   3.014  25.337  0.00  0.00    -0.222 OA
ATOM      2  C   UNL     1      -5.185   2.553  25.095  0.00  0.00    +0.170 C 
ATOM      3  C   UNL     1      -5.042   1.770  25.312  0.00  0.00    +0.060 C 
ATOM      4  C   UNL     1      -4.344   1.528  24.944  0.00  0.00    +0.140 C 
ATOM      5  N   UNL     1      -4.057   2.161  24.500  0.00  0.00    -0.265 NA
ATOM      6  C   UNL     1      -4.577   2.795  24.593  0.00  0.00    +0.106 C 
ENDROOT
BRANCH   5   7
ATOM      7  C   UNL     1      -3.371   2.161  24.042  0.00  0.00    +0.063 C 
ATOM      8  C   UNL     1      -3.408   1.957  23.243  0.00  0.00    +0.048 C 
ATOM      9  C   UNL     1      -2.721   1.957  22.785  0.00  0.00    +0.144 C 
ATOM     10  O   UNL     1      -1.998   2.160  23.127  0.00  0.00    -0.354 OA
ATOM     11  C   UNL     1      -1.961   2.363  23.925  0.00  0.00    +0.144 C 
ATOM     12  C   UNL     1      -2.648   2.363  24.383  0.00  0.00    +0.048 C 
ENDBRANCH   5   7
BRANCH   4  13
ATOM     13  C   UNL     1      -3.996   0.783  25.009  0.00  0.00    +0.251 A 
ATOM     14  N   UNL     1      -4.248   0.095  24.630  0.00  0.00    -0.190 NA
ATOM     15  C   UNL     1      -3.741  -0.518  24.851  0.00  0.00    +0.205 A 
ATOM     16  N   UNL     1      -3.176  -0.209  25.367  0.00  0.00    -0.056 NA
ATOM     17  O   UNL     1      -3.334   0.596  25.464  0.00  0.00    -0.336 OA
BRANCH  15  18
ATOM     18  C   UNL     1      -3.791  -1.303  24.600  0.00  0.00    +0.058 A 
ATOM     19  C   UNL     1      -3.402  -1.896  25.022  0.00  0.00    +0.006 A 
ATOM     20  C   UNL     1      -3.451  -2.680  24.771  0.00  0.00    +0.021 A 
ATOM     21  C   UNL     1      -3.891  -2.872  24.099  0.00  0.00    +0.099 A 
ATOM     22  N   UNL     1      -4.280  -2.279  23.678  0.00  0.00    -0.242 NA
ATOM     23  C   UNL     1      -4.230  -1.494  23.929  0.00  0.00    +0.102 A 
ENDBRANCH  15  18
ENDBRANCH   4  13
TORSDOF 3
ENDMDL
MODEL 2
REMARK VINA RESULT:     -10.8      1.621      3.946
REMARK  Name = 
REMARK  3 active torsions:
REMARK  status: ('A' for Active; 'I' for Inactive)
REMARK    1  A    between atoms: C_4  and  C_13
REMARK    2  A    between atoms: N_5  and  C_7
REMARK    3  A    between atoms: C_15  and  C_18
REMARK                            x       y       z     vdW  Elec       q    Type
REMARK                         _______ _______ _______ _____ _____    ______ ____
ROOT
ATOM      1  O   UNL     1      -3.962  -3.098  24.190  0.00  0.00    -0.222 OA
ATOM      2  C   UNL     1      -3.655  -2.342  24.308  0.00  0.00    +0.170 C 
ATOM      3  C   UNL     1      -4.043  -1.632  24.147  0.00  0.00    +0.060 C 
ATOM      4  C   UNL     1      -3.534  -1.013  24.348  0.00  0.00    +0.140 C 
ATOM      5  N   UNL     1      -2.833  -1.342  24.632  0.00  0.00    -0.265 NA
ATOM      6  C   UNL     1      -2.908  -2.164  24.608  0.00  0.00    +0.106 C 
ENDROOT
BRANCH   5   7
ATOM      7  C   UNL     1      -2.173  -0.924  24.895  0.00  0.00    +0.063 C 
ATOM      8  C   UNL     1      -2.095  -0.736  25.695  0.00  0.00    +0.048 C 
ATOM      9  C   UNL     1      -1.434  -0.317  25.959  0.00  0.00    +0.144 C 
ATOM     10  O   UNL     1      -0.852  -0.086  25.422  0.00  0.00    -0.354 OA
ATOM     11  C   UNL     1      -0.930  -0.273  24.623  0.00  0.00    +0.144 C 
ATOM     12  C   UNL     1      -1.590  -0.692  24.359  0.00  0.00    +0.048 C 
ENDBRANCH   5   7
BRANCH   4  13
ATOM     13  C   UNL     1      -3.698  -0.208  24.276  0.00  0.00    +0.251 A 
ATOM     14  N   UNL     1      -4.131   0.248  24.811  0.00  0.00    -0.190 NA
ATOM     15  C   UNL     1      -4.158   1.021  24.522  0.00  0.00    +0.205 A 
ATOM     16  N   UNL     1      -3.744   1.042  23.810  0.00  0.00    -0.056 NA
ATOM     17  O   UNL     1      -3.459   0.282  23.657  0.00  0.00    -0.336 OA
BRANCH  15  18
ATOM     18  C   UNL     1      -4.535   1.660  24.883  0.00  0.00    +0.058 A 
ATOM     19  C   UNL     1      -5.344   1.627  25.040  0.00  0.00    +0.006 A 
ATOM     20  C   UNL     1      -5.721   2.266  25.401  0.00  0.00    +0.021 A 
ATOM     21  C   UNL     1      -5.288   2.939  25.605  0.00  0.00    +0.099 A 
ATOM     22  N   UNL     1      -4.479   2.972  25.447  0.00  0.00    -0.242 NA
ATOM     23  C   UNL     1      -4.102   2.332  25.086  0.00  0.00    +0.102 A 
ENDBRANCH  15  18
ENDBRANCH   4  13
TORSDOF 3
ENDMDL
MODEL 3
REMARK VINA RESULT:     -10.3      1.573      4.194
REMARK  Name = 
REMARK  3 active torsions:
REMARK  status: ('A' for Active; 'I' for Inactive)
REMARK    1  A    between atoms: C_4  and  C_13
REMARK    2  A    between atoms: N_5  and  C_7
REMARK    3  A    between atoms: C_15  and  C_18
REMARK                            x       y       z     vdW  Elec       q    Type
REMARK                         _______ _______ _______ _____ _____    ______ ____
ROOT
ATOM      1  O   UNL     1       0.053   0.220  24.355  0.00  0.00    -0.222 OA
ATOM      2  C   UNL     1      -0.764   0.137  24.434  0.00  0.00    +0.170 C 
ATOM      3  C   UNL     1      -1.328   0.715  24.266  0.00  0.00    +0.060 C 
ATOM      4  C   UNL     1      -2.073   0.397  24.423  0.00  0.00    +0.140 C 
ATOM      5  N   UNL     1      -1.969  -0.377  24.688  0.00  0.00    -0.265 NA
ATOM      6  C   UNL     1      -1.160  -0.538  24.694  0.00  0.00    +0.106 C 
ENDROOT
BRANCH   5   7
ATOM      7  C   UNL     1      -2.569  -0.899  24.907  0.00  0.00    +0.063 C 
ATOM      8  C   UNL     1      -2.810  -0.941  25.696  0.00  0.00    +0.048 C 
ATOM      9  C   UNL     1      -3.410  -1.463  25.916  0.00  0.00    +0.144 C 
ATOM     10  O   UNL     1      -3.768  -1.944  25.348  0.00  0.00    -0.354 OA
ATOM     11  C   UNL     1      -3.526  -1.902  24.561  0.00  0.00    +0.144 C 
ATOM     12  C   UNL     1      -2.926  -1.379  24.340  0.00  0.00    +0.048 C 
ENDBRANCH   5   7
BRANCH   4  13
ATOM     13  C   UNL     1      -2.795   0.786  24.331  0.00  0.00    +0.251 A 
ATOM     14  N   UNL     1      -3.149   1.289  24.881  0.00  0.00    -0.190 NA
ATOM     15  C   UNL     1      -3.863   1.553  24.562  0.00  0.00    +0.205 A 
ATOM     16  N   UNL     1      -3.951   1.214  23.816  0.00  0.00    -0.056 NA
ATOM     17  O   UNL     1      -3.291   0.739  23.672  0.00  0.00    -0.336 OA
BRANCH  15  18
ATOM     18  C   UNL     1      -4.396   2.067  24.927  0.00  0.00    +0.058 A 
ATOM     19  C   UNL     1      -5.123   1.785  25.196  0.00  0.00    +0.006 A 
ATOM     20  C   UNL     1      -5.655   2.299  25.560  0.00  0.00    +0.021 A 
ATOM     21  C   UNL     1      -5.461   3.095  25.656  0.00  0.00    +0.099 A 
ATOM     22  N   UNL     1      -4.734   3.377  25.387  0.00  0.00    -0.242 NA
ATOM     23  C   UNL     1      -4.201   2.863  25.022  0.00  0.00    +0.102 A 
ENDBRANCH  15  18
ENDBRANCH   4  13
TORSDOF 3
ENDMDL
MODEL 4
REMARK VINA RESULT:     -10.3      1.559      3.623
REMARK  Name = 
REMARK  3 active torsions:
REMARK  status: ('A' for Active; 'I' for Inactive)
REMARK    1  A    between atoms: C_4  and  C_13
REMARK    2  A    between atoms: N_5  and  C_7
REMARK    3  A    between atoms: C_15  and  C_18
REMARK                            x       y       z     vdW  Elec       q    Type
REMARK                         _______ _______ _______ _____ _____    ______ ____
ROOT
ATOM      1  O   UNL     1      -6.200   2.173  25.095  0.00  0.00    -0.222 OA
ATOM      2  C   UNL     1      -5.484   1.780  24.980  0.00  0.00    +0.170 C 
ATOM      3  C   UNL     1      -4.757   2.135  24.822  0.00  0.00    +0.060 C 
ATOM      4  C   UNL     1      -4.193   1.537  24.747  0.00  0.00    +0.140 C 
ATOM      5  N   UNL     1      -4.572   0.813  24.860  0.00  0.00    -0.265 NA
ATOM      6  C   UNL     1      -5.371   0.964  25.004  0.00  0.00    +0.106 C 
ENDROOT
BRANCH   5   7
ATOM      7  C   UNL     1      -4.216   0.070  24.833  0.00  0.00    +0.063 C 
ATOM      8  C   UNL     1      -3.924  -0.273  25.526  0.00  0.00    +0.048 C 
ATOM      9  C   UNL     1      -3.568  -1.017  25.499  0.00  0.00    +0.144 C 
ATOM     10  O   UNL     1      -3.504  -1.418  24.781  0.00  0.00    -0.354 OA
ATOM     11  C   UNL     1      -3.796  -1.076  24.090  0.00  0.00    +0.144 C 
ATOM     12  C   UNL     1      -4.152  -0.332  24.116  0.00  0.00    +0.048 C 
ENDBRANCH   5   7
BRANCH   4  13
ATOM     13  C   UNL     1      -3.391   1.644  24.588  0.00  0.00    +0.251 A 
ATOM     14  N   UNL     1      -2.808   1.838  25.140  0.00  0.00    -0.190 NA
ATOM     15  C   UNL     1      -2.087   1.890  24.741  0.00  0.00    +0.205 A 
ATOM     16  N   UNL     1      -2.224   1.729  23.944  0.00  0.00    -0.056 NA
ATOM     17  O   UNL     1      -3.030   1.577  23.849  0.00  0.00    -0.336 OA
BRANCH  15  18
ATOM     18  C   UNL     1      -1.357   2.072  25.081  0.00  0.00    +0.058 A 
ATOM     19  C   UNL     1      -1.276   2.747  25.548  0.00  0.00    +0.006 A 
ATOM     20  C   UNL     1      -0.547   2.928  25.887  0.00  0.00    +0.021 A 
ATOM     21  C   UNL     1       0.102   2.434  25.760  0.00  0.00    +0.099 A 
ATOM     22  N   UNL     1       0.021   1.759  25.294  0.00  0.00    -0.242 NA
ATOM     23  C   UNL     1      -0.709   1.577  24.954  0.00  0.00    +0.102 A 
ENDBRANCH  15  18
ENDBRANCH   4  13
TORSDOF 3
ENDMDL
MODEL 5
REMARK VINA RESULT:     -10.2      1.373      2.609
REMARK  Name = 
REMARK  3 active torsions:
REMARK  status: ('A' for Active; 'I' for Inactive)
REMARK    1  A    between atoms: C_4  and  C_13
REMARK    2  A    between atoms: N_5  and  C_7
REMARK    3  A    between atoms: C_15  and  C_18
REMARK                            x       y       z     vdW  Elec       q    Type
REMARK                         _______ _______ _______ _____ _____    ______ ____
ROOT
ATOM      1  O   UNL     1       0.570   1.888  24.283  0.00  0.00    -0.222 OA
ATOM      2  C   UNL     1      -0.238   1.733  24.348  0.00  0.00    +0.170 C 
ATOM      3  C   UNL     1      -0.575   1.031  24.620  0.00  0.00    +0.060 C 
ATOM      4  C   UNL     1      -1.396   1.116  24.593  0.00  0.00    +0.140 C 
ATOM      5  N   UNL     1      -1.564   1.871  24.305  0.00  0.00    -0.265 NA
ATOM      6  C   UNL     1      -0.848   2.252  24.154  0.00  0.00    +0.106 C 
ENDROOT
BRANCH   5   7
ATOM      7  C   UNL     1      -2.316   2.189  24.189  0.00  0.00    +0.063 C 
ATOM      8  C   UNL     1      -2.704   2.568  24.811  0.00  0.00    +0.048 C 
ATOM      9  C   UNL     1      -3.457   2.886  24.695  0.00  0.00    +0.144 C 
ATOM     10  O   UNL     1      -3.820   2.826  23.956  0.00  0.00    -0.354 OA
ATOM     11  C   UNL     1      -3.432   2.447  23.335  0.00  0.00    +0.144 C 
ATOM     12  C   UNL     1      -2.680   2.129  23.451  0.00  0.00    +0.048 C 
ENDBRANCH   5   7
BRANCH   4  13
ATOM     13  C   UNL     1      -1.950   0.547  24.816  0.00  0.00    +0.251 A 
ATOM     14  N   UNL     1      -2.210  -0.084  24.352  0.00  0.00    -0.190 NA
ATOM     15  C   UNL     1      -2.762  -0.512  24.791  0.00  0.00    +0.205 A 
ATOM     16  N   UNL     1      -2.844  -0.146  25.526  0.00  0.00    -0.056 NA
ATOM     17  O   UNL     1      -2.341   0.509  25.541  0.00  0.00    -0.336 OA
BRANCH  15  18
ATOM     18  C   UNL     1      -3.163  -1.188  24.540  0.00  0.00    +0.058 A 
ATOM     19  C   UNL     1      -3.889  -1.118  24.154  0.00  0.00    +0.006 A 
ATOM     20  C   UNL     1      -4.289  -1.793  23.903  0.00  0.00    +0.021 A 
ATOM     21  C   UNL     1      -3.964  -2.540  24.037  0.00  0.00    +0.099 A 
ATOM     22  N   UNL     1      -3.238  -2.610  24.422  0.00  0.00    -0.242 NA
ATOM     23  C   UNL     1      -2.837  -1.934  24.674  0.00  0.00    +0.102 A 
ENDBRANCH  15  18
ENDBRANCH   4  13
TORSDOF 3
ENDMDL
MODEL 6
REMARK VINA RESULT:     -10.2      1.908      3.862
REMARK  Name = 
REMARK  3 active torsions:
REMARK  status: ('A' for Active; 'I' for Inactive)
REMARK    1  A    between atoms: C_4  and  C_13
REMARK    2  A    between atoms: N_5  and  C_7
REMARK    3  A    between atoms: C_15  and  C_18
REMARK                            x       y       z     vdW  Elec       q    Type
REMARK                         _______ _______ _______ _____ _____    ______ ____
ROOT
ATOM      1  O   UNL     1      -1.195  -2.011  24.984  0.00  0.00    -0.222 OA
ATOM      2  C   UNL     1      -1.329  -1.201  24.903  0.00  0.00    +0.170 C 
ATOM      3  C   UNL     1      -2.035  -0.849  24.661  0.00  0.00    +0.060 C 
ATOM      4  C   UNL     1      -1.922  -0.031  24.658  0.00  0.00    +0.140 C 
ATOM      5  N   UNL     1      -1.147   0.121  24.897  0.00  0.00    -0.265 NA
ATOM      6  C   UNL     1      -0.781  -0.603  25.048  0.00  0.00    +0.106 C 
ENDROOT
BRANCH   5   7
ATOM      7  C   UNL     1      -0.800   0.865  24.971  0.00  0.00    +0.063 C 
ATOM      8  C   UNL     1      -0.821   1.259  25.696  0.00  0.00    +0.048 C 
ATOM      9  C   UNL     1      -0.473   2.004  25.771  0.00  0.00    +0.144 C 
ATOM     10  O   UNL     1      -0.104   2.354  25.121  0.00  0.00    -0.354 OA
ATOM     11  C   UNL     1      -0.083   1.960  24.397  0.00  0.00    +0.144 C 
ATOM     12  C   UNL     1      -0.431   1.215  24.322  0.00  0.00    +0.048 C 
ENDBRANCH   5   7
BRANCH   4  13
ATOM     13  C   UNL     1      -2.486   0.535  24.451  0.00  0.00    +0.251 A 
ATOM     14  N   UNL     1      -3.082   0.827  24.941  0.00  0.00    -0.190 NA
ATOM     15  C   UNL     1      -3.517   1.381  24.511  0.00  0.00    +0.205 A 
ATOM     16  N   UNL     1      -3.190   1.431  23.755  0.00  0.00    -0.056 NA
ATOM     17  O   UNL     1      -2.552   0.908  23.718  0.00  0.00    -0.336 OA
BRANCH  15  18
ATOM     18  C   UNL     1      -4.165   1.810  24.788  0.00  0.00    +0.058 A 
ATOM     19  C   UNL     1      -4.896   1.439  24.879  0.00  0.00    +0.006 A 
ATOM     20  C   UNL     1      -5.544   1.867  25.156  0.00  0.00    +0.021 A 
ATOM     21  C   UNL     1      -5.461   2.667  25.342  0.00  0.00    +0.099 A 
ATOM     22  N   UNL     1      -4.730   3.038  25.250  0.00  0.00    -0.242 NA
ATOM     23  C   UNL     1      -4.081   2.609  24.973  0.00  0.00    +0.102 A 
ENDBRANCH  15  18
ENDBRANCH   4  13
TORSDOF 3
ENDMDL
