MODEL 1
REMARK VINA RESULT:     -13.6      0.000      0.000
REMARK  Name = 
REMARK  3 active torsions:
REMARK  status: ('A' for Active; 'I' for Inactive)
REMARK    1  A    between atoms: C_5  and  C_8
REMARK    2  A    between atoms: C_11  and  C_13
REMARK    3  A    between atoms: C_18  and  C_20
REMARK                            x       y       z     vdW  Elec       q    Type
REMARK                         _______ _______ _______ _____ _____    ______ ____
ROOT
ATOM     13  C   UNL     1      -3.592   2.327  24.875  0.00  0.00    +0.100 C 
ATOM     14  C   UNL     1      -3.969   3.052  24.755  0.00  0.00    +0.033 C 
ATOM     15  C   UNL     1      -3.397   3.646  24.802  0.00  0.00    +0.094 C 
ATOM     16  N   UNL     1      -2.669   3.288  24.950  0.00  0.00    -0.274 N 
ATOM     17  C   UNL     1      -2.789   2.473  24.995  0.00  0.00    +0.103 C 
ATOM     18  C   UNL     1      -1.947   3.678  25.038  0.00  0.00    +0.267 C 
ATOM     19  O   UNL     1      -1.912   4.500  24.978  0.00  0.00    -0.268 OA
ENDROOT
BRANCH  18  20
ATOM     20  C   UNL     1      -1.260   3.245  25.185  0.00  0.00    +0.135 A 
ATOM     21  N   UNL     1      -0.808   2.961  24.555  0.00  0.00    -0.239 NA
ATOM     22  C   UNL     1      -0.121   2.528  24.703  0.00  0.00    +0.099 A 
ATOM     23  C   UNL     1       0.113   2.379  25.479  0.00  0.00    +0.021 A 
ATOM     24  C   UNL     1      -0.338   2.662  26.109  0.00  0.00    +0.003 A 
ATOM     25  C   UNL     1      -1.026   3.096  25.962  0.00  0.00    +0.024 A 
ENDBRANCH  18  20
BRANCH  13  11
ATOM      8  C   UNL     1      -4.150   0.268  24.797  0.00  0.00    +0.250 A 
ATOM      9  N   UNL     1      -4.878   0.625  24.948  0.00  0.00    -0.107 NA
ATOM     10  N   UNL     1      -4.758   1.440  24.995  0.00  0.00    -0.111 NA
ATOM     11  C   UNL     1      -3.956   1.587  24.874  0.00  0.00    +0.228 A 
ATOM     12  O   UNL     1      -3.580   0.862  24.751  0.00  0.00    -0.419 OA
BRANCH   8   5
ATOM      1  C   UNL     1      -3.613  -2.968  24.440  0.00  0.00    +0.031 C 
ATOM      2  C   UNL     1      -3.747  -2.159  24.529  0.00  0.00    -0.022 A 
ATOM      3  C   UNL     1      -3.527  -1.779  25.228  0.00  0.00    -0.004 A 
ATOM      4  C   UNL     1      -3.662  -0.970  25.318  0.00  0.00    +0.004 A 
ATOM      5  C   UNL     1      -4.016  -0.541  24.708  0.00  0.00    +0.055 A 
ATOM      6  C   UNL     1      -4.235  -0.921  24.010  0.00  0.00    +0.004 A 
ATOM      7  C   UNL     1      -4.101  -1.730  23.920  0.00  0.00    -0.004 A 
ENDBRANCH   8   5
ENDBRANCH  13  11
TORSDOF 3
ENDMDL
MODEL 2
REMARK VINA RESULT:     -12.8      1.006      1.210
REMARK  Name = 
REMARK  3 active torsions:
REMARK  status: ('A' for Active; 'I' for Inactive)
REMARK    1  A    between atoms: C_5  and  C_8
REMARK    2  A    between atoms: C_11  and  C_13
REMARK    3  A    between atoms: C_18  and  C_20
REMARK                            x       y       z     vdW  Elec       q    Type
REMARK                         _______ _______ _______ _____ _____    ______ ____
ROOT
ATOM     13  C   UNL     1      -3.754   2.161  24.897  0.00  0.00    +0.100 C 
ATOM     14  C   UNL     1      -4.432   2.494  25.232  0.00  0.00    +0.033 C 
ATOM     15  C   UNL     1      -4.215   3.202  25.595  0.00  0.00    +0.094 C 
ATOM     16  N   UNL     1      -3.404   3.308  25.484  0.00  0.00    -0.274 N 
ATOM     17  C   UNL     1      -3.120   2.664  25.053  0.00  0.00    +0.103 C 
ATOM     18  C   UNL     1      -2.956   3.945  25.757  0.00  0.00    +0.267 C 
ATOM     19  O   UNL     1      -3.319   4.551  26.184  0.00  0.00    -0.268 OA
ENDROOT
BRANCH  18  20
ATOM     20  C   UNL     1      -2.146   3.976  25.604  0.00  0.00    +0.135 A 
ATOM     21  N   UNL     1      -1.636   3.439  25.968  0.00  0.00    -0.239 NA
ATOM     22  C   UNL     1      -0.827   3.470  25.814  0.00  0.00    +0.099 A 
ATOM     23  C   UNL     1      -0.527   4.038  25.296  0.00  0.00    +0.021 A 
ATOM     24  C   UNL     1      -1.036   4.574  24.932  0.00  0.00    +0.003 A 
ATOM     25  C   UNL     1      -1.846   4.544  25.086  0.00  0.00    +0.024 A 
ENDBRANCH  18  20
BRANCH  13  11
ATOM      8  C   UNL     1      -3.686   0.148  24.192  0.00  0.00    +0.250 A 
ATOM      9  N   UNL     1      -3.644   0.567  23.483  0.00  0.00    -0.107 NA
ATOM     10  N   UNL     1      -3.664   1.372  23.660  0.00  0.00    -0.111 NA
ATOM     11  C   UNL     1      -3.719   1.451  24.479  0.00  0.00    +0.228 A 
ATOM     12  O   UNL     1      -3.732   0.694  24.808  0.00  0.00    -0.419 OA
BRANCH   8   5
ATOM      1  C   UNL     1      -3.670  -3.137  24.509  0.00  0.00    +0.031 C 
ATOM      2  C   UNL     1      -3.674  -2.316  24.430  0.00  0.00    -0.022 A 
ATOM      3  C   UNL     1      -3.125  -1.859  24.843  0.00  0.00    -0.004 A 
ATOM      4  C   UNL     1      -3.128  -1.037  24.763  0.00  0.00    +0.004 A 
ATOM      5  C   UNL     1      -3.682  -0.674  24.271  0.00  0.00    +0.055 A 
ATOM      6  C   UNL     1      -4.231  -1.130  23.859  0.00  0.00    +0.004 A 
ATOM      7  C   UNL     1      -4.227  -1.951  23.938  0.00  0.00    -0.004 A 
ENDBRANCH   8   5
ENDBRANCH  13  11
TORSDOF 3
ENDMDL
MODEL 3
REMARK VINA RESULT:     -12.3      1.460      2.476
REMARK  Name = 
REMARK  3 active torsions:
REMARK  status: ('A' for Active; 'I' for Inactive)
REMARK    1  A    between atoms: C_5  and  C_8
REMARK    2  A    between atoms: C_11  and  C_13
REMARK    3  A    between atoms: C_18  and  C_20
REMARK                            x       y       z     vdW  Elec       q    Type
REMARK                         _______ _______ _______ _____ _____    ______ ____
ROOT
ATOM     13  C   UNL     1      -1.010   1.430  25.311  0.00  0.00    +0.100 C 
ATOM     14  C   UNL     1      -0.244   1.704  25.173  0.00  0.00    +0.033 C 
ATOM     15  C   UNL     1      -0.277   2.525  25.094  0.00  0.00    +0.094 C 
ATOM     16  N   UNL     1      -1.063   2.758  25.184  0.00  0.00    -0.274 N 
ATOM     17  C   UNL     1      -1.516   2.082  25.318  0.00  0.00    +0.103 C 
ATOM     18  C   UNL     1      -1.346   3.533  25.146  0.00  0.00    +0.267 C 
ATOM     19  O   UNL     1      -0.824   4.156  25.008  0.00  0.00    -0.268 OA
ENDROOT
BRANCH  18  20
ATOM     20  C   UNL     1      -2.151   3.683  25.247  0.00  0.00    +0.135 A 
ATOM     21  N   UNL     1      -2.666   3.618  24.606  0.00  0.00    -0.239 NA
ATOM     22  C   UNL     1      -3.471   3.768  24.707  0.00  0.00    +0.099 A 
ATOM     23  C   UNL     1      -3.760   3.983  25.449  0.00  0.00    +0.021 A 
ATOM     24  C   UNL     1      -3.246   4.048  26.090  0.00  0.00    +0.003 A 
ATOM     25  C   UNL     1      -2.440   3.898  25.989  0.00  0.00    +0.024 A 
ENDBRANCH  18  20
BRANCH  13  11
ATOM      8  C   UNL     1      -1.858  -0.529  25.299  0.00  0.00    +0.250 A 
ATOM      9  N   UNL     1      -1.287  -0.606  25.888  0.00  0.00    -0.107 NA
ATOM     10  N   UNL     1      -0.899   0.119  25.965  0.00  0.00    -0.111 NA
ATOM     11  C   UNL     1      -1.231   0.643  25.423  0.00  0.00    +0.228 A 
ATOM     12  O   UNL     1      -1.824   0.243  25.011  0.00  0.00    -0.419 OA
BRANCH   8   5
ATOM      1  C   UNL     1      -3.918  -2.894  24.273  0.00  0.00    +0.031 C 
ATOM      2  C   UNL     1      -3.403  -2.303  24.529  0.00  0.00    -0.022 A 
ATOM      3  C   UNL     1      -3.702  -1.617  24.877  0.00  0.00    -0.004 A 
ATOM      4  C   UNL     1      -3.188  -1.025  25.134  0.00  0.00    +0.004 A 
ATOM      5  C   UNL     1      -2.373  -1.120  25.042  0.00  0.00    +0.055 A 
ATOM      6  C   UNL     1      -2.073  -1.805  24.695  0.00  0.00    +0.004 A 
ATOM      7  C   UNL     1      -2.588  -2.396  24.438  0.00  0.00    -0.004 A 
ENDBRANCH   8   5
ENDBRANCH  13  11
TORSDOF 3
ENDMDL
MODEL 4
REMARK VINA RESULT:     -11.8      1.917      5.292
REMARK  Name = 
REMARK  3 active torsions:
REMARK  status: ('A' for Active; 'I' for Inactive)
REMARK    1  A    between atoms: C_5  and  C_8
REMARK    2  A    between atoms: C_11  and  C_13
REMARK    3  A    between atoms: C_18  and  C_20
REMARK                            x       y       z     vdW  Elec       q    Type
REMARK                         _______ _______ _______ _____ _____    ______ ____
ROOT
ATOM     13  C   UNL     1      -0.752   0.557  25.012  0.00  0.00    +0.100 C 
ATOM     14  C   UNL     1      -0.140   0.108  24.689  0.00  0.00    +0.033 C 
ATOM     15  C   UNL     1      -0.453  -0.622  24.462  0.00  0.00    +0.094 C 
ATOM     16  N   UNL     1      -1.257  -0.622  24.644  0.00  0.00    -0.274 N 
ATOM     17  C   UNL     1      -1.442   0.106  24.985  0.00  0.00    +0.103 C 
ATOM     18  C   UNL     1      -1.784  -1.243  24.510  0.00  0.00    +0.267 C 
ATOM     19  O   UNL     1      -1.518  -1.942  24.163  0.00  0.00    -0.268 OA
ENDROOT
BRANCH  18  20
ATOM     20  C   UNL     1      -2.577  -1.164  24.722  0.00  0.00    +0.135 A 
ATOM     21  N   UNL     1      -3.121  -0.856  24.183  0.00  0.00    -0.239 NA
ATOM     22  C   UNL     1      -3.914  -0.777  24.395  0.00  0.00    +0.099 A 
ATOM     23  C   UNL     1      -4.164  -1.005  25.148  0.00  0.00    +0.021 A 
ATOM     24  C   UNL     1      -3.621  -1.312  25.687  0.00  0.00    +0.003 A 
ATOM     25  C   UNL     1      -2.827  -1.392  25.475  0.00  0.00    +0.024 A 
ENDBRANCH  18  20
BRANCH  13  11
ATOM      8  C   UNL     1      -0.840   2.639  25.477  0.00  0.00    +0.250 A 
ATOM      9  N   UNL     1      -0.325   2.366  26.061  0.00  0.00    -0.107 NA
ATOM     10  N   UNL     1      -0.229   1.553  25.959  0.00  0.00    -0.111 NA
ATOM     11  C   UNL     1      -0.685   1.323  25.311  0.00  0.00    +0.228 A 
ATOM     12  O   UNL     1      -1.062   1.994  25.014  0.00  0.00    -0.419 OA
BRANCH   8   5
ATOM      1  C   UNL     1      -1.834   5.759  25.070  0.00  0.00    +0.031 C 
ATOM      2  C   UNL     1      -1.585   4.979  25.171  0.00  0.00    -0.022 A 
ATOM      3  C   UNL     1      -2.075   4.436  25.556  0.00  0.00    -0.004 A 
ATOM      4  C   UNL     1      -1.826   3.656  25.657  0.00  0.00    +0.004 A 
ATOM      5  C   UNL     1      -1.088   3.419  25.375  0.00  0.00    +0.055 A 
ATOM      6  C   UNL     1      -0.599   3.961  24.992  0.00  0.00    +0.004 A 
ATOM      7  C   UNL     1      -0.847   4.741  24.890  0.00  0.00    -0.004 A 
ENDBRANCH   8   5
ENDBRANCH  13  11
TORSDOF 3
ENDMDL
