REMARK  Name = 
REMARK  8 active torsions:
REMARK  status: ('A' for Active; 'I' for Inactive)
REMARK    1  A    between atoms: O_2  and  C_3
REMARK    2  A    between atoms: C_3  and  C_4
REMARK    3  A    between atoms: N_8  and  C_9
REMARK    4  A    between atoms: C_10  and  C_11
REMARK    5  A    between atoms: C_11  and  N_12
REMARK    6  A    between atoms: N_12  and  S_13
REMARK    7  A    between atoms: S_13  and  C_16
REMARK    8  A    between atoms: C_22  and  C_23
REMARK                            x       y       z     vdW  Elec       q    Type
REMARK                         _______ _______ _______ _____ _____    ______ ____
ROOT
ATOM      9  C   UNL     1      -1.107  -2.976   0.000  0.00  0.00    +0.120 C 
ATOM     10  C   UNL     1      -1.775  -3.461   0.000  0.00  0.00    +0.152 C 
ATOM     21  O   UNL     1      -2.442  -2.976   0.000  0.00  0.00    -0.350 OA
ATOM     22  C   UNL     1      -2.187  -2.191   0.000  0.00  0.00    +0.180 C 
ATOM     25  C   UNL     1      -1.362  -2.191   0.000  0.00  0.00    +0.198 C 
ATOM     26  O   UNL     1      -0.877  -1.524   0.000  0.00  0.00    -0.219 OA
ENDROOT
BRANCH   9   8
ATOM      4  C   UNL     1       0.345  -2.746   0.000  0.00  0.00    +0.087 C 
ATOM      5  C   UNL     1       1.012  -3.231   0.000  0.00  0.00    +0.020 C 
ATOM      6  C   UNL     1       0.757  -4.016   0.000  0.00  0.00    +0.019 C 
ATOM      7  C   UNL     1      -0.068  -4.016   0.000  0.00  0.00    +0.072 C 
ATOM      8  N   UNL     1      -0.323  -3.231   0.000  0.00  0.00    -0.269 NA
BRANCH   4   3
ATOM      3  C   UNL     1       0.345  -1.921   0.000  0.00  0.00    +0.158 C 
BRANCH   3   2
ATOM      1  C   UNL     1       1.059  -0.683   0.000  0.00  0.00    +0.174 C 
ATOM      2  O   UNL     1       1.059  -1.508   0.000  0.00  0.00    -0.350 OA
ENDBRANCH   3   2
ENDBRANCH   4   3
ENDBRANCH   9   8
BRANCH  22  23
ATOM     23  C   UNL     1      -2.672  -1.524   0.000  0.00  0.00    +0.214 C 
ATOM     24  O   UNL     1      -2.337  -0.770   0.000  0.00  0.00    -0.218 OA
ENDBRANCH  22  23
BRANCH  10  11
ATOM     11  C   UNL     1      -1.775  -4.286   0.000  0.00  0.00    +0.146 C 
BRANCH  11  12
ATOM     12  N   UNL     1      -1.060  -4.698   0.000  0.00  0.00    -0.075 NA
BRANCH  12  13
ATOM     13  S   UNL     1      -1.060  -5.523   0.000  0.00  0.00    +0.083 S 
ATOM     14  O   UNL     1      -1.885  -5.523   0.000  0.00  0.00    -0.151 OA
ATOM     15  O   UNL     1      -0.235  -5.523   0.000  0.00  0.00    -0.151 OA
BRANCH  13  16
ATOM     16  C   UNL     1      -1.060  -6.348   0.000  0.00  0.00    +0.153 A 
ATOM     17  C   UNL     1      -0.393  -6.833   0.000  0.00  0.00    +0.027 A 
ATOM     18  C   UNL     1      -0.648  -7.618   0.000  0.00  0.00    +0.009 A 
ATOM     19  C   UNL     1      -1.473  -7.618   0.000  0.00  0.00    +0.037 A 
ATOM     20  S   UNL     1      -1.728  -6.833   0.000  0.00  0.00    -0.067 S 
ENDBRANCH  13  16
ENDBRANCH  12  13
ENDBRANCH  11  12
ENDBRANCH  10  11
TORSDOF 8
