MODEL 1
REMARK VINA RESULT:     -11.3      0.000      0.000
REMARK  Name = 
REMARK  6 active torsions:
REMARK  status: ('A' for Active; 'I' for Inactive)
REMARK    1  A    between atoms: O_2  and  C_3
REMARK    2  A    between atoms: C_9  and  C_10
REMARK    3  A    between atoms: C_10  and  C_11
REMARK    4  A    between atoms: C_16  and  C_17
REMARK    5  A    between atoms: C_17  and  C_18
REMARK    6  A    between atoms: C_21  and  C_23
REMARK                            x       y       z     vdW  Elec       q    Type
REMARK                         _______ _______ _______ _____ _____    ______ ____
ROOT
ATOM     11  C   UNL     1      -3.847   1.385  24.851  0.00  0.00    +0.026 C 
ATOM     12  C   UNL     1      -3.327   0.747  24.810  0.00  0.00    +0.094 C 
ATOM     13  N   UNL     1      -3.615  -0.024  24.869  0.00  0.00    -0.276 N 
ATOM     14  C   UNL     1      -4.423  -0.156  24.970  0.00  0.00    +0.094 C 
ATOM     15  C   UNL     1      -4.943   0.482  25.011  0.00  0.00    +0.022 C 
ATOM     16  C   UNL     1      -4.656   1.253  24.951  0.00  0.00    +0.015 C 
ATOM     21  C   UNL     1      -3.094  -0.663  24.829  0.00  0.00    +0.253 C 
ATOM     22  O   UNL     1      -2.286  -0.530  24.728  0.00  0.00    -0.270 OA
ENDROOT
BRANCH  21  23
ATOM     23  C   UNL     1      -3.381  -1.433  24.888  0.00  0.00    +0.103 A 
ATOM     24  C   UNL     1      -3.419  -1.886  25.578  0.00  0.00    +0.159 A 
ATOM     25  C   UNL     1      -3.176  -1.646  26.328  0.00  0.00    +0.076 C 
ATOM     26  O   UNL     1      -3.743  -2.620  25.385  0.00  0.00    -0.358 OA
ATOM     27  N   UNL     1      -3.905  -2.621  24.576  0.00  0.00    -0.082 NA
ATOM     28  C   UNL     1      -3.682  -1.889  24.269  0.00  0.00    +0.105 A 
ATOM     29  C   UNL     1      -3.748  -1.653  23.481  0.00  0.00    +0.056 C 
ENDBRANCH  21  23
BRANCH  11  10
ATOM     10  C   UNL     1      -3.560   2.156  24.791  0.00  0.00    +0.047 C 
BRANCH  10   9
ATOM      3  C   UNL     1      -1.176   3.935  24.861  0.00  0.00    +0.138 A 
ATOM      4  C   UNL     1      -1.176   3.580  24.116  0.00  0.00    +0.033 A 
ATOM      5  C   UNL     1      -1.771   3.046  23.912  0.00  0.00    -0.016 A 
ATOM      6  C   UNL     1      -2.369   2.867  24.454  0.00  0.00    +0.009 A 
ATOM      7  C   UNL     1      -2.369   3.223  25.198  0.00  0.00    +0.004 A 
ATOM      8  C   UNL     1      -1.774   3.757  25.403  0.00  0.00    +0.037 A 
ATOM      9  C   UNL     1      -2.963   2.334  24.250  0.00  0.00    +0.053 C 
ATOM     30  N   UNL     1      -2.962   1.979  23.506  0.00  0.00    -0.274 NA
ATOM     31  C   UNL     1      -2.365   2.158  22.965  0.00  0.00    +0.130 C 
ATOM     32  C   UNL     1      -1.770   2.691  23.168  0.00  0.00    +0.053 C 
BRANCH   3   2
ATOM      1  C   UNL     1      -0.714   5.279  24.999  0.00  0.00    +0.252 C 
ATOM      2  O   UNL     1      -0.582   4.468  25.065  0.00  0.00    -0.471 OA
ENDBRANCH   3   2
ENDBRANCH  10   9
ENDBRANCH  11  10
BRANCH  16  17
ATOM     17  C   UNL     1      -5.177   1.892  24.992  0.00  0.00    +0.114 C 
BRANCH  17  18
ATOM     18  C   UNL     1      -5.939   1.783  25.286  0.00  0.00    +0.365 C 
ATOM     19  O   UNL     1      -6.563   1.626  24.769  0.00  0.00    -0.246 OA
ATOM     20  O   UNL     1      -6.079   1.833  26.098  0.00  0.00    -0.246 OA
ENDBRANCH  17  18
ENDBRANCH  16  17
TORSDOF 6
ENDMDL
MODEL 2
REMARK VINA RESULT:     -10.8      1.186      4.748
REMARK  Name = 
REMARK  6 active torsions:
REMARK  status: ('A' for Active; 'I' for Inactive)
REMARK    1  A    between atoms: O_2  and  C_3
REMARK    2  A    between atoms: C_9  and  C_10
REMARK    3  A    between atoms: C_10  and  C_11
REMARK    4  A    between atoms: C_16  and  C_17
REMARK    5  A    between atoms: C_17  and  C_18
REMARK    6  A    between atoms: C_21  and  C_23
REMARK                            x       y       z     vdW  Elec       q    Type
REMARK                         _______ _______ _______ _____ _____    ______ ____
ROOT
ATOM     11  C   UNL     1      -3.555   1.089  24.839  0.00  0.00    +0.026 C 
ATOM     12  C   UNL     1      -2.739   1.127  24.738  0.00  0.00    +0.094 C 
ATOM     13  N   UNL     1      -2.345   1.848  24.824  0.00  0.00    -0.276 N 
ATOM     14  C   UNL     1      -2.770   2.529  25.012  0.00  0.00    +0.094 C 
ATOM     15  C   UNL     1      -3.587   2.491  25.113  0.00  0.00    +0.022 C 
ATOM     16  C   UNL     1      -3.981   1.771  25.027  0.00  0.00    +0.015 C 
ATOM     21  C   UNL     1      -1.527   1.886  24.723  0.00  0.00    +0.253 C 
ATOM     22  O   UNL     1      -1.103   1.204  24.535  0.00  0.00    -0.270 OA
ENDROOT
BRANCH  21  23
ATOM     23  C   UNL     1      -1.134   2.606  24.810  0.00  0.00    +0.103 A 
ATOM     24  C   UNL     1      -0.797   2.894  25.506  0.00  0.00    +0.159 A 
ATOM     25  C   UNL     1      -0.794   2.512  26.237  0.00  0.00    +0.076 C 
ATOM     26  O   UNL     1      -0.464   3.631  25.342  0.00  0.00    -0.358 OA
ATOM     27  N   UNL     1      -0.595   3.798  24.545  0.00  0.00    -0.082 NA
ATOM     28  C   UNL     1      -1.009   3.165  24.216  0.00  0.00    +0.105 A 
ATOM     29  C   UNL     1      -1.255   3.102  23.431  0.00  0.00    +0.056 C 
ENDBRANCH  21  23
BRANCH  11  10
ATOM     10  C   UNL     1      -3.949   0.369  24.752  0.00  0.00    +0.047 C 
BRANCH  10   9
ATOM      3  C   UNL     1      -3.862  -2.534  24.106  0.00  0.00    +0.138 A 
ATOM      4  C   UNL     1      -3.534  -2.457  24.860  0.00  0.00    +0.033 A 
ATOM      5  C   UNL     1      -3.474  -1.712  25.210  0.00  0.00    -0.016 A 
ATOM      6  C   UNL     1      -3.742  -1.043  24.806  0.00  0.00    +0.009 A 
ATOM      7  C   UNL     1      -4.069  -1.120  24.053  0.00  0.00    +0.004 A 
ATOM      8  C   UNL     1      -4.129  -1.865  23.702  0.00  0.00    +0.037 A 
ATOM      9  C   UNL     1      -3.682  -0.299  25.156  0.00  0.00    +0.053 C 
ATOM     30  N   UNL     1      -3.355  -0.222  25.909  0.00  0.00    -0.274 NA
ATOM     31  C   UNL     1      -3.087  -0.891  26.313  0.00  0.00    +0.130 C 
ATOM     32  C   UNL     1      -3.147  -1.635  25.963  0.00  0.00    +0.053 C 
BRANCH   3   2
ATOM      1  C   UNL     1      -4.610  -3.491  23.355  0.00  0.00    +0.252 C 
ATOM      2  O   UNL     1      -3.922  -3.278  23.756  0.00  0.00    -0.471 OA
ENDBRANCH   3   2
ENDBRANCH  10   9
ENDBRANCH  11  10
BRANCH  16  17
ATOM     17  C   UNL     1      -4.799   1.733  25.128  0.00  0.00    +0.114 C 
BRANCH  17  18
ATOM     18  C   UNL     1      -5.229   2.422  25.265  0.00  0.00    +0.365 C 
ATOM     19  O   UNL     1      -5.408   2.651  26.037  0.00  0.00    -0.246 OA
ATOM     20  O   UNL     1      -5.483   2.884  24.629  0.00  0.00    -0.246 OA
ENDBRANCH  17  18
ENDBRANCH  16  17
TORSDOF 6
ENDMDL
MODEL 3
REMARK VINA RESULT:     -10.8      1.525      2.766
REMARK  Name = 
REMARK  6 active torsions:
REMARK  status: ('A' for Active; 'I' for Inactive)
REMARK    1  A    between atoms: O_2  and  C_3
REMARK    2  A    between atoms: C_9  and  C_10
REMARK    3  A    between atoms: C_10  and  C_11
REMARK    4  A    between atoms: C_16  and  C_17
REMARK    5  A    between atoms: C_17  and  C_18
REMARK    6  A    between atoms: C_21  and  C_23
REMARK                            x       y       z     vdW  Elec       q    Type
REMARK                         _______ _______ _______ _____ _____    ______ ____
ROOT
ATOM     11  C   UNL     1      -1.767   0.495  24.668  0.00  0.00    +0.026 C 
ATOM     12  C   UNL     1      -2.496   0.184  24.894  0.00  0.00    +0.094 C 
ATOM     13  N   UNL     1      -2.650  -0.621  24.797  0.00  0.00    -0.276 N 
ATOM     14  C   UNL     1      -2.073  -1.114  24.474  0.00  0.00    +0.094 C 
ATOM     15  C   UNL     1      -1.344  -0.804  24.247  0.00  0.00    +0.022 C 
ATOM     16  C   UNL     1      -1.190   0.001  24.344  0.00  0.00    +0.015 C 
ATOM     21  C   UNL     1      -3.380  -0.932  25.024  0.00  0.00    +0.253 C 
ATOM     22  O   UNL     1      -3.956  -0.438  25.347  0.00  0.00    -0.270 OA
ENDROOT
BRANCH  21  23
ATOM     23  C   UNL     1      -3.533  -1.736  24.927  0.00  0.00    +0.103 A 
ATOM     24  C   UNL     1      -3.364  -2.332  25.473  0.00  0.00    +0.159 A 
ATOM     25  C   UNL     1      -3.012  -2.226  26.212  0.00  0.00    +0.076 C 
ATOM     26  O   UNL     1      -3.608  -3.051  25.151  0.00  0.00    -0.358 OA
ATOM     27  N   UNL     1      -3.928  -2.900  24.406  0.00  0.00    -0.082 NA
ATOM     28  C   UNL     1      -3.882  -2.088  24.268  0.00  0.00    +0.105 A 
ATOM     29  C   UNL     1      -4.139  -1.697  23.588  0.00  0.00    +0.056 C 
ENDBRANCH  21  23
BRANCH  11  10
ATOM     10  C   UNL     1      -1.613   1.300  24.764  0.00  0.00    +0.047 C 
BRANCH  10   9
ATOM      3  C   UNL     1      -2.108   4.184  25.302  0.00  0.00    +0.138 A 
ATOM      4  C   UNL     1      -2.633   3.969  24.703  0.00  0.00    +0.033 A 
ATOM      5  C   UNL     1      -2.641   3.195  24.418  0.00  0.00    -0.016 A 
ATOM      6  C   UNL     1      -2.123   2.634  24.733  0.00  0.00    +0.009 A 
ATOM      7  C   UNL     1      -1.599   2.849  25.333  0.00  0.00    +0.004 A 
ATOM      8  C   UNL     1      -1.591   3.623  25.618  0.00  0.00    +0.037 A 
ATOM      9  C   UNL     1      -2.131   1.860  24.449  0.00  0.00    +0.053 C 
ATOM     30  N   UNL     1      -2.655   1.646  23.850  0.00  0.00    -0.274 NA
ATOM     31  C   UNL     1      -3.173   2.207  23.534  0.00  0.00    +0.130 C 
ATOM     32  C   UNL     1      -3.165   2.980  23.819  0.00  0.00    +0.053 C 
BRANCH   3   2
ATOM      1  C   UNL     1      -1.609   5.520  25.239  0.00  0.00    +0.252 C 
ATOM      2  O   UNL     1      -2.101   4.958  25.587  0.00  0.00    -0.471 OA
ENDBRANCH   3   2
ENDBRANCH  10   9
ENDBRANCH  11  10
BRANCH  16  17
ATOM     17  C   UNL     1      -0.461   0.312  24.117  0.00  0.00    +0.114 C 
BRANCH  17  18
ATOM     18  C   UNL     1       0.109  -0.178  23.779  0.00  0.00    +0.365 C 
ATOM     19  O   UNL     1       0.523  -0.716  24.248  0.00  0.00    -0.246 OA
ATOM     20  O   UNL     1       0.265  -0.132  22.969  0.00  0.00    -0.246 OA
ENDBRANCH  17  18
ENDBRANCH  16  17
TORSDOF 6
ENDMDL
MODEL 4
REMARK VINA RESULT:     -10.3      1.943      3.284
REMARK  Name = 
REMARK  6 active torsions:
REMARK  status: ('A' for Active; 'I' for Inactive)
REMARK    1  A    between atoms: O_2  and  C_3
REMARK    2  A    between atoms: C_9  and  C_10
REMARK    3  A    between atoms: C_10  and  C_11
REMARK    4  A    between atoms: C_16  and  C_17
REMARK    5  A    between atoms: C_17  and  C_18
REMARK    6  A    between atoms: C_21  and  C_23
REMARK                            x       y       z     vdW  Elec       q    Type
REMARK                         _______ _______ _______ _____ _____    ______ ____
ROOT
ATOM     11  C   UNL     1      -3.498  -0.150  24.564  0.00  0.00    +0.026 C 
ATOM     12  C   UNL     1      -2.753   0.119  24.792  0.00  0.00    +0.094 C 
ATOM     13  N   UNL     1      -2.096  -0.376  24.722  0.00  0.00    -0.276 N 
ATOM     14  C   UNL     1      -2.185  -1.140  24.423  0.00  0.00    +0.094 C 
ATOM     15  C   UNL     1      -2.930  -1.408  24.195  0.00  0.00    +0.022 C 
ATOM     16  C   UNL     1      -3.587  -0.914  24.264  0.00  0.00    +0.015 C 
ATOM     21  C   UNL     1      -1.350  -0.107  24.951  0.00  0.00    +0.253 C 
ATOM     22  O   UNL     1      -1.262   0.657  25.250  0.00  0.00    -0.270 OA
ENDROOT
BRANCH  21  23
ATOM     23  C   UNL     1      -0.694  -0.602  24.881  0.00  0.00    +0.103 A 
ATOM     24  C   UNL     1      -0.465  -1.183  25.420  0.00  0.00    +0.159 A 
ATOM     25  C   UNL     1      -0.852  -1.372  26.123  0.00  0.00    +0.076 C 
ATOM     26  O   UNL     1       0.219  -1.544  25.132  0.00  0.00    -0.358 OA
ATOM     27  N   UNL     1       0.413  -1.184  24.415  0.00  0.00    -0.082 NA
ATOM     28  C   UNL     1      -0.151  -0.603  24.260  0.00  0.00    +0.105 A 
ATOM     29  C   UNL     1      -0.169  -0.109  23.599  0.00  0.00    +0.056 C 
ENDBRANCH  21  23
BRANCH  11  10
ATOM     10  C   UNL     1      -4.154   0.344  24.633  0.00  0.00    +0.047 C 
BRANCH  10   9
ATOM      3  C   UNL     1      -5.455   2.894  25.445  0.00  0.00    +0.138 A 
ATOM      4  C   UNL     1      -4.976   3.077  24.799  0.00  0.00    +0.033 A 
ATOM      5  C   UNL     1      -4.531   2.485  24.433  0.00  0.00    -0.016 A 
ATOM      6  C   UNL     1      -4.565   1.710  24.716  0.00  0.00    +0.009 A 
ATOM      7  C   UNL     1      -5.044   1.527  25.362  0.00  0.00    +0.004 A 
ATOM      8  C   UNL     1      -5.489   2.119  25.727  0.00  0.00    +0.037 A 
ATOM      9  C   UNL     1      -4.120   1.119  24.351  0.00  0.00    +0.053 C 
ATOM     30  N   UNL     1      -3.642   1.302  23.705  0.00  0.00    -0.274 NA
ATOM     31  C   UNL     1      -3.608   2.077  23.423  0.00  0.00    +0.130 C 
ATOM     32  C   UNL     1      -4.052   2.668  23.788  0.00  0.00    +0.053 C 
BRANCH   3   2
ATOM      1  C   UNL     1      -5.705   4.278  25.694  0.00  0.00    +0.252 C 
ATOM      2  O   UNL     1      -5.899   3.485  25.810  0.00  0.00    -0.471 OA
ENDBRANCH   3   2
ENDBRANCH  10   9
ENDBRANCH  11  10
BRANCH  16  17
ATOM     17  C   UNL     1      -4.332  -1.183  24.036  0.00  0.00    +0.114 C 
BRANCH  17  18
ATOM     18  C   UNL     1      -4.443  -1.978  23.845  0.00  0.00    +0.365 C 
ATOM     19  O   UNL     1      -4.507  -2.208  23.055  0.00  0.00    -0.246 OA
ATOM     20  O   UNL     1      -4.490  -2.544  24.444  0.00  0.00    -0.246 OA
ENDBRANCH  17  18
ENDBRANCH  16  17
TORSDOF 6
ENDMDL
MODEL 5
REMARK VINA RESULT:     -10.2      1.638      5.123
REMARK  Name = 
REMARK  6 active torsions:
REMARK  status: ('A' for Active; 'I' for Inactive)
REMARK    1  A    between atoms: O_2  and  C_3
REMARK    2  A    between atoms: C_9  and  C_10
REMARK    3  A    between atoms: C_10  and  C_11
REMARK    4  A    between atoms: C_16  and  C_17
REMARK    5  A    between atoms: C_17  and  C_18
REMARK    6  A    between atoms: C_21  and  C_23
REMARK                            x       y       z     vdW  Elec       q    Type
REMARK                         _______ _______ _______ _____ _____    ______ ____
ROOT
ATOM     11  C   UNL     1      -2.550   1.609  23.881  0.00  0.00    +0.026 C 
ATOM     12  C   UNL     1      -2.257   1.944  24.575  0.00  0.00    +0.094 C 
ATOM     13  N   UNL     1      -2.045   2.742  24.591  0.00  0.00    -0.276 N 
ATOM     14  C   UNL     1      -2.125   3.203  23.912  0.00  0.00    +0.094 C 
ATOM     15  C   UNL     1      -2.418   2.869  23.218  0.00  0.00    +0.022 C 
ATOM     16  C   UNL     1      -2.631   2.072  23.202  0.00  0.00    +0.015 C 
ATOM     21  C   UNL     1      -1.751   3.077  25.286  0.00  0.00    +0.253 C 
ATOM     22  O   UNL     1      -1.671   2.614  25.964  0.00  0.00    -0.270 OA
ENDROOT
BRANCH  21  23
ATOM     23  C   UNL     1      -1.539   3.873  25.302  0.00  0.00    +0.103 A 
ATOM     24  C   UNL     1      -2.024   4.500  25.532  0.00  0.00    +0.159 A 
ATOM     25  C   UNL     1      -2.806   4.440  25.786  0.00  0.00    +0.076 C 
ATOM     26  O   UNL     1      -1.590   5.198  25.462  0.00  0.00    -0.358 OA
ATOM     27  N   UNL     1      -0.836   5.002  25.190  0.00  0.00    -0.082 NA
ATOM     28  C   UNL     1      -0.805   4.184  25.090  0.00  0.00    +0.105 A 
ATOM     29  C   UNL     1      -0.153   3.752  24.826  0.00  0.00    +0.056 C 
ENDBRANCH  21  23
BRANCH  11  10
ATOM     10  C   UNL     1      -2.763   0.813  23.865  0.00  0.00    +0.047 C 
BRANCH  10   9
ATOM      3  C   UNL     1      -3.366  -1.848  25.053  0.00  0.00    +0.138 A 
ATOM      4  C   UNL     1      -3.950  -1.335  25.329  0.00  0.00    +0.033 A 
ATOM      5  C   UNL     1      -3.946  -0.542  25.102  0.00  0.00    -0.016 A 
ATOM      6  C   UNL     1      -3.356  -0.261  24.596  0.00  0.00    +0.009 A 
ATOM      7  C   UNL     1      -2.772  -0.773  24.320  0.00  0.00    +0.004 A 
ATOM      8  C   UNL     1      -2.776  -1.567  24.548  0.00  0.00    +0.037 A 
ATOM      9  C   UNL     1      -3.352   0.532  24.369  0.00  0.00    +0.053 C 
ATOM     30  N   UNL     1      -3.936   1.044  24.645  0.00  0.00    -0.274 NA
ATOM     31  C   UNL     1      -4.526   0.762  25.150  0.00  0.00    +0.130 C 
ATOM     32  C   UNL     1      -4.531  -0.030  25.378  0.00  0.00    +0.053 C 
BRANCH   3   2
ATOM      1  C   UNL     1      -3.300  -3.233  24.712  0.00  0.00    +0.252 C 
ATOM      2  O   UNL     1      -3.370  -2.640  25.280  0.00  0.00    -0.471 OA
ENDBRANCH   3   2
ENDBRANCH  10   9
ENDBRANCH  11  10
BRANCH  16  17
ATOM     17  C   UNL     1      -2.924   1.737  22.507  0.00  0.00    +0.114 C 
BRANCH  17  18
ATOM     18  C   UNL     1      -2.825   2.127  21.788  0.00  0.00    +0.365 C 
ATOM     19  O   UNL     1      -2.217   1.904  21.277  0.00  0.00    -0.246 OA
ATOM     20  O   UNL     1      -3.335   2.742  21.579  0.00  0.00    -0.246 OA
ENDBRANCH  17  18
ENDBRANCH  16  17
TORSDOF 6
ENDMDL
MODEL 6
REMARK VINA RESULT:      -9.9      1.748      4.903
REMARK  Name = 
REMARK  6 active torsions:
REMARK  status: ('A' for Active; 'I' for Inactive)
REMARK    1  A    between atoms: O_2  and  C_3
REMARK    2  A    between atoms: C_9  and  C_10
REMARK    3  A    between atoms: C_10  and  C_11
REMARK    4  A    between atoms: C_16  and  C_17
REMARK    5  A    between atoms: C_17  and  C_18
REMARK    6  A    between atoms: C_21  and  C_23
REMARK                            x       y       z     vdW  Elec       q    Type
REMARK                         _______ _______ _______ _____ _____    ______ ____
ROOT
ATOM     11  C   UNL     1      -3.444   1.125  23.970  0.00  0.00    +0.026 C 
ATOM     12  C   UNL     1      -3.919   1.281  24.625  0.00  0.00    +0.094 C 
ATOM     13  N   UNL     1      -4.184   2.049  24.771  0.00  0.00    -0.276 N 
ATOM     14  C   UNL     1      -3.971   2.661  24.260  0.00  0.00    +0.094 C 
ATOM     15  C   UNL     1      -3.496   2.506  23.605  0.00  0.00    +0.022 C 
ATOM     16  C   UNL     1      -3.232   1.738  23.459  0.00  0.00    +0.015 C 
ATOM     21  C   UNL     1      -4.660   2.205  25.426  0.00  0.00    +0.253 C 
ATOM     22  O   UNL     1      -4.871   1.592  25.937  0.00  0.00    -0.270 OA
ENDROOT
BRANCH  21  23
ATOM     23  C   UNL     1      -4.923   2.973  25.571  0.00  0.00    +0.103 A 
ATOM     24  C   UNL     1      -4.484   3.580  25.917  0.00  0.00    +0.159 A 
ATOM     25  C   UNL     1      -3.704   3.525  26.180  0.00  0.00    +0.076 C 
ATOM     26  O   UNL     1      -4.962   4.252  25.956  0.00  0.00    -0.358 OA
ATOM     27  N   UNL     1      -5.696   4.060  25.633  0.00  0.00    -0.082 NA
ATOM     28  C   UNL     1      -5.673   3.270  25.395  0.00  0.00    +0.105 A 
ATOM     29  C   UNL     1      -6.290   2.851  25.043  0.00  0.00    +0.056 C 
ENDBRANCH  21  23
BRANCH  11  10
ATOM     10  C   UNL     1      -3.180   0.358  23.825  0.00  0.00    +0.047 C 
BRANCH  10   9
ATOM      3  C   UNL     1      -3.417  -2.466  24.732  0.00  0.00    +0.138 A 
ATOM      4  C   UNL     1      -2.871  -2.108  25.236  0.00  0.00    +0.033 A 
ATOM      5  C   UNL     1      -2.674  -1.313  25.136  0.00  0.00    -0.016 A 
ATOM      6  C   UNL     1      -3.025  -0.875  24.530  0.00  0.00    +0.009 A 
ATOM      7  C   UNL     1      -3.571  -1.233  24.026  0.00  0.00    +0.004 A 
ATOM      8  C   UNL     1      -3.768  -2.028  24.126  0.00  0.00    +0.037 A 
ATOM      9  C   UNL     1      -2.829  -0.080  24.430  0.00  0.00    +0.053 C 
ATOM     30  N   UNL     1      -2.284   0.277  24.934  0.00  0.00    -0.274 NA
ATOM     31  C   UNL     1      -1.933  -0.162  25.540  0.00  0.00    +0.130 C 
ATOM     32  C   UNL     1      -2.129  -0.956  25.640  0.00  0.00    +0.053 C 
BRANCH   3   2
ATOM      1  C   UNL     1      -3.934  -3.689  24.205  0.00  0.00    +0.252 C 
ATOM      2  O   UNL     1      -3.613  -3.261  24.832  0.00  0.00    -0.471 OA
ENDBRANCH   3   2
ENDBRANCH  10   9
ENDBRANCH  11  10
BRANCH  16  17
ATOM     17  C   UNL     1      -2.756   1.582  22.804  0.00  0.00    +0.114 C 
BRANCH  17  18
ATOM     18  C   UNL     1      -2.458   2.205  22.353  0.00  0.00    +0.365 C 
ATOM     19  O   UNL     1      -1.795   2.623  22.613  0.00  0.00    -0.246 OA
ATOM     20  O   UNL     1      -2.823   2.412  21.642  0.00  0.00    -0.246 OA
ENDBRANCH  17  18
ENDBRANCH  16  17
TORSDOF 6
ENDMDL
MODEL 7
REMARK VINA RESULT:      -9.9      1.698      5.250
REMARK  Name = 
REMARK  6 active torsions:
REMARK  status: ('A' for Active; 'I' for Inactive)
REMARK    1  A    between atoms: O_2  and  C_3
REMARK    2  A    between atoms: C_9  and  C_10
REMARK    3  A    between atoms: C_10  and  C_11
REMARK    4  A    between atoms: C_16  and  C_17
REMARK    5  A    between atoms: C_17  and  C_18
REMARK    6  A    between atoms: C_21  and  C_23
REMARK                            x       y       z     vdW  Elec       q    Type
REMARK                         _______ _______ _______ _____ _____    ______ ____
ROOT
ATOM     11  C   UNL     1      -2.130   0.729  24.724  0.00  0.00    +0.026 C 
ATOM     12  C   UNL     1      -2.899   1.012  24.637  0.00  0.00    +0.094 C 
ATOM     13  N   UNL     1      -3.041   1.825  24.625  0.00  0.00    -0.276 N 
ATOM     14  C   UNL     1      -2.413   2.354  24.700  0.00  0.00    +0.094 C 
ATOM     15  C   UNL     1      -1.643   2.071  24.787  0.00  0.00    +0.022 C 
ATOM     16  C   UNL     1      -1.501   1.259  24.799  0.00  0.00    +0.015 C 
ATOM     21  C   UNL     1      -3.811   2.108  24.538  0.00  0.00    +0.253 C 
ATOM     22  O   UNL     1      -4.439   1.578  24.463  0.00  0.00    -0.270 OA
ENDROOT
BRANCH  21  23
ATOM     23  C   UNL     1      -3.953   2.920  24.526  0.00  0.00    +0.103 A 
ATOM     24  C   UNL     1      -3.931   3.407  23.860  0.00  0.00    +0.159 A 
ATOM     25  C   UNL     1      -3.764   3.166  23.089  0.00  0.00    +0.076 C 
ATOM     26  O   UNL     1      -4.106   4.177  24.100  0.00  0.00    -0.358 OA
ATOM     27  N   UNL     1      -4.235   4.166  24.914  0.00  0.00    -0.082 NA
ATOM     28  C   UNL     1      -4.141   3.390  25.178  0.00  0.00    +0.105 A 
ATOM     29  C   UNL     1      -4.221   3.129  25.957  0.00  0.00    +0.056 C 
ENDBRANCH  21  23
BRANCH  11  10
ATOM     10  C   UNL     1      -1.988  -0.083  24.736  0.00  0.00    +0.047 C 
BRANCH  10   9
ATOM      3  C   UNL     1      -3.500  -2.625  24.413  0.00  0.00    +0.138 A 
ATOM      4  C   UNL     1      -3.556  -2.425  25.212  0.00  0.00    +0.033 A 
ATOM      5  C   UNL     1      -3.192  -1.739  25.493  0.00  0.00    -0.016 A 
ATOM      6  C   UNL     1      -2.771  -1.253  24.974  0.00  0.00    +0.009 A 
ATOM      7  C   UNL     1      -2.715  -1.454  24.175  0.00  0.00    +0.004 A 
ATOM      8  C   UNL     1      -3.079  -2.139  23.894  0.00  0.00    +0.037 A 
ATOM      9  C   UNL     1      -2.408  -0.569  25.254  0.00  0.00    +0.053 C 
ATOM     30  N   UNL     1      -2.464  -0.369  26.052  0.00  0.00    -0.274 NA
ATOM     31  C   UNL     1      -2.885  -0.855  26.571  0.00  0.00    +0.130 C 
ATOM     32  C   UNL     1      -3.248  -1.540  26.290  0.00  0.00    +0.053 C 
BRANCH   3   2
ATOM      1  C   UNL     1      -4.349  -3.277  23.468  0.00  0.00    +0.252 C 
ATOM      2  O   UNL     1      -3.863  -3.310  24.133  0.00  0.00    -0.471 OA
ENDBRANCH   3   2
ENDBRANCH  10   9
ENDBRANCH  11  10
BRANCH  16  17
ATOM     17  C   UNL     1      -0.731   0.976  24.886  0.00  0.00    +0.114 C 
BRANCH  17  18
ATOM     18  C   UNL     1      -0.093   1.495  24.836  0.00  0.00    +0.365 C 
ATOM     19  O   UNL     1       0.158   1.907  25.505  0.00  0.00    -0.246 OA
ATOM     20  O   UNL     1       0.296   1.603  24.115  0.00  0.00    -0.246 OA
ENDBRANCH  17  18
ENDBRANCH  16  17
TORSDOF 6
ENDMDL
