REMARK  Name = 
REMARK  6 active torsions:
REMARK  status: ('A' for Active; 'I' for Inactive)
REMARK    1  A    between atoms: O_2  and  C_3
REMARK    2  A    between atoms: C_6  and  C_9
REMARK    3  A    between atoms: C_12  and  C_14
REMARK    4  A    between atoms: C_19  and  C_21
REMARK    5  A    between atoms: C_24  and  O_25
REMARK    6  A    between atoms: C_27  and  O_28
REMARK                            x       y       z     vdW  Elec       q    Type
REMARK                         _______ _______ _______ _____ _____    ______ ____
ROOT
ATOM     14  C   UNL     1       3.356  -3.003   0.000  0.00  0.00    +0.100 C 
ATOM     15  C   UNL     1       3.611  -3.788   0.000  0.00  0.00    +0.033 C 
ATOM     16  C   UNL     1       2.943  -4.273   0.000  0.00  0.00    +0.094 C 
ATOM     17  N   UNL     1       2.276  -3.788   0.000  0.00  0.00    -0.276 N 
ATOM     18  C   UNL     1       2.531  -3.003   0.000  0.00  0.00    +0.103 C 
ATOM     19  C   UNL     1       1.491  -4.043   0.000  0.00  0.00    +0.249 C 
ATOM     20  O   UNL     1       1.320  -4.850   0.000  0.00  0.00    -0.270 OA
ENDROOT
BRANCH  19  21
ATOM     21  C   UNL     1       0.878  -3.491   0.000  0.00  0.00    +0.057 A 
ATOM     22  C   UNL     1       0.093  -3.746   0.000  0.00  0.00    +0.008 A 
ATOM     23  C   UNL     1      -0.520  -3.194   0.000  0.00  0.00    +0.040 A 
ATOM     24  C   UNL     1      -0.348  -2.387   0.000  0.00  0.00    +0.172 A 
ATOM     27  C   UNL     1       0.436  -2.132   0.000  0.00  0.00    +0.173 A 
ATOM     30  C   UNL     1       1.050  -2.684   0.000  0.00  0.00    +0.045 A 
BRANCH  24  25
ATOM     25  O   UNL     1      -0.961  -1.835   0.000  0.00  0.00    -0.468 OA
ATOM     26  C   UNL     1      -1.746  -2.090   0.000  0.00  0.00    +0.253 C 
ENDBRANCH  24  25
BRANCH  27  28
ATOM     28  O   UNL     1       0.608  -1.325   0.000  0.00  0.00    -0.468 OA
ATOM     29  C   UNL     1       1.393  -1.070   0.000  0.00  0.00    +0.253 C 
ENDBRANCH  27  28
ENDBRANCH  19  21
BRANCH  14  12
ATOM      9  C   UNL     1       4.253  -1.066   0.000  0.00  0.00    +0.250 A 
ATOM     10  N   UNL     1       4.920  -1.551   0.000  0.00  0.00    -0.107 NA
ATOM     11  N   UNL     1       4.666  -2.336   0.000  0.00  0.00    -0.111 NA
ATOM     12  C   UNL     1       3.841  -2.336   0.000  0.00  0.00    +0.228 A 
ATOM     13  O   UNL     1       3.586  -1.551   0.000  0.00  0.00    -0.419 OA
BRANCH   9   6
ATOM      3  C   UNL     1       4.253   1.409   0.000  0.00  0.00    +0.139 A 
ATOM      4  C   UNL     1       4.968   0.996   0.000  0.00  0.00    +0.037 A 
ATOM      5  C   UNL     1       4.968   0.171   0.000  0.00  0.00    +0.008 A 
ATOM      6  C   UNL     1       4.253  -0.241   0.000  0.00  0.00    +0.055 A 
ATOM      7  C   UNL     1       3.539   0.171   0.000  0.00  0.00    +0.008 A 
ATOM      8  C   UNL     1       3.539   0.996   0.000  0.00  0.00    +0.037 A 
BRANCH   3   2
ATOM      1  C   UNL     1       3.539   2.646   0.000  0.00  0.00    +0.252 C 
ATOM      2  O   UNL     1       4.253   2.234   0.000  0.00  0.00    -0.471 OA
ENDBRANCH   3   2
ENDBRANCH   9   6
ENDBRANCH  14  12
TORSDOF 6
