MODEL 1
REMARK VINA RESULT:     -11.6      0.000      0.000
REMARK  Name = 
REMARK  4 active torsions:
REMARK  status: ('A' for Active; 'I' for Inactive)
REMARK    1  A    between atoms: C_4  and  C_19
REMARK    2  A    between atoms: C_5  and  N_6
REMARK    3  A    between atoms: C_7  and  C_9
REMARK    4  A    between atoms: C_12  and  C_15
REMARK                            x       y       z     vdW  Elec       q    Type
REMARK                         _______ _______ _______ _____ _____    ______ ____
ROOT
ATOM      1  O   UNL     1      -5.528   3.676  25.256  0.00  0.00    -0.220 OA
ATOM      2  C   UNL     1      -4.909   3.159  25.076  0.00  0.00    +0.184 C 
ATOM      3  C   UNL     1      -4.114   3.364  25.002  0.00  0.00    +0.042 C 
ATOM      4  C   UNL     1      -3.691   2.679  24.819  0.00  0.00    +0.049 C 
ATOM      5  C   UNL     1      -4.226   2.052  24.781  0.00  0.00    +0.133 C 
ATOM     17  C   UNL     1      -4.979   2.349  24.940  0.00  0.00    +0.202 C 
ATOM     18  O   UNL     1      -5.678   1.911  24.959  0.00  0.00    -0.219 OA
ENDROOT
BRANCH   4  19
ATOM     19  C   UNL     1      -2.877   2.630  24.696  0.00  0.00    -0.002 A 
ATOM     20  C   UNL     1      -2.361   2.649  25.339  0.00  0.00    -0.001 A 
ATOM     21  C   UNL     1      -1.547   2.600  25.216  0.00  0.00    +0.020 A 
ATOM     22  C   UNL     1      -1.248   2.532  24.451  0.00  0.00    +0.099 A 
ATOM     23  N   UNL     1      -1.764   2.514  23.806  0.00  0.00    -0.243 NA
ATOM     24  C   UNL     1      -2.579   2.563  23.930  0.00  0.00    +0.095 A 
ENDBRANCH   4  19
BRANCH   5   6
ATOM      6  N   UNL     1      -4.040   1.265  24.613  0.00  0.00    -0.200 NA
ATOM      7  C   UNL     1      -4.341   0.661  25.087  0.00  0.00    +0.265 C 
ATOM      8  O   UNL     1      -4.827   0.842  25.728  0.00  0.00    -0.268 OA
BRANCH   7   9
ATOM      9  C   UNL     1      -4.154  -0.125  24.919  0.00  0.00    +0.055 A 
ATOM     10  C   UNL     1      -4.352  -0.449  24.187  0.00  0.00    +0.005 A 
ATOM     11  C   UNL     1      -4.165  -1.235  24.019  0.00  0.00    +0.010 A 
ATOM     12  C   UNL     1      -3.782  -1.698  24.584  0.00  0.00    +0.068 A 
ATOM     13  C   UNL     1      -3.584  -1.374  25.317  0.00  0.00    +0.010 A 
ATOM     14  C   UNL     1      -3.770  -0.588  25.484  0.00  0.00    +0.005 A 
BRANCH  12  15
ATOM     15  C   UNL     1      -3.595  -2.483  24.417  0.00  0.00    +0.100 C 
ATOM     16  N   UNL     1      -3.409  -3.269  24.250  0.00  0.00    -0.191 NA
ENDBRANCH  12  15
ENDBRANCH   7   9
ENDBRANCH   5   6
TORSDOF 4
ENDMDL
MODEL 2
REMARK VINA RESULT:     -10.6      1.382      2.423
REMARK  Name = 
REMARK  4 active torsions:
REMARK  status: ('A' for Active; 'I' for Inactive)
REMARK    1  A    between atoms: C_4  and  C_19
REMARK    2  A    between atoms: C_5  and  N_6
REMARK    3  A    between atoms: C_7  and  C_9
REMARK    4  A    between atoms: C_12  and  C_15
REMARK                            x       y       z     vdW  Elec       q    Type
REMARK                         _______ _______ _______ _____ _____    ______ ____
ROOT
ATOM      1  O   UNL     1      -2.680   3.991  24.248  0.00  0.00    -0.220 OA
ATOM      2  C   UNL     1      -3.194   3.370  24.424  0.00  0.00    +0.184 C 
ATOM      3  C   UNL     1      -3.931   3.440  24.787  0.00  0.00    +0.042 C 
ATOM      4  C   UNL     1      -4.254   2.683  24.856  0.00  0.00    +0.049 C 
ATOM      5  C   UNL     1      -3.716   2.146  24.535  0.00  0.00    +0.133 C 
ATOM     17  C   UNL     1      -3.060   2.571  24.268  0.00  0.00    +0.202 C 
ATOM     18  O   UNL     1      -2.390   2.251  23.909  0.00  0.00    -0.219 OA
ENDROOT
BRANCH   4  19
ATOM     19  C   UNL     1      -4.987   2.496  25.187  0.00  0.00    -0.002 A 
ATOM     20  C   UNL     1      -5.595   2.214  24.707  0.00  0.00    -0.001 A 
ATOM     21  C   UNL     1      -6.328   2.027  25.039  0.00  0.00    +0.020 A 
ATOM     22  C   UNL     1      -6.451   2.123  25.848  0.00  0.00    +0.099 A 
ATOM     23  N   UNL     1      -5.841   2.405  26.328  0.00  0.00    -0.243 NA
ATOM     24  C   UNL     1      -5.109   2.592  25.997  0.00  0.00    +0.095 A 
ENDBRANCH   4  19
BRANCH   5   6
ATOM      6  N   UNL     1      -3.816   1.328  24.490  0.00  0.00    -0.200 NA
ATOM      7  C   UNL     1      -3.230   0.825  24.781  0.00  0.00    +0.265 C 
ATOM      8  O   UNL     1      -2.546   1.139  25.117  0.00  0.00    -0.268 OA
BRANCH   7   9
ATOM      9  C   UNL     1      -3.330   0.007  24.735  0.00  0.00    +0.055 A 
ATOM     10  C   UNL     1      -3.561  -0.341  24.024  0.00  0.00    +0.005 A 
ATOM     11  C   UNL     1      -3.660  -1.159  23.979  0.00  0.00    +0.010 A 
ATOM     12  C   UNL     1      -3.530  -1.628  24.644  0.00  0.00    +0.068 A 
ATOM     13  C   UNL     1      -3.299  -1.280  25.356  0.00  0.00    +0.010 A 
ATOM     14  C   UNL     1      -3.200  -0.462  25.401  0.00  0.00    +0.005 A 
BRANCH  12  15
ATOM     15  C   UNL     1      -3.630  -2.446  24.599  0.00  0.00    +0.100 C 
ATOM     16  N   UNL     1      -3.729  -3.263  24.554  0.00  0.00    -0.191 NA
ENDBRANCH  12  15
ENDBRANCH   7   9
ENDBRANCH   5   6
TORSDOF 4
ENDMDL
MODEL 3
REMARK VINA RESULT:     -10.5      1.938      4.121
REMARK  Name = 
REMARK  4 active torsions:
REMARK  status: ('A' for Active; 'I' for Inactive)
REMARK    1  A    between atoms: C_4  and  C_19
REMARK    2  A    between atoms: C_5  and  N_6
REMARK    3  A    between atoms: C_7  and  C_9
REMARK    4  A    between atoms: C_12  and  C_15
REMARK                            x       y       z     vdW  Elec       q    Type
REMARK                         _______ _______ _______ _____ _____    ______ ____
ROOT
ATOM      1  O   UNL     1      -3.731  -3.160  23.950  0.00  0.00    -0.220 OA
ATOM      2  C   UNL     1      -3.466  -2.441  24.258  0.00  0.00    +0.184 C 
ATOM      3  C   UNL     1      -2.695  -2.271  24.494  0.00  0.00    +0.042 C 
ATOM      4  C   UNL     1      -2.677  -1.492  24.765  0.00  0.00    +0.049 C 
ATOM      5  C   UNL     1      -3.439  -1.182  24.697  0.00  0.00    +0.133 C 
ATOM     17  C   UNL     1      -3.926  -1.769  24.383  0.00  0.00    +0.202 C 
ATOM     18  O   UNL     1      -4.733  -1.695  24.224  0.00  0.00    -0.219 OA
ENDROOT
BRANCH   4  19
ATOM     19  C   UNL     1      -2.015  -1.093  25.054  0.00  0.00    -0.002 A 
ATOM     20  C   UNL     1      -1.937  -0.959  25.864  0.00  0.00    -0.001 A 
ATOM     21  C   UNL     1      -1.274  -0.560  26.154  0.00  0.00    +0.020 A 
ATOM     22  C   UNL     1      -0.692  -0.296  25.633  0.00  0.00    +0.099 A 
ATOM     23  N   UNL     1      -0.771  -0.430  24.823  0.00  0.00    -0.243 NA
ATOM     24  C   UNL     1      -1.433  -0.829  24.533  0.00  0.00    +0.095 A 
ENDBRANCH   4  19
BRANCH   5   6
ATOM      6  N   UNL     1      -3.672  -0.418  24.906  0.00  0.00    -0.200 NA
ATOM      7  C   UNL     1      -4.056   0.061  24.355  0.00  0.00    +0.265 C 
ATOM      8  O   UNL     1      -4.207  -0.223  23.596  0.00  0.00    -0.268 OA
BRANCH   7   9
ATOM      9  C   UNL     1      -4.288   0.825  24.564  0.00  0.00    +0.055 A 
ATOM     10  C   UNL     1      -4.878   0.936  25.128  0.00  0.00    +0.005 A 
ATOM     11  C   UNL     1      -5.111   1.700  25.338  0.00  0.00    +0.010 A 
ATOM     12  C   UNL     1      -4.753   2.352  24.982  0.00  0.00    +0.068 A 
ATOM     13  C   UNL     1      -4.162   2.241  24.416  0.00  0.00    +0.010 A 
ATOM     14  C   UNL     1      -3.930   1.477  24.208  0.00  0.00    +0.005 A 
BRANCH  12  15
ATOM     15  C   UNL     1      -4.986   3.115  25.190  0.00  0.00    +0.100 C 
ATOM     16  N   UNL     1      -5.218   3.879  25.398  0.00  0.00    -0.191 NA
ENDBRANCH  12  15
ENDBRANCH   7   9
ENDBRANCH   5   6
TORSDOF 4
ENDMDL
