MODEL 1
REMARK VINA RESULT:     -11.3      0.000      0.000
REMARK  Name = 
REMARK  3 active torsions:
REMARK  status: ('A' for Active; 'I' for Inactive)
REMARK    1  A    between atoms: N_3  and  C_18
REMARK    2  A    between atoms: N_7  and  C_8
REMARK    3  A    between atoms: C_8  and  C_9
REMARK                            x       y       z     vdW  Elec       q    Type
REMARK                         _______ _______ _______ _____ _____    ______ ____
ROOT
ATOM      1  O   UNL     1      -4.829  -0.039  25.453  0.00  0.00    -0.252 OA
ATOM      2  C   UNL     1      -4.225   0.223  24.955  0.00  0.00    +0.307 C 
ATOM      3  N   UNL     1      -3.723  -0.256  24.508  0.00  0.00    -0.264 N 
ATOM      4  C   UNL     1      -3.205   0.235  24.093  0.00  0.00    +0.116 C 
ATOM      5  C   UNL     1      -3.387   1.016  24.284  0.00  0.00    +0.113 C 
ATOM      6  C   UNL     1      -3.061   1.734  24.042  0.00  0.00    +0.094 C 
ATOM      7  N   UNL     1      -3.364   2.444  24.332  0.00  0.00    -0.266 NA
ATOM     15  C   UNL     1      -3.994   2.436  24.864  0.00  0.00    +0.094 C 
ATOM     16  C   UNL     1      -4.321   1.719  25.107  0.00  0.00    +0.112 C 
ATOM     17  N   UNL     1      -4.017   1.008  24.817  0.00  0.00    -0.261 N 
ENDROOT
BRANCH   3  18
ATOM     18  C   UNL     1      -3.737  -1.080  24.481  0.00  0.00    +0.077 C 
ATOM     19  C   UNL     1      -4.178  -1.467  23.901  0.00  0.00    +0.020 C 
ATOM     20  C   UNL     1      -4.192  -2.292  23.874  0.00  0.00    +0.002 C 
ATOM     21  C   UNL     1      -3.764  -2.729  24.426  0.00  0.00    +0.000 C 
ATOM     22  C   UNL     1      -3.322  -2.344  25.006  0.00  0.00    +0.002 C 
ATOM     23  C   UNL     1      -3.308  -1.519  25.034  0.00  0.00    +0.020 C 
ENDBRANCH   3  18
BRANCH   7   8
ATOM      8  C   UNL     1      -3.038   3.162  24.090  0.00  0.00    +0.101 C 
BRANCH   8   9
ATOM      9  C   UNL     1      -2.432   3.509  24.529  0.00  0.00    +0.013 A 
ATOM     10  C   UNL     1      -2.610   4.076  25.102  0.00  0.00    +0.000 A 
ATOM     11  C   UNL     1      -2.004   4.423  25.540  0.00  0.00    +0.020 A 
ATOM     12  C   UNL     1      -1.220   4.204  25.407  0.00  0.00    +0.099 A 
ATOM     13  N   UNL     1      -1.042   3.638  24.834  0.00  0.00    -0.243 NA
ATOM     14  C   UNL     1      -1.648   3.290  24.395  0.00  0.00    +0.096 A 
ENDBRANCH   8   9
ENDBRANCH   7   8
TORSDOF 3
ENDMDL
MODEL 2
REMARK VINA RESULT:     -11.1      1.211      4.908
REMARK  Name = 
REMARK  3 active torsions:
REMARK  status: ('A' for Active; 'I' for Inactive)
REMARK    1  A    between atoms: N_3  and  C_18
REMARK    2  A    between atoms: N_7  and  C_8
REMARK    3  A    between atoms: C_8  and  C_9
REMARK                            x       y       z     vdW  Elec       q    Type
REMARK                         _______ _______ _______ _____ _____    ______ ____
ROOT
ATOM      1  O   UNL     1      -2.094   2.643  23.225  0.00  0.00    -0.252 OA
ATOM      2  C   UNL     1      -2.446   2.355  23.914  0.00  0.00    +0.307 C 
ATOM      3  N   UNL     1      -2.388   2.691  24.665  0.00  0.00    -0.264 N 
ATOM      4  C   UNL     1      -2.824   2.224  25.188  0.00  0.00    +0.116 C 
ATOM      5  C   UNL     1      -3.151   1.600  24.759  0.00  0.00    +0.113 C 
ATOM      6  C   UNL     1      -3.631   0.968  24.984  0.00  0.00    +0.094 C 
ATOM      7  N   UNL     1      -3.878   0.417  24.422  0.00  0.00    -0.266 NA
ATOM     15  C   UNL     1      -3.645   0.498  23.635  0.00  0.00    +0.094 C 
ATOM     16  C   UNL     1      -3.165   1.130  23.409  0.00  0.00    +0.112 C 
ATOM     17  N   UNL     1      -2.917   1.681  23.972  0.00  0.00    -0.261 N 
ENDROOT
BRANCH   3  18
ATOM     18  C   UNL     1      -1.968   3.374  24.859  0.00  0.00    +0.077 C 
ATOM     19  C   UNL     1      -1.148   3.346  24.940  0.00  0.00    +0.020 C 
ATOM     20  C   UNL     1      -0.728   4.028  25.135  0.00  0.00    +0.002 C 
ATOM     21  C   UNL     1      -1.128   4.740  25.249  0.00  0.00    +0.000 C 
ATOM     22  C   UNL     1      -1.949   4.770  25.168  0.00  0.00    +0.002 C 
ATOM     23  C   UNL     1      -2.369   4.087  24.974  0.00  0.00    +0.020 C 
ENDBRANCH   3  18
BRANCH   7   8
ATOM      8  C   UNL     1      -4.359  -0.215  24.646  0.00  0.00    +0.101 C 
BRANCH   8   9
ATOM      9  C   UNL     1      -4.041  -0.973  24.711  0.00  0.00    +0.013 A 
ATOM     10  C   UNL     1      -4.135  -1.514  24.096  0.00  0.00    +0.000 A 
ATOM     11  C   UNL     1      -3.817  -2.272  24.160  0.00  0.00    +0.020 A 
ATOM     12  C   UNL     1      -3.404  -2.489  24.841  0.00  0.00    +0.099 A 
ATOM     13  N   UNL     1      -3.309  -1.949  25.456  0.00  0.00    -0.243 NA
ATOM     14  C   UNL     1      -3.628  -1.190  25.391  0.00  0.00    +0.096 A 
ENDBRANCH   8   9
ENDBRANCH   7   8
TORSDOF 3
ENDMDL
MODEL 3
REMARK VINA RESULT:     -10.9      1.107      1.578
REMARK  Name = 
REMARK  3 active torsions:
REMARK  status: ('A' for Active; 'I' for Inactive)
REMARK    1  A    between atoms: N_3  and  C_18
REMARK    2  A    between atoms: N_7  and  C_8
REMARK    3  A    between atoms: C_8  and  C_9
REMARK                            x       y       z     vdW  Elec       q    Type
REMARK                         _______ _______ _______ _____ _____    ______ ____
ROOT
ATOM      1  O   UNL     1      -1.780  -0.644  24.171  0.00  0.00    -0.252 OA
ATOM      2  C   UNL     1      -2.468  -0.195  24.249  0.00  0.00    +0.307 C 
ATOM      3  N   UNL     1      -3.228  -0.491  24.373  0.00  0.00    -0.264 N 
ATOM      4  C   UNL     1      -3.747   0.150  24.417  0.00  0.00    +0.116 C 
ATOM      5  C   UNL     1      -3.307   0.840  24.321  0.00  0.00    +0.113 C 
ATOM      6  C   UNL     1      -3.523   1.637  24.314  0.00  0.00    +0.094 C 
ATOM      7  N   UNL     1      -2.951   2.219  24.203  0.00  0.00    -0.266 NA
ATOM     15  C   UNL     1      -2.160   2.006  24.099  0.00  0.00    +0.094 C 
ATOM     16  C   UNL     1      -1.943   1.211  24.106  0.00  0.00    +0.112 C 
ATOM     17  N   UNL     1      -2.517   0.627  24.216  0.00  0.00    -0.261 N 
ENDROOT
BRANCH   3  18
ATOM     18  C   UNL     1      -3.434  -1.287  24.440  0.00  0.00    +0.077 C 
ATOM     19  C   UNL     1      -3.210  -1.716  25.108  0.00  0.00    +0.020 C 
ATOM     20  C   UNL     1      -3.415  -2.512  25.176  0.00  0.00    +0.002 C 
ATOM     21  C   UNL     1      -3.845  -2.879  24.576  0.00  0.00    +0.000 C 
ATOM     22  C   UNL     1      -4.070  -2.451  23.907  0.00  0.00    +0.002 C 
ATOM     23  C   UNL     1      -3.864  -1.655  23.839  0.00  0.00    +0.020 C 
ENDBRANCH   3  18
BRANCH   7   8
ATOM      8  C   UNL     1      -3.167   3.016  24.196  0.00  0.00    +0.101 C 
BRANCH   8   9
ATOM      9  C   UNL     1      -3.097   3.468  24.882  0.00  0.00    +0.013 A 
ATOM     10  C   UNL     1      -2.400   3.884  25.033  0.00  0.00    +0.000 A 
ATOM     11  C   UNL     1      -2.329   4.336  25.718  0.00  0.00    +0.020 A 
ATOM     12  C   UNL     1      -2.956   4.375  26.253  0.00  0.00    +0.099 A 
ATOM     13  N   UNL     1      -3.653   3.960  26.103  0.00  0.00    -0.243 NA
ATOM     14  C   UNL     1      -3.723   3.507  25.417  0.00  0.00    +0.096 A 
ENDBRANCH   8   9
ENDBRANCH   7   8
TORSDOF 3
ENDMDL
MODEL 4
REMARK VINA RESULT:     -10.5      1.584      1.981
REMARK  Name = 
REMARK  3 active torsions:
REMARK  status: ('A' for Active; 'I' for Inactive)
REMARK    1  A    between atoms: N_3  and  C_18
REMARK    2  A    between atoms: N_7  and  C_8
REMARK    3  A    between atoms: C_8  and  C_9
REMARK                            x       y       z     vdW  Elec       q    Type
REMARK                         _______ _______ _______ _____ _____    ______ ____
ROOT
ATOM      1  O   UNL     1      -1.236  -0.685  26.032  0.00  0.00    -0.252 OA
ATOM      2  C   UNL     1      -1.558  -0.235  25.420  0.00  0.00    +0.307 C 
ATOM      3  N   UNL     1      -2.164  -0.471  24.912  0.00  0.00    -0.264 N 
ATOM      4  C   UNL     1      -2.311   0.148  24.387  0.00  0.00    +0.116 C 
ATOM      5  C   UNL     1      -1.796   0.766  24.570  0.00  0.00    +0.113 C 
ATOM      6  C   UNL     1      -1.690   1.514  24.238  0.00  0.00    +0.094 C 
ATOM      7  N   UNL     1      -1.120   2.024  24.544  0.00  0.00    -0.266 NA
ATOM     15  C   UNL     1      -0.655   1.787  25.183  0.00  0.00    +0.094 C 
ATOM     16  C   UNL     1      -0.760   1.040  25.516  0.00  0.00    +0.112 C 
ATOM     17  N   UNL     1      -1.331   0.529  25.209  0.00  0.00    -0.261 N 
ENDROOT
BRANCH   3  18
ATOM     18  C   UNL     1      -2.554  -1.197  24.927  0.00  0.00    +0.077 C 
ATOM     19  C   UNL     1      -2.243  -1.842  24.517  0.00  0.00    +0.020 C 
ATOM     20  C   UNL     1      -2.633  -2.569  24.532  0.00  0.00    +0.002 C 
ATOM     21  C   UNL     1      -3.335  -2.651  24.957  0.00  0.00    +0.000 C 
ATOM     22  C   UNL     1      -3.647  -2.007  25.367  0.00  0.00    +0.002 C 
ATOM     23  C   UNL     1      -3.257  -1.280  25.353  0.00  0.00    +0.020 C 
ENDBRANCH   3  18
BRANCH   7   8
ATOM      8  C   UNL     1      -1.014   2.772  24.213  0.00  0.00    +0.101 C 
BRANCH   8   9
ATOM      9  C   UNL     1      -1.324   3.438  24.587  0.00  0.00    +0.013 A 
ATOM     10  C   UNL     1      -0.819   3.999  24.919  0.00  0.00    +0.000 A 
ATOM     11  C   UNL     1      -1.129   4.664  25.293  0.00  0.00    +0.020 A 
ATOM     12  C   UNL     1      -1.946   4.770  25.336  0.00  0.00    +0.099 A 
ATOM     13  N   UNL     1      -2.453   4.210  25.005  0.00  0.00    -0.243 NA
ATOM     14  C   UNL     1      -2.142   3.543  24.630  0.00  0.00    +0.096 A 
ENDBRANCH   8   9
ENDBRANCH   7   8
TORSDOF 3
ENDMDL
MODEL 5
REMARK VINA RESULT:      -9.7      2.115      3.067
REMARK  Name = 
REMARK  3 active torsions:
REMARK  status: ('A' for Active; 'I' for Inactive)
REMARK    1  A    between atoms: N_3  and  C_18
REMARK    2  A    between atoms: N_7  and  C_8
REMARK    3  A    between atoms: C_8  and  C_9
REMARK                            x       y       z     vdW  Elec       q    Type
REMARK                         _______ _______ _______ _____ _____    ______ ____
ROOT
ATOM      1  O   UNL     1      -0.602   1.374  25.544  0.00  0.00    -0.252 OA
ATOM      2  C   UNL     1      -1.312   1.205  25.158  0.00  0.00    +0.307 C 
ATOM      3  N   UNL     1      -1.529   0.476  24.840  0.00  0.00    -0.264 N 
ATOM      4  C   UNL     1      -2.281   0.557  24.508  0.00  0.00    +0.116 C 
ATOM      5  C   UNL     1      -2.527   1.335  24.622  0.00  0.00    +0.113 C 
ATOM      6  C   UNL     1      -3.219   1.732  24.412  0.00  0.00    +0.094 C 
ATOM      7  N   UNL     1      -3.313   2.529  24.603  0.00  0.00    -0.266 NA
ATOM     15  C   UNL     1      -2.714   2.930  25.005  0.00  0.00    +0.094 C 
ATOM     16  C   UNL     1      -2.022   2.534  25.215  0.00  0.00    +0.112 C 
ATOM     17  N   UNL     1      -1.928   1.736  25.024  0.00  0.00    -0.261 N 
ENDROOT
BRANCH   3  18
ATOM     18  C   UNL     1      -1.076  -0.213  24.851  0.00  0.00    +0.077 C 
ATOM     19  C   UNL     1      -1.168  -0.758  25.462  0.00  0.00    +0.020 C 
ATOM     20  C   UNL     1      -0.714  -1.447  25.473  0.00  0.00    +0.002 C 
ATOM     21  C   UNL     1      -0.168  -1.590  24.873  0.00  0.00    +0.000 C 
ATOM     22  C   UNL     1      -0.075  -1.045  24.260  0.00  0.00    +0.002 C 
ATOM     23  C   UNL     1      -0.528  -0.356  24.249  0.00  0.00    +0.020 C 
ENDBRANCH   3  18
BRANCH   7   8
ATOM      8  C   UNL     1      -4.005   2.926  24.392  0.00  0.00    +0.101 C 
BRANCH   8   9
ATOM      9  C   UNL     1      -4.674   2.871  24.871  0.00  0.00    +0.013 A 
ATOM     10  C   UNL     1      -5.230   2.276  24.738  0.00  0.00    +0.000 A 
ATOM     11  C   UNL     1      -5.899   2.221  25.217  0.00  0.00    +0.020 A 
ATOM     12  C   UNL     1      -6.013   2.762  25.829  0.00  0.00    +0.099 A 
ATOM     13  N   UNL     1      -5.458   3.357  25.963  0.00  0.00    -0.243 NA
ATOM     14  C   UNL     1      -4.788   3.412  25.484  0.00  0.00    +0.096 A 
ENDBRANCH   8   9
ENDBRANCH   7   8
TORSDOF 3
ENDMDL
