MODEL 1
REMARK VINA RESULT:     -13.4      0.000      0.000
REMARK  Name = 
REMARK  2 active torsions:
REMARK  status: ('A' for Active; 'I' for Inactive)
REMARK    1  A    between atoms: C_2  and  C_19
REMARK    2  A    between atoms: N_9  and  C_10
REMARK                            x       y       z     vdW  Elec       q    Type
REMARK                         _______ _______ _______ _____ _____    ______ ____
ROOT
ATOM      1  O   UNL     1      -4.727   0.186  24.658  0.00  0.00    -0.270 OA
ATOM      2  C   UNL     1      -3.956  -0.101  24.729  0.00  0.00    +0.249 C 
ATOM      3  N   UNL     1      -3.324   0.425  24.797  0.00  0.00    -0.273 N 
ATOM      4  C   UNL     1      -2.554   0.138  24.868  0.00  0.00    +0.115 C 
ATOM      5  C   UNL     1      -1.923   0.664  24.936  0.00  0.00    +0.116 C 
ATOM      6  N   UNL     1      -2.060   1.478  24.934  0.00  0.00    -0.261 N 
ATOM      7  C   UNL     1      -2.831   1.765  24.864  0.00  0.00    +0.116 C 
ATOM      8  C   UNL     1      -2.798   2.588  24.879  0.00  0.00    +0.116 C 
ATOM      9  N   UNL     1      -2.008   2.811  24.958  0.00  0.00    -0.264 N 
ATOM     16  C   UNL     1      -1.553   2.124  24.993  0.00  0.00    +0.307 C 
ATOM     17  O   UNL     1      -0.732   2.090  25.072  0.00  0.00    -0.252 OA
ATOM     18  C   UNL     1      -3.463   1.238  24.795  0.00  0.00    +0.115 C 
ENDROOT
BRANCH   9  10
ATOM     10  C   UNL     1      -1.723   3.584  24.997  0.00  0.00    +0.077 C 
ATOM     11  C   UNL     1      -2.141   4.158  25.419  0.00  0.00    +0.020 C 
ATOM     12  C   UNL     1      -1.856   4.931  25.457  0.00  0.00    +0.002 C 
ATOM     13  C   UNL     1      -1.153   5.131  25.074  0.00  0.00    +0.000 C 
ATOM     14  C   UNL     1      -0.736   4.558  24.652  0.00  0.00    +0.002 C 
ATOM     15  C   UNL     1      -1.021   3.785  24.614  0.00  0.00    +0.020 C 
ENDBRANCH   9  10
BRANCH   2  19
ATOM     19  C   UNL     1      -3.817  -0.914  24.731  0.00  0.00    +0.054 A 
ATOM     20  C   UNL     1      -3.870  -1.343  24.027  0.00  0.00    +0.005 A 
ATOM     21  C   UNL     1      -3.731  -2.156  24.029  0.00  0.00    +0.000 A 
ATOM     22  C   UNL     1      -3.539  -2.541  24.734  0.00  0.00    +0.000 A 
ATOM     23  C   UNL     1      -3.487  -2.112  25.436  0.00  0.00    +0.000 A 
ATOM     24  C   UNL     1      -3.626  -1.299  25.435  0.00  0.00    +0.005 A 
ENDBRANCH   2  19
TORSDOF 2
ENDMDL
MODEL 2
REMARK VINA RESULT:     -13.3      0.865      5.145
REMARK  Name = 
REMARK  2 active torsions:
REMARK  status: ('A' for Active; 'I' for Inactive)
REMARK    1  A    between atoms: C_2  and  C_19
REMARK    2  A    between atoms: N_9  and  C_10
REMARK                            x       y       z     vdW  Elec       q    Type
REMARK                         _______ _______ _______ _____ _____    ______ ____
ROOT
ATOM      1  O   UNL     1      -0.436   2.565  26.235  0.00  0.00    -0.270 OA
ATOM      2  C   UNL     1      -1.016   2.752  25.679  0.00  0.00    +0.249 C 
ATOM      3  N   UNL     1      -1.481   2.154  25.351  0.00  0.00    -0.273 N 
ATOM      4  C   UNL     1      -2.062   2.340  24.795  0.00  0.00    +0.115 C 
ATOM      5  C   UNL     1      -2.526   1.743  24.468  0.00  0.00    +0.116 C 
ATOM      6  N   UNL     1      -2.411   0.958  24.696  0.00  0.00    -0.261 N 
ATOM      7  C   UNL     1      -1.831   0.772  25.252  0.00  0.00    +0.116 C 
ATOM      8  C   UNL     1      -1.844  -0.044  25.369  0.00  0.00    +0.116 C 
ATOM      9  N   UNL     1      -2.432  -0.362  24.886  0.00  0.00    -0.264 N 
ATOM     16  C   UNL     1      -2.782   0.258  24.470  0.00  0.00    +0.307 C 
ATOM     17  O   UNL     1      -3.397   0.189  23.924  0.00  0.00    -0.252 OA
ATOM     18  C   UNL     1      -1.366   1.370  25.580  0.00  0.00    +0.115 C 
ENDROOT
BRANCH   9  10
ATOM     10  C   UNL     1      -2.634  -1.160  24.829  0.00  0.00    +0.077 C 
ATOM     11  C   UNL     1      -2.143  -1.682  24.417  0.00  0.00    +0.020 C 
ATOM     12  C   UNL     1      -2.345  -2.480  24.360  0.00  0.00    +0.002 C 
ATOM     13  C   UNL     1      -3.037  -2.756  24.715  0.00  0.00    +0.000 C 
ATOM     14  C   UNL     1      -3.527  -2.235  25.126  0.00  0.00    +0.002 C 
ATOM     15  C   UNL     1      -3.325  -1.438  25.183  0.00  0.00    +0.020 C 
ENDBRANCH   9  10
BRANCH   2  19
ATOM     19  C   UNL     1      -1.132   3.536  25.450  0.00  0.00    +0.054 A 
ATOM     20  C   UNL     1      -0.618   3.887  24.908  0.00  0.00    +0.005 A 
ATOM     21  C   UNL     1      -0.733   4.671  24.679  0.00  0.00    +0.000 A 
ATOM     22  C   UNL     1      -1.362   5.104  24.991  0.00  0.00    +0.000 A 
ATOM     23  C   UNL     1      -1.875   4.753  25.533  0.00  0.00    +0.000 A 
ATOM     24  C   UNL     1      -1.760   3.969  25.763  0.00  0.00    +0.005 A 
ENDBRANCH   2  19
TORSDOF 2
ENDMDL
