MODEL 1
REMARK VINA RESULT:     -11.6      0.000      0.000
REMARK  Name = 
REMARK  5 active torsions:
REMARK  status: ('A' for Active; 'I' for Inactive)
REMARK    1  A    between atoms: C_4  and  C_20
REMARK    2  A    between atoms: C_5  and  N_6
REMARK    3  A    between atoms: N_6  and  S_7
REMARK    4  A    between atoms: S_7  and  C_10
REMARK    5  A    between atoms: C_13  and  C_16
REMARK                            x       y       z     vdW  Elec       q    Type
REMARK                         _______ _______ _______ _____ _____    ______ ____
ROOT
ATOM      1  O   UNL     1      -6.180   2.802  25.651  0.00  0.00    -0.220 OA
ATOM      2  C   UNL     1      -5.388   2.779  25.419  0.00  0.00    +0.184 C 
ATOM      3  C   UNL     1      -4.814   3.342  25.600  0.00  0.00    +0.041 C 
ATOM      4  C   UNL     1      -4.103   3.100  25.258  0.00  0.00    +0.045 C 
ATOM      5  C   UNL     1      -4.238   2.387  24.865  0.00  0.00    +0.135 C 
ATOM     18  C   UNL     1      -5.033   2.188  24.965  0.00  0.00    +0.200 C 
ATOM     19  O   UNL     1      -5.406   1.517  24.663  0.00  0.00    -0.219 OA
ENDROOT
BRANCH   4  20
ATOM     20  C   UNL     1      -3.382   3.500  25.301  0.00  0.00    -0.021 A 
ATOM     21  C   UNL     1      -2.963   3.518  26.011  0.00  0.00    -0.004 A 
ATOM     22  C   UNL     1      -2.242   3.918  26.054  0.00  0.00    -0.000 A 
ATOM     23  C   UNL     1      -1.942   4.300  25.388  0.00  0.00    -0.000 A 
ATOM     24  C   UNL     1      -2.362   4.282  24.677  0.00  0.00    -0.000 A 
ATOM     25  C   UNL     1      -3.082   3.882  24.634  0.00  0.00    -0.004 A 
ENDBRANCH   4  20
BRANCH   5   6
ATOM      6  N   UNL     1      -3.677   1.949  24.447  0.00  0.00    -0.076 NA
BRANCH   6   7
ATOM      7  S   UNL     1      -3.654   1.129  24.525  0.00  0.00    +0.077 S 
ATOM      8  O   UNL     1      -3.872   1.047  23.733  0.00  0.00    -0.152 OA
ATOM      9  O   UNL     1      -3.435   1.209  25.316  0.00  0.00    -0.152 OA
BRANCH   7  10
ATOM     10  C   UNL     1      -3.630   0.307  24.602  0.00  0.00    +0.124 A 
ATOM     11  C   UNL     1      -3.898  -0.173  23.986  0.00  0.00    +0.021 A 
ATOM     12  C   UNL     1      -3.875  -0.994  24.064  0.00  0.00    +0.012 A 
ATOM     13  C   UNL     1      -3.583  -1.335  24.757  0.00  0.00    +0.069 A 
ATOM     14  C   UNL     1      -3.316  -0.855  25.372  0.00  0.00    +0.012 A 
ATOM     15  C   UNL     1      -3.339  -0.033  25.295  0.00  0.00    +0.021 A 
BRANCH  13  16
ATOM     16  C   UNL     1      -3.560  -2.155  24.834  0.00  0.00    +0.100 C 
ATOM     17  N   UNL     1      -3.537  -2.977  24.911  0.00  0.00    -0.191 NA
ENDBRANCH  13  16
ENDBRANCH   7  10
ENDBRANCH   6   7
ENDBRANCH   5   6
TORSDOF 5
ENDMDL
MODEL 2
REMARK VINA RESULT:     -11.2      1.263      2.172
REMARK  Name = 
REMARK  5 active torsions:
REMARK  status: ('A' for Active; 'I' for Inactive)
REMARK    1  A    between atoms: C_4  and  C_20
REMARK    2  A    between atoms: C_5  and  N_6
REMARK    3  A    between atoms: N_6  and  S_7
REMARK    4  A    between atoms: S_7  and  C_10
REMARK    5  A    between atoms: C_13  and  C_16
REMARK                            x       y       z     vdW  Elec       q    Type
REMARK                         _______ _______ _______ _____ _____    ______ ____
ROOT
ATOM      1  O   UNL     1      -2.593   2.274  22.346  0.00  0.00    -0.220 OA
ATOM      2  C   UNL     1      -2.952   2.175  23.083  0.00  0.00    +0.184 C 
ATOM      3  C   UNL     1      -3.506   2.682  23.423  0.00  0.00    +0.041 C 
ATOM      4  C   UNL     1      -3.717   2.373  24.159  0.00  0.00    +0.045 C 
ATOM      5  C   UNL     1      -3.293   1.674  24.272  0.00  0.00    +0.135 C 
ATOM     18  C   UNL     1      -2.820   1.552  23.607  0.00  0.00    +0.200 C 
ATOM     19  O   UNL     1      -2.306   0.918  23.489  0.00  0.00    -0.219 OA
ENDROOT
BRANCH   4  20
ATOM     20  C   UNL     1      -4.257   2.704  24.688  0.00  0.00    -0.021 A 
ATOM     21  C   UNL     1      -3.990   3.190  25.298  0.00  0.00    -0.004 A 
ATOM     22  C   UNL     1      -4.530   3.521  25.827  0.00  0.00    -0.000 A 
ATOM     23  C   UNL     1      -5.336   3.366  25.746  0.00  0.00    -0.000 A 
ATOM     24  C   UNL     1      -5.603   2.879  25.135  0.00  0.00    -0.000 A 
ATOM     25  C   UNL     1      -5.063   2.548  24.605  0.00  0.00    -0.004 A 
ENDBRANCH   4  20
BRANCH   5   6
ATOM      6  N   UNL     1      -3.334   1.184  24.935  0.00  0.00    -0.076 NA
BRANCH   6   7
ATOM      7  S   UNL     1      -3.386   0.367  24.840  0.00  0.00    +0.077 S 
ATOM      8  O   UNL     1      -2.615   0.285  25.124  0.00  0.00    -0.152 OA
ATOM      9  O   UNL     1      -4.156   0.447  24.556  0.00  0.00    -0.152 OA
BRANCH   7  10
ATOM     10  C   UNL     1      -3.436  -0.452  24.744  0.00  0.00    +0.124 A 
ATOM     11  C   UNL     1      -4.040  -0.777  24.285  0.00  0.00    +0.021 A 
ATOM     12  C   UNL     1      -4.089  -1.595  24.191  0.00  0.00    +0.012 A 
ATOM     13  C   UNL     1      -3.536  -2.088  24.555  0.00  0.00    +0.069 A 
ATOM     14  C   UNL     1      -2.933  -1.762  25.013  0.00  0.00    +0.012 A 
ATOM     15  C   UNL     1      -2.883  -0.943  25.109  0.00  0.00    +0.021 A 
BRANCH  13  16
ATOM     16  C   UNL     1      -3.586  -2.905  24.460  0.00  0.00    +0.100 C 
ATOM     17  N   UNL     1      -3.637  -3.724  24.365  0.00  0.00    -0.191 NA
ENDBRANCH  13  16
ENDBRANCH   7  10
ENDBRANCH   6   7
ENDBRANCH   5   6
TORSDOF 5
ENDMDL
MODEL 3
REMARK VINA RESULT:     -11.0      1.671      4.584
REMARK  Name = 
REMARK  5 active torsions:
REMARK  status: ('A' for Active; 'I' for Inactive)
REMARK    1  A    between atoms: C_4  and  C_20
REMARK    2  A    between atoms: C_5  and  N_6
REMARK    3  A    between atoms: N_6  and  S_7
REMARK    4  A    between atoms: S_7  and  C_10
REMARK    5  A    between atoms: C_13  and  C_16
REMARK                            x       y       z     vdW  Elec       q    Type
REMARK                         _______ _______ _______ _____ _____    ______ ____
ROOT
ATOM      1  O   UNL     1      -0.717   0.495  25.680  0.00  0.00    -0.220 OA
ATOM      2  C   UNL     1      -1.408   0.181  25.357  0.00  0.00    +0.184 C 
ATOM      3  C   UNL     1      -1.637  -0.611  25.379  0.00  0.00    +0.041 C 
ATOM      4  C   UNL     1      -2.362  -0.677  24.990  0.00  0.00    +0.045 C 
ATOM      5  C   UNL     1      -2.580   0.073  24.727  0.00  0.00    +0.135 C 
ATOM     18  C   UNL     1      -1.990   0.604  24.954  0.00  0.00    +0.200 C 
ATOM     19  O   UNL     1      -1.985   1.416  24.803  0.00  0.00    -0.219 OA
ENDROOT
BRANCH   4  20
ATOM     20  C   UNL     1      -2.793  -1.373  24.883  0.00  0.00    -0.021 A 
ATOM     21  C   UNL     1      -2.815  -1.733  24.142  0.00  0.00    -0.004 A 
ATOM     22  C   UNL     1      -3.246  -2.429  24.034  0.00  0.00    -0.000 A 
ATOM     23  C   UNL     1      -3.654  -2.763  24.667  0.00  0.00    -0.000 A 
ATOM     24  C   UNL     1      -3.632  -2.403  25.410  0.00  0.00    -0.000 A 
ATOM     25  C   UNL     1      -3.201  -1.707  25.517  0.00  0.00    -0.004 A 
ENDBRANCH   4  20
BRANCH   5   6
ATOM      6  N   UNL     1      -3.268   0.261  24.311  0.00  0.00    -0.076 NA
BRANCH   6   7
ATOM      7  S   UNL     1      -3.722   0.911  24.537  0.00  0.00    +0.077 S 
ATOM      8  O   UNL     1      -3.514   1.299  23.839  0.00  0.00    -0.152 OA
ATOM      9  O   UNL     1      -3.930   0.524  25.235  0.00  0.00    -0.152 OA
BRANCH   7  10
ATOM     10  C   UNL     1      -4.176   1.562  24.763  0.00  0.00    +0.124 A 
ATOM     11  C   UNL     1      -4.005   2.310  24.458  0.00  0.00    +0.021 A 
ATOM     12  C   UNL     1      -4.460   2.960  24.684  0.00  0.00    +0.012 A 
ATOM     13  C   UNL     1      -5.084   2.864  25.215  0.00  0.00    +0.069 A 
ATOM     14  C   UNL     1      -5.255   2.116  25.519  0.00  0.00    +0.012 A 
ATOM     15  C   UNL     1      -4.801   1.465  25.294  0.00  0.00    +0.021 A 
BRANCH  13  16
ATOM     16  C   UNL     1      -5.538   3.514  25.440  0.00  0.00    +0.100 C 
ATOM     17  N   UNL     1      -5.992   4.165  25.666  0.00  0.00    -0.191 NA
ENDBRANCH  13  16
ENDBRANCH   7  10
ENDBRANCH   6   7
ENDBRANCH   5   6
TORSDOF 5
ENDMDL
MODEL 4
REMARK VINA RESULT:     -11.0      1.392      4.139
REMARK  Name = 
REMARK  5 active torsions:
REMARK  status: ('A' for Active; 'I' for Inactive)
REMARK    1  A    between atoms: C_4  and  C_20
REMARK    2  A    between atoms: C_5  and  N_6
REMARK    3  A    between atoms: N_6  and  S_7
REMARK    4  A    between atoms: S_7  and  C_10
REMARK    5  A    between atoms: C_13  and  C_16
REMARK                            x       y       z     vdW  Elec       q    Type
REMARK                         _______ _______ _______ _____ _____    ______ ____
ROOT
ATOM      1  O   UNL     1      -5.917   1.759  25.144  0.00  0.00    -0.220 OA
ATOM      2  C   UNL     1      -5.244   1.313  24.968  0.00  0.00    +0.184 C 
ATOM      3  C   UNL     1      -5.146   0.508  25.114  0.00  0.00    +0.041 C 
ATOM      4  C   UNL     1      -4.394   0.292  24.852  0.00  0.00    +0.045 C 
ATOM      5  C   UNL     1      -4.028   0.964  24.544  0.00  0.00    +0.135 C 
ATOM     18  C   UNL     1      -4.554   1.596  24.616  0.00  0.00    +0.200 C 
ATOM     19  O   UNL     1      -4.413   2.373  24.376  0.00  0.00    -0.219 OA
ENDROOT
BRANCH   4  20
ATOM     20  C   UNL     1      -4.065  -0.465  24.891  0.00  0.00    -0.021 A 
ATOM     21  C   UNL     1      -4.057  -0.945  24.221  0.00  0.00    -0.004 A 
ATOM     22  C   UNL     1      -3.728  -1.701  24.260  0.00  0.00    -0.000 A 
ATOM     23  C   UNL     1      -3.408  -1.976  24.968  0.00  0.00    -0.000 A 
ATOM     24  C   UNL     1      -3.415  -1.495  25.639  0.00  0.00    -0.000 A 
ATOM     25  C   UNL     1      -3.744  -0.738  25.600  0.00  0.00    -0.004 A 
ENDBRANCH   4  20
BRANCH   5   6
ATOM      6  N   UNL     1      -3.269   0.998  24.220  0.00  0.00    -0.076 NA
BRANCH   6   7
ATOM      7  S   UNL     1      -2.793   1.657  24.358  0.00  0.00    +0.077 S 
ATOM      8  O   UNL     1      -2.940   1.923  23.590  0.00  0.00    -0.152 OA
ATOM      9  O   UNL     1      -2.646   1.392  25.125  0.00  0.00    -0.152 OA
BRANCH   7  10
ATOM     10  C   UNL     1      -2.316   2.317  24.494  0.00  0.00    +0.124 A 
ATOM     11  C   UNL     1      -1.971   2.715  23.859  0.00  0.00    +0.021 A 
ATOM     12  C   UNL     1      -1.495   3.374  23.996  0.00  0.00    +0.012 A 
ATOM     13  C   UNL     1      -1.364   3.636  24.768  0.00  0.00    +0.069 A 
ATOM     14  C   UNL     1      -1.710   3.238  25.402  0.00  0.00    +0.012 A 
ATOM     15  C   UNL     1      -2.186   2.578  25.266  0.00  0.00    +0.021 A 
BRANCH  13  16
ATOM     16  C   UNL     1      -0.888   4.295  24.905  0.00  0.00    +0.100 C 
ATOM     17  N   UNL     1      -0.411   4.955  25.041  0.00  0.00    -0.191 NA
ENDBRANCH  13  16
ENDBRANCH   7  10
ENDBRANCH   6   7
ENDBRANCH   5   6
TORSDOF 5
ENDMDL
