MODEL 1
REMARK VINA RESULT:     -10.1      0.000      0.000
REMARK  Name = 
REMARK  14 active torsions:
REMARK  status: ('A' for Active; 'I' for Inactive)
REMARK    1  A    between atoms: O_2  and  C_3
REMARK    2  A    between atoms: C_5  and  N_6
REMARK    3  A    between atoms: N_9  and  C_10
REMARK    4  A    between atoms: C_12  and  C_22
REMARK    5  A    between atoms: C_15  and  C_17
REMARK    6  A    between atoms: C_17  and  C_18
REMARK    7  A    between atoms: N_24  and  C_25
REMARK    8  A    between atoms: C_25  and  C_26
REMARK    9  A    between atoms: C_25  and  C_37
REMARK   10  A    between atoms: C_26  and  C_27
REMARK   11  A    between atoms: C_27  and  C_28
REMARK   12  A    between atoms: C_28  and  N_29
REMARK   13  A    between atoms: C_30  and  C_32
REMARK   14  A    between atoms: C_32  and  C_33
REMARK                            x       y       z     vdW  Elec       q    Type
REMARK                         _______ _______ _______ _____ _____    ______ ____
ROOT
ATOM     10  C   UNL     1       0.502   0.057  23.366  0.00  0.00    +0.119 C 
ATOM     11  C   UNL     1       0.346   0.724  23.825  0.00  0.00    +0.053 C 
ATOM     12  C   UNL     1      -0.298   0.553  24.312  0.00  0.00    +0.155 C 
ATOM     13  N   UNL     1      -0.538  -0.221  24.154  0.00  0.00    -0.271 N 
ATOM     14  C   UNL     1      -0.044  -0.526  23.570  0.00  0.00    +0.115 C 
ATOM     15  C   UNL     1      -1.163  -0.617  24.518  0.00  0.00    +0.226 C 
ATOM     16  O   UNL     1      -1.340  -1.394  24.302  0.00  0.00    -0.275 OA
ENDROOT
BRANCH  10   9
ATOM      6  N   UNL     1       2.481   0.071  22.444  0.00  0.00    -0.161 NA
ATOM      7  C   UNL     1       1.883   0.143  23.008  0.00  0.00    +0.343 C 
ATOM      8  O   UNL     1       2.068   0.372  23.778  0.00  0.00    -0.249 OA
ATOM      9  N   UNL     1       1.100  -0.015  22.802  0.00  0.00    -0.187 NA
BRANCH   6   5
ATOM      3  C   UNL     1       4.504  -0.199  23.215  0.00  0.00    +0.140 A 
ATOM      4  C   UNL     1       3.722  -0.357  23.008  0.00  0.00    +0.054 A 
ATOM      5  C   UNL     1       3.263   0.229  22.650  0.00  0.00    +0.078 A 
ATOM     40  C   UNL     1       3.589   0.972  22.499  0.00  0.00    +0.017 A 
ATOM     41  C   UNL     1       4.371   1.129  22.706  0.00  0.00    +0.004 A 
ATOM     42  C   UNL     1       4.830   0.543  23.064  0.00  0.00    +0.037 A 
BRANCH   3   2
ATOM      1  C   UNL     1       5.491  -0.585  24.174  0.00  0.00    +0.252 C 
ATOM      2  O   UNL     1       4.963  -0.785  23.573  0.00  0.00    -0.471 OA
ENDBRANCH   3   2
ENDBRANCH   6   5
ENDBRANCH  10   9
BRANCH  12  22
ATOM     22  C   UNL     1      -0.640   1.065  24.861  0.00  0.00    +0.260 C 
ATOM     23  O   UNL     1      -0.859   0.785  25.606  0.00  0.00    -0.272 OA
ATOM     24  N   UNL     1      -0.763   1.857  24.666  0.00  0.00    -0.196 NA
BRANCH  24  25
ATOM     25  C   UNL     1      -1.105   2.369  25.215  0.00  0.00    +0.174 C 
BRANCH  25  37
ATOM     37  C   UNL     1      -0.625   2.822  25.710  0.00  0.00    +0.281 C 
ATOM     38  N   UNL     1      -0.147   3.415  25.393  0.00  0.00    -0.086 NA
ATOM     39  O   UNL     1      -0.622   2.682  26.524  0.00  0.00    -0.270 OA
ENDBRANCH  25  37
BRANCH  25  26
ATOM     26  C   UNL     1      -1.925   2.429  25.269  0.00  0.00    +0.033 C 
BRANCH  26  27
ATOM     27  C   UNL     1      -2.324   3.017  24.851  0.00  0.00    +0.026 C 
BRANCH  27  28
ATOM     28  C   UNL     1      -3.078   3.254  25.088  0.00  0.00    +0.115 C 
BRANCH  28  29
ATOM     29  N   UNL     1      -3.745   2.890  24.768  0.00  0.00    -0.205 NA
ATOM     30  C   UNL     1      -4.491   3.042  25.086  0.00  0.00    +0.241 C 
ATOM     31  O   UNL     1      -4.570   3.559  25.724  0.00  0.00    -0.273 OA
BRANCH  30  32
ATOM     32  C   UNL     1      -5.158   2.678  24.766  0.00  0.00    +0.087 C 
BRANCH  32  33
ATOM     33  C   UNL     1      -5.673   2.257  25.254  0.00  0.00    +0.009 C 
ATOM     34  C   UNL     1      -6.188   1.836  25.742  0.00  0.00    +0.000 C 
ATOM     35  C   UNL     1      -5.453   1.555  24.881  0.00  0.00    +0.000 C 
ATOM     36  C   UNL     1      -5.893   2.959  25.628  0.00  0.00    +0.000 C 
ENDBRANCH  32  33
ENDBRANCH  30  32
ENDBRANCH  28  29
ENDBRANCH  27  28
ENDBRANCH  26  27
ENDBRANCH  25  26
ENDBRANCH  24  25
ENDBRANCH  12  22
BRANCH  15  17
ATOM     17  C   UNL     1      -1.612  -0.238  25.097  0.00  0.00    +0.085 C 
BRANCH  17  18
ATOM     18  C   UNL     1      -2.243  -0.632  25.453  0.00  0.00    +0.009 C 
ATOM     19  C   UNL     1      -1.773  -0.790  26.112  0.00  0.00    +0.000 C 
ATOM     20  C   UNL     1      -2.714  -0.473  24.794  0.00  0.00    +0.000 C 
ATOM     21  C   UNL     1      -2.875  -1.025  25.809  0.00  0.00    +0.000 C 
ENDBRANCH  17  18
ENDBRANCH  15  17
TORSDOF 14
ENDMDL
MODEL 2
REMARK VINA RESULT:      -9.6      0.989      2.319
REMARK  Name = 
REMARK  14 active torsions:
REMARK  status: ('A' for Active; 'I' for Inactive)
REMARK    1  A    between atoms: O_2  and  C_3
REMARK    2  A    between atoms: C_5  and  N_6
REMARK    3  A    between atoms: N_9  and  C_10
REMARK    4  A    between atoms: C_12  and  C_22
REMARK    5  A    between atoms: C_15  and  C_17
REMARK    6  A    between atoms: C_17  and  C_18
REMARK    7  A    between atoms: N_24  and  C_25
REMARK    8  A    between atoms: C_25  and  C_26
REMARK    9  A    between atoms: C_25  and  C_37
REMARK   10  A    between atoms: C_26  and  C_27
REMARK   11  A    between atoms: C_27  and  C_28
REMARK   12  A    between atoms: C_28  and  N_29
REMARK   13  A    between atoms: C_30  and  C_32
REMARK   14  A    between atoms: C_32  and  C_33
REMARK                            x       y       z     vdW  Elec       q    Type
REMARK                         _______ _______ _______ _____ _____    ______ ____
ROOT
ATOM     10  C   UNL     1       0.636   0.617  23.436  0.00  0.00    +0.119 C 
ATOM     11  C   UNL     1       0.088   0.154  23.843  0.00  0.00    +0.053 C 
ATOM     12  C   UNL     1      -0.373   0.656  24.310  0.00  0.00    +0.155 C 
ATOM     13  N   UNL     1      -0.108   1.428  24.190  0.00  0.00    -0.271 N 
ATOM     14  C   UNL     1       0.514   1.404  23.651  0.00  0.00    +0.115 C 
ATOM     15  C   UNL     1      -0.415   2.105  24.548  0.00  0.00    +0.226 C 
ATOM     16  O   UNL     1      -0.092   2.845  24.374  0.00  0.00    -0.275 OA
ENDROOT
BRANCH  10   9
ATOM      6  N   UNL     1       2.578   0.142  22.558  0.00  0.00    -0.161 NA
ATOM      7  C   UNL     1       2.007   0.418  23.087  0.00  0.00    +0.343 C 
ATOM      8  O   UNL     1       2.239   0.770  23.796  0.00  0.00    -0.249 OA
ATOM      9  N   UNL     1       1.206   0.341  22.907  0.00  0.00    -0.187 NA
BRANCH   6   5
ATOM      3  C   UNL     1       4.570  -0.305  23.328  0.00  0.00    +0.140 A 
ATOM      4  C   UNL     1       3.769  -0.382  23.149  0.00  0.00    +0.054 A 
ATOM      5  C   UNL     1       3.379   0.219  22.738  0.00  0.00    +0.078 A 
ATOM     40  C   UNL     1       3.790   0.895  22.508  0.00  0.00    +0.017 A 
ATOM     41  C   UNL     1       4.591   0.972  22.688  0.00  0.00    +0.004 A 
ATOM     42  C   UNL     1       4.981   0.372  23.099  0.00  0.00    +0.037 A 
BRANCH   3   2
ATOM      1  C   UNL     1       5.594  -0.722  24.234  0.00  0.00    +0.252 C 
ATOM      2  O   UNL     1       4.960  -0.905  23.739  0.00  0.00    -0.471 OA
ENDBRANCH   3   2
ENDBRANCH   6   5
ENDBRANCH  10   9
BRANCH  12  22
ATOM     22  C   UNL     1      -0.989   0.424  24.807  0.00  0.00    +0.260 C 
ATOM     23  O   UNL     1      -1.028   0.716  25.578  0.00  0.00    -0.272 OA
ATOM     24  N   UNL     1      -1.566  -0.098  24.535  0.00  0.00    -0.196 NA
BRANCH  24  25
ATOM     25  C   UNL     1      -2.182  -0.329  25.033  0.00  0.00    +0.174 C 
BRANCH  25  37
ATOM     37  C   UNL     1      -2.130  -1.039  25.450  0.00  0.00    +0.281 C 
ATOM     38  N   UNL     1      -2.100  -1.756  25.043  0.00  0.00    -0.086 NA
ATOM     39  O   UNL     1      -2.109  -1.033  26.275  0.00  0.00    -0.270 OA
ENDBRANCH  25  37
BRANCH  25  26
ATOM     26  C   UNL     1      -2.849   0.148  25.113  0.00  0.00    +0.033 C 
BRANCH  26  27
ATOM     27  C   UNL     1      -3.544  -0.043  24.714  0.00  0.00    +0.026 C 
BRANCH  27  28
ATOM     28  C   UNL     1      -4.268   0.253  24.978  0.00  0.00    +0.115 C 
BRANCH  28  29
ATOM     29  N   UNL     1      -4.567   0.954  24.662  0.00  0.00    -0.205 NA
ATOM     30  C   UNL     1      -5.169   1.359  25.054  0.00  0.00    +0.241 C 
ATOM     31  O   UNL     1      -5.472   1.064  25.762  0.00  0.00    -0.273 OA
BRANCH  30  32
ATOM     32  C   UNL     1      -5.469   2.060  24.738  0.00  0.00    +0.087 C 
BRANCH  32  33
ATOM     33  C   UNL     1      -5.476   2.748  25.193  0.00  0.00    +0.009 C 
ATOM     34  C   UNL     1      -5.482   3.437  25.646  0.00  0.00    +0.000 C 
ATOM     35  C   UNL     1      -6.010   2.399  25.714  0.00  0.00    +0.000 C 
ATOM     36  C   UNL     1      -4.940   3.098  24.670  0.00  0.00    +0.000 C 
ENDBRANCH  32  33
ENDBRANCH  30  32
ENDBRANCH  28  29
ENDBRANCH  27  28
ENDBRANCH  26  27
ENDBRANCH  25  26
ENDBRANCH  24  25
ENDBRANCH  12  22
BRANCH  15  17
ATOM     17  C   UNL     1      -1.043   2.043  25.080  0.00  0.00    +0.085 C 
BRANCH  17  18
ATOM     18  C   UNL     1      -1.330   2.718  25.458  0.00  0.00    +0.009 C 
ATOM     19  C   UNL     1      -0.921   2.508  26.142  0.00  0.00    +0.000 C 
ATOM     20  C   UNL     1      -1.740   2.928  24.772  0.00  0.00    +0.000 C 
ATOM     21  C   UNL     1      -1.618   3.392  25.836  0.00  0.00    +0.000 C 
ENDBRANCH  17  18
ENDBRANCH  15  17
TORSDOF 14
ENDMDL
MODEL 3
REMARK VINA RESULT:      -9.5      1.675      6.253
REMARK  Name = 
REMARK  14 active torsions:
REMARK  status: ('A' for Active; 'I' for Inactive)
REMARK    1  A    between atoms: O_2  and  C_3
REMARK    2  A    between atoms: C_5  and  N_6
REMARK    3  A    between atoms: N_9  and  C_10
REMARK    4  A    between atoms: C_12  and  C_22
REMARK    5  A    between atoms: C_15  and  C_17
REMARK    6  A    between atoms: C_17  and  C_18
REMARK    7  A    between atoms: N_24  and  C_25
REMARK    8  A    between atoms: C_25  and  C_26
REMARK    9  A    between atoms: C_25  and  C_37
REMARK   10  A    between atoms: C_26  and  C_27
REMARK   11  A    between atoms: C_27  and  C_28
REMARK   12  A    between atoms: C_28  and  N_29
REMARK   13  A    between atoms: C_30  and  C_32
REMARK   14  A    between atoms: C_32  and  C_33
REMARK                            x       y       z     vdW  Elec       q    Type
REMARK                         _______ _______ _______ _____ _____    ______ ____
ROOT
ATOM     10  C   UNL     1      -3.543   1.055  24.212  0.00  0.00    +0.119 C 
ATOM     11  C   UNL     1      -2.764   0.782  24.202  0.00  0.00    +0.053 C 
ATOM     12  C   UNL     1      -2.783  -0.042  24.253  0.00  0.00    +0.155 C 
ATOM     13  N   UNL     1      -3.573  -0.276  24.296  0.00  0.00    -0.271 N 
ATOM     14  C   UNL     1      -4.042   0.402  24.271  0.00  0.00    +0.115 C 
ATOM     15  C   UNL     1      -3.845  -1.053  24.354  0.00  0.00    +0.226 C 
ATOM     16  O   UNL     1      -4.655  -1.204  24.392  0.00  0.00    -0.275 OA
ENDROOT
BRANCH  10   9
ATOM      6  N   UNL     1      -3.658   3.198  24.614  0.00  0.00    -0.161 NA
ATOM      7  C   UNL     1      -3.420   2.409  24.654  0.00  0.00    +0.343 C 
ATOM      8  O   UNL     1      -2.823   2.184  25.177  0.00  0.00    -0.249 OA
ATOM      9  N   UNL     1      -3.780   1.845  24.172  0.00  0.00    -0.187 NA
BRANCH   6   5
ATOM      3  C   UNL     1      -2.314   4.781  25.286  0.00  0.00    +0.140 A 
ATOM      4  C   UNL     1      -2.674   4.217  24.804  0.00  0.00    +0.054 A 
ATOM      5  C   UNL     1      -3.298   3.762  25.096  0.00  0.00    +0.078 A 
ATOM     40  C   UNL     1      -3.561   3.872  25.870  0.00  0.00    +0.017 A 
ATOM     41  C   UNL     1      -3.201   4.436  26.352  0.00  0.00    +0.004 A 
ATOM     42  C   UNL     1      -2.577   4.891  26.060  0.00  0.00    +0.037 A 
BRANCH   3   2
ATOM      1  C   UNL     1      -0.919   4.945  25.024  0.00  0.00    +0.252 C 
ATOM      2  O   UNL     1      -1.690   5.236  24.994  0.00  0.00    -0.471 OA
ENDBRANCH   3   2
ENDBRANCH   6   5
ENDBRANCH  10   9
BRANCH  12  22
ATOM     22  C   UNL     1      -2.127  -0.542  24.261  0.00  0.00    +0.260 C 
ATOM     23  O   UNL     1      -2.141  -1.247  23.834  0.00  0.00    -0.272 OA
ATOM     24  N   UNL     1      -1.457  -0.337  24.695  0.00  0.00    -0.196 NA
BRANCH  24  25
ATOM     25  C   UNL     1      -0.800  -0.836  24.703  0.00  0.00    +0.174 C 
BRANCH  25  37
ATOM     37  C   UNL     1      -0.613  -1.261  25.385  0.00  0.00    +0.281 C 
ATOM     38  N   UNL     1      -0.680  -0.903  26.125  0.00  0.00    -0.086 NA
ATOM     39  O   UNL     1      -0.360  -2.045  25.327  0.00  0.00    -0.270 OA
ENDBRANCH  25  37
BRANCH  25  26
ATOM     26  C   UNL     1      -0.331  -0.912  24.029  0.00  0.00    +0.033 C 
BRANCH  26  27
ATOM     27  C   UNL     1       0.238  -0.340  23.856  0.00  0.00    +0.026 C 
BRANCH  27  28
ATOM     28  C   UNL     1       0.851  -0.512  23.332  0.00  0.00    +0.115 C 
BRANCH  28  29
ATOM     29  N   UNL     1       1.279   0.099  22.982  0.00  0.00    -0.205 NA
ATOM     30  C   UNL     1       2.083   0.002  22.821  0.00  0.00    +0.241 C 
ATOM     31  O   UNL     1       2.457  -0.709  23.010  0.00  0.00    -0.273 OA
BRANCH  30  32
ATOM     32  C   UNL     1       2.511   0.613  22.472  0.00  0.00    +0.087 C 
BRANCH  32  33
ATOM     33  C   UNL     1       3.335   0.614  22.509  0.00  0.00    +0.009 C 
ATOM     34  C   UNL     1       4.159   0.614  22.545  0.00  0.00    +0.000 C 
ATOM     35  C   UNL     1       3.307   1.143  23.141  0.00  0.00    +0.000 C 
ATOM     36  C   UNL     1       3.364   0.085  21.876  0.00  0.00    +0.000 C 
ENDBRANCH  32  33
ENDBRANCH  30  32
ENDBRANCH  28  29
ENDBRANCH  27  28
ENDBRANCH  26  27
ENDBRANCH  25  26
ENDBRANCH  24  25
ENDBRANCH  12  22
BRANCH  15  17
ATOM     17  C   UNL     1      -3.307  -1.678  24.373  0.00  0.00    +0.085 C 
BRANCH  17  18
ATOM     18  C   UNL     1      -3.580  -2.454  24.445  0.00  0.00    +0.009 C 
ATOM     19  C   UNL     1      -3.531  -2.394  25.266  0.00  0.00    +0.000 C 
ATOM     20  C   UNL     1      -3.628  -2.513  23.623  0.00  0.00    +0.000 C 
ATOM     21  C   UNL     1      -3.852  -3.229  24.516  0.00  0.00    +0.000 C 
ENDBRANCH  17  18
ENDBRANCH  15  17
TORSDOF 14
ENDMDL
MODEL 4
REMARK VINA RESULT:      -9.1      1.575      3.568
REMARK  Name = 
REMARK  14 active torsions:
REMARK  status: ('A' for Active; 'I' for Inactive)
REMARK    1  A    between atoms: O_2  and  C_3
REMARK    2  A    between atoms: C_5  and  N_6
REMARK    3  A    between atoms: N_9  and  C_10
REMARK    4  A    between atoms: C_12  and  C_22
REMARK    5  A    between atoms: C_15  and  C_17
REMARK    6  A    between atoms: C_17  and  C_18
REMARK    7  A    between atoms: N_24  and  C_25
REMARK    8  A    between atoms: C_25  and  C_26
REMARK    9  A    between atoms: C_25  and  C_37
REMARK   10  A    between atoms: C_26  and  C_27
REMARK   11  A    between atoms: C_27  and  C_28
REMARK   12  A    between atoms: C_28  and  N_29
REMARK   13  A    between atoms: C_30  and  C_32
REMARK   14  A    between atoms: C_32  and  C_33
REMARK                            x       y       z     vdW  Elec       q    Type
REMARK                         _______ _______ _______ _____ _____    ______ ____
ROOT
ATOM     10  C   UNL     1      -0.225   1.317  24.616  0.00  0.00    +0.119 C 
ATOM     11  C   UNL     1      -1.041   1.249  24.522  0.00  0.00    +0.053 C 
ATOM     12  C   UNL     1      -1.378   1.984  24.685  0.00  0.00    +0.155 C 
ATOM     13  N   UNL     1      -0.770   2.506  24.881  0.00  0.00    -0.271 N 
ATOM     14  C   UNL     1      -0.057   2.093  24.838  0.00  0.00    +0.115 C 
ATOM     15  C   UNL     1      -0.859   3.300  25.084  0.00  0.00    +0.226 C 
ATOM     16  O   UNL     1      -0.196   3.757  25.267  0.00  0.00    -0.275 OA
ENDROOT
BRANCH  10   9
ATOM      6  N   UNL     1       1.368   0.112  23.734  0.00  0.00    -0.161 NA
ATOM      7  C   UNL     1       0.815   0.715  23.843  0.00  0.00    +0.343 C 
ATOM      8  O   UNL     1       0.751   1.320  23.285  0.00  0.00    -0.249 OA
ATOM      9  N   UNL     1       0.328   0.714  24.508  0.00  0.00    -0.187 NA
BRANCH   6   5
ATOM      3  C   UNL     1       3.091   0.462  22.441  0.00  0.00    +0.140 A 
ATOM      4  C   UNL     1       2.604   0.460  23.106  0.00  0.00    +0.054 A 
ATOM      5  C   UNL     1       1.855   0.114  23.069  0.00  0.00    +0.078 A 
ATOM     40  C   UNL     1       1.595  -0.230  22.366  0.00  0.00    +0.017 A 
ATOM     41  C   UNL     1       2.083  -0.229  21.701  0.00  0.00    +0.004 A 
ATOM     42  C   UNL     1       2.831   0.118  21.738  0.00  0.00    +0.037 A 
BRANCH   3   2
ATOM      1  C   UNL     1       4.455   0.420  22.866  0.00  0.00    +0.252 C 
ATOM      2  O   UNL     1       3.839   0.808  22.479  0.00  0.00    -0.471 OA
ENDBRANCH   3   2
ENDBRANCH   6   5
ENDBRANCH  10   9
BRANCH  12  22
ATOM     22  C   UNL     1      -2.183   2.165  24.658  0.00  0.00    +0.260 C 
ATOM     23  O   UNL     1      -2.535   2.576  25.281  0.00  0.00    -0.272 OA
ATOM     24  N   UNL     1      -2.636   1.936  24.009  0.00  0.00    -0.196 NA
BRANCH  24  25
ATOM     25  C   UNL     1      -3.441   2.116  23.981  0.00  0.00    +0.174 C 
BRANCH  25  37
ATOM     37  C   UNL     1      -3.724   2.653  23.422  0.00  0.00    +0.281 C 
ATOM     38  N   UNL     1      -3.456   2.616  22.642  0.00  0.00    -0.086 NA
ATOM     39  O   UNL     1      -4.275   3.227  23.642  0.00  0.00    -0.270 OA
ENDBRANCH  25  37
BRANCH  25  26
ATOM     26  C   UNL     1      -3.962   1.761  24.512  0.00  0.00    +0.033 C 
BRANCH  26  27
ATOM     27  C   UNL     1      -4.387   1.092  24.287  0.00  0.00    +0.026 C 
BRANCH  27  28
ATOM     28  C   UNL     1      -4.424   0.437  24.788  0.00  0.00    +0.115 C 
BRANCH  28  29
ATOM     29  N   UNL     1      -4.395  -0.325  24.475  0.00  0.00    -0.205 NA
ATOM     30  C   UNL     1      -4.086  -0.945  24.923  0.00  0.00    +0.241 C 
ATOM     31  O   UNL     1      -3.805  -0.802  25.686  0.00  0.00    -0.273 OA
BRANCH  30  32
ATOM     32  C   UNL     1      -4.057  -1.707  24.610  0.00  0.00    +0.087 C 
BRANCH  32  33
ATOM     33  C   UNL     1      -3.359  -2.145  24.653  0.00  0.00    +0.009 C 
ATOM     34  C   UNL     1      -2.662  -2.584  24.696  0.00  0.00    +0.000 C 
ATOM     35  C   UNL     1      -3.579  -2.422  25.398  0.00  0.00    +0.000 C 
ATOM     36  C   UNL     1      -3.140  -1.869  23.907  0.00  0.00    +0.000 C 
ENDBRANCH  32  33
ENDBRANCH  30  32
ENDBRANCH  28  29
ENDBRANCH  27  28
ENDBRANCH  26  27
ENDBRANCH  25  26
ENDBRANCH  24  25
ENDBRANCH  12  22
BRANCH  15  17
ATOM     17  C   UNL     1      -1.611   3.639  25.103  0.00  0.00    +0.085 C 
BRANCH  17  18
ATOM     18  C   UNL     1      -1.697   4.444  25.264  0.00  0.00    +0.009 C 
ATOM     19  C   UNL     1      -1.342   4.626  24.542  0.00  0.00    +0.000 C 
ATOM     20  C   UNL     1      -2.052   4.262  25.987  0.00  0.00    +0.000 C 
ATOM     21  C   UNL     1      -1.783   5.248  25.426  0.00  0.00    +0.000 C 
ENDBRANCH  17  18
ENDBRANCH  15  17
TORSDOF 14
ENDMDL
MODEL 5
REMARK VINA RESULT:      -8.9      2.062      5.883
REMARK  Name = 
REMARK  14 active torsions:
REMARK  status: ('A' for Active; 'I' for Inactive)
REMARK    1  A    between atoms: O_2  and  C_3
REMARK    2  A    between atoms: C_5  and  N_6
REMARK    3  A    between atoms: N_9  and  C_10
REMARK    4  A    between atoms: C_12  and  C_22
REMARK    5  A    between atoms: C_15  and  C_17
REMARK    6  A    between atoms: C_17  and  C_18
REMARK    7  A    between atoms: N_24  and  C_25
REMARK    8  A    between atoms: C_25  and  C_26
REMARK    9  A    between atoms: C_25  and  C_37
REMARK   10  A    between atoms: C_26  and  C_27
REMARK   11  A    between atoms: C_27  and  C_28
REMARK   12  A    between atoms: C_28  and  N_29
REMARK   13  A    between atoms: C_30  and  C_32
REMARK   14  A    between atoms: C_32  and  C_33
REMARK                            x       y       z     vdW  Elec       q    Type
REMARK                         _______ _______ _______ _____ _____    ______ ____
ROOT
ATOM     10  C   UNL     1      -3.312   0.060  24.249  0.00  0.00    +0.119 C 
ATOM     11  C   UNL     1      -2.585   0.441  24.166  0.00  0.00    +0.053 C 
ATOM     12  C   UNL     1      -1.992  -0.096  24.367  0.00  0.00    +0.155 C 
ATOM     13  N   UNL     1      -2.353  -0.808  24.575  0.00  0.00    -0.271 N 
ATOM     14  C   UNL     1      -3.168  -0.711  24.501  0.00  0.00    +0.115 C 
ATOM     15  C   UNL     1      -1.965  -1.496  24.813  0.00  0.00    +0.226 C 
ATOM     16  O   UNL     1      -2.402  -2.170  25.004  0.00  0.00    -0.275 OA
ENDROOT
BRANCH  10   9
ATOM      6  N   UNL     1      -5.107   1.280  24.484  0.00  0.00    -0.161 NA
ATOM      7  C   UNL     1      -4.366   0.947  24.629  0.00  0.00    +0.343 C 
ATOM      8  O   UNL     1      -3.939   1.168  25.298  0.00  0.00    -0.249 OA
ATOM      9  N   UNL     1      -4.053   0.393  24.104  0.00  0.00    -0.187 NA
BRANCH   6   5
ATOM      3  C   UNL     1      -5.566   3.190  25.435  0.00  0.00    +0.140 A 
ATOM      4  C   UNL     1      -5.254   2.636  24.910  0.00  0.00    +0.054 A 
ATOM      5  C   UNL     1      -5.420   1.834  25.009  0.00  0.00    +0.078 A 
ATOM     40  C   UNL     1      -5.900   1.586  25.633  0.00  0.00    +0.017 A 
ATOM     41  C   UNL     1      -6.213   2.140  26.157  0.00  0.00    +0.004 A 
ATOM     42  C   UNL     1      -6.046   2.942  26.059  0.00  0.00    +0.037 A 
BRANCH   3   2
ATOM      1  C   UNL     1      -5.916   4.561  25.636  0.00  0.00    +0.252 C 
ATOM      2  O   UNL     1      -5.400   3.992  25.337  0.00  0.00    -0.471 OA
ENDBRANCH   3   2
ENDBRANCH   6   5
ENDBRANCH  10   9
BRANCH  12  22
ATOM     22  C   UNL     1      -1.180   0.054  24.362  0.00  0.00    +0.260 C 
ATOM     23  O   UNL     1      -0.720  -0.151  25.015  0.00  0.00    -0.272 OA
ATOM     24  N   UNL     1      -0.830   0.408  23.706  0.00  0.00    -0.196 NA
BRANCH  24  25
ATOM     25  C   UNL     1      -0.018   0.558  23.700  0.00  0.00    +0.174 C 
BRANCH  25  37
ATOM     37  C   UNL     1       0.470   0.166  23.163  0.00  0.00    +0.281 C 
ATOM     38  N   UNL     1       1.239  -0.039  23.377  0.00  0.00    -0.086 NA
ATOM     39  O   UNL     1       0.188  -0.022  22.410  0.00  0.00    -0.270 OA
ENDBRANCH  25  37
BRANCH  25  26
ATOM     26  C   UNL     1       0.305   1.099  24.232  0.00  0.00    +0.033 C 
BRANCH  26  27
ATOM     27  C   UNL     1       0.424   1.882  24.002  0.00  0.00    +0.026 C 
BRANCH  27  28
ATOM     28  C   UNL     1       0.254   2.497  24.525  0.00  0.00    +0.115 C 
BRANCH  28  29
ATOM     29  N   UNL     1      -0.180   3.149  24.269  0.00  0.00    -0.205 NA
ATOM     30  C   UNL     1      -0.538   3.649  24.819  0.00  0.00    +0.241 C 
ATOM     31  O   UNL     1      -0.460   3.497  25.626  0.00  0.00    -0.273 OA
BRANCH  30  32
ATOM     32  C   UNL     1      -0.972   4.301  24.563  0.00  0.00    +0.087 C 
BRANCH  32  33
ATOM     33  C   UNL     1      -1.515   4.662  25.069  0.00  0.00    +0.009 C 
ATOM     34  C   UNL     1      -2.056   5.023  25.576  0.00  0.00    +0.000 C 
ATOM     35  C   UNL     1      -1.984   3.984  25.050  0.00  0.00    +0.000 C 
ATOM     36  C   UNL     1      -1.045   5.340  25.089  0.00  0.00    +0.000 C 
ENDBRANCH  32  33
ENDBRANCH  30  32
ENDBRANCH  28  29
ENDBRANCH  27  28
ENDBRANCH  26  27
ENDBRANCH  25  26
ENDBRANCH  24  25
ENDBRANCH  12  22
BRANCH  15  17
ATOM     17  C   UNL     1      -1.142  -1.511  24.861  0.00  0.00    +0.085 C 
BRANCH  17  18
ATOM     18  C   UNL     1      -0.755  -2.198  25.103  0.00  0.00    +0.009 C 
ATOM     19  C   UNL     1      -0.567  -1.839  25.821  0.00  0.00    +0.000 C 
ATOM     20  C   UNL     1      -0.944  -2.558  24.384  0.00  0.00    +0.000 C 
ATOM     21  C   UNL     1      -0.369  -2.886  25.345  0.00  0.00    +0.000 C 
ENDBRANCH  17  18
ENDBRANCH  15  17
TORSDOF 14
ENDMDL
MODEL 6
REMARK VINA RESULT:      -8.2      1.631      6.323
REMARK  Name = 
REMARK  14 active torsions:
REMARK  status: ('A' for Active; 'I' for Inactive)
REMARK    1  A    between atoms: O_2  and  C_3
REMARK    2  A    between atoms: C_5  and  N_6
REMARK    3  A    between atoms: N_9  and  C_10
REMARK    4  A    between atoms: C_12  and  C_22
REMARK    5  A    between atoms: C_15  and  C_17
REMARK    6  A    between atoms: C_17  and  C_18
REMARK    7  A    between atoms: N_24  and  C_25
REMARK    8  A    between atoms: C_25  and  C_26
REMARK    9  A    between atoms: C_25  and  C_37
REMARK   10  A    between atoms: C_26  and  C_27
REMARK   11  A    between atoms: C_27  and  C_28
REMARK   12  A    between atoms: C_28  and  N_29
REMARK   13  A    between atoms: C_30  and  C_32
REMARK   14  A    between atoms: C_32  and  C_33
REMARK                            x       y       z     vdW  Elec       q    Type
REMARK                         _______ _______ _______ _____ _____    ______ ____
ROOT
ATOM     10  C   UNL     1      -3.570   1.502  24.952  0.00  0.00    +0.119 C 
ATOM     11  C   UNL     1      -2.751   1.430  24.891  0.00  0.00    +0.053 C 
ATOM     12  C   UNL     1      -2.427   2.189  24.923  0.00  0.00    +0.155 C 
ATOM     13  N   UNL     1      -3.046   2.728  25.003  0.00  0.00    -0.271 N 
ATOM     14  C   UNL     1      -3.752   2.303  25.021  0.00  0.00    +0.115 C 
ATOM     15  C   UNL     1      -2.971   3.547  25.056  0.00  0.00    +0.226 C 
ATOM     16  O   UNL     1      -3.644   4.019  25.135  0.00  0.00    -0.275 OA
ENDROOT
BRANCH  10   9
ATOM      6  N   UNL     1      -4.418  -0.494  24.695  0.00  0.00    -0.161 NA
ATOM      7  C   UNL     1      -3.876   0.128  24.702  0.00  0.00    +0.343 C 
ATOM      8  O   UNL     1      -3.096  -0.003  24.467  0.00  0.00    -0.249 OA
ATOM      9  N   UNL     1      -4.113   0.880  24.944  0.00  0.00    -0.187 NA
BRANCH   6   5
ATOM      3  C   UNL     1      -3.385  -2.416  24.651  0.00  0.00    +0.140 A 
ATOM      4  C   UNL     1      -3.622  -1.664  24.893  0.00  0.00    +0.054 A 
ATOM      5  C   UNL     1      -4.181  -1.245  24.452  0.00  0.00    +0.078 A 
ATOM     40  C   UNL     1      -4.501  -1.579  23.769  0.00  0.00    +0.017 A 
ATOM     41  C   UNL     1      -4.264  -2.331  23.527  0.00  0.00    +0.004 A 
ATOM     42  C   UNL     1      -3.705  -2.749  23.968  0.00  0.00    +0.037 A 
BRANCH   3   2
ATOM      1  C   UNL     1      -2.052  -2.901  24.818  0.00  0.00    +0.252 C 
ATOM      2  O   UNL     1      -2.827  -2.834  25.092  0.00  0.00    -0.471 OA
ENDBRANCH   3   2
ENDBRANCH   6   5
ENDBRANCH  10   9
BRANCH  12  22
ATOM     22  C   UNL     1      -1.624   2.375  24.882  0.00  0.00    +0.260 C 
ATOM     23  O   UNL     1      -1.364   2.971  24.374  0.00  0.00    -0.272 OA
ATOM     24  N   UNL     1      -1.081   1.964  25.347  0.00  0.00    -0.196 NA
BRANCH  24  25
ATOM     25  C   UNL     1      -0.278   2.150  25.305  0.00  0.00    +0.174 C 
BRANCH  25  37
ATOM     37  C   UNL     1       0.132   2.362  25.989  0.00  0.00    +0.281 C 
ATOM     38  N   UNL     1       0.007   1.947  26.691  0.00  0.00    -0.086 NA
ATOM     39  O   UNL     1       0.667   2.991  25.972  0.00  0.00    -0.270 OA
ENDBRANCH  25  37
BRANCH  25  26
ATOM     26  C   UNL     1       0.116   2.123  24.581  0.00  0.00    +0.033 C 
BRANCH  26  27
ATOM     27  C   UNL     1       0.580   1.470  24.388  0.00  0.00    +0.026 C 
BRANCH  27  28
ATOM     28  C   UNL     1       1.123   1.518  23.768  0.00  0.00    +0.115 C 
BRANCH  28  29
ATOM     29  N   UNL     1       1.528   0.844  23.521  0.00  0.00    -0.205 NA
ATOM     30  C   UNL     1       2.291   0.910  23.214  0.00  0.00    +0.241 C 
ATOM     31  O   UNL     1       2.648   1.651  23.154  0.00  0.00    -0.273 OA
BRANCH  30  32
ATOM     32  C   UNL     1       2.697   0.236  22.968  0.00  0.00    +0.087 C 
BRANCH  32  33
ATOM     33  C   UNL     1       3.370   0.308  22.496  0.00  0.00    +0.009 C 
ATOM     34  C   UNL     1       4.044   0.380  22.026  0.00  0.00    +0.000 C 
ATOM     35  C   UNL     1       2.919   0.146  21.826  0.00  0.00    +0.000 C 
ATOM     36  C   UNL     1       3.822   0.470  23.168  0.00  0.00    +0.000 C 
ENDBRANCH  32  33
ENDBRANCH  30  32
ENDBRANCH  28  29
ENDBRANCH  27  28
ENDBRANCH  26  27
ENDBRANCH  25  26
ENDBRANCH  24  25
ENDBRANCH  12  22
BRANCH  15  17
ATOM     17  C   UNL     1      -2.224   3.896  25.030  0.00  0.00    +0.085 C 
BRANCH  17  18
ATOM     18  C   UNL     1      -2.147   4.712  25.127  0.00  0.00    +0.009 C 
ATOM     19  C   UNL     1      -2.018   4.795  24.317  0.00  0.00    +0.000 C 
ATOM     20  C   UNL     1      -2.276   4.628  25.938  0.00  0.00    +0.000 C 
ATOM     21  C   UNL     1      -2.069   5.527  25.224  0.00  0.00    +0.000 C 
ENDBRANCH  17  18
ENDBRANCH  15  17
TORSDOF 14
ENDMDL
MODEL 7
REMARK VINA RESULT:      -7.8      1.463      2.471
REMARK  Name = 
REMARK  14 active torsions:
REMARK  status: ('A' for Active; 'I' for Inactive)
REMARK    1  A    between atoms: O_2  and  C_3
REMARK    2  A    between atoms: C_5  and  N_6
REMARK    3  A    between atoms: N_9  and  C_10
REMARK    4  A    between atoms: C_12  and  C_22
REMARK    5  A    between atoms: C_15  and  C_17
REMARK    6  A    between atoms: C_17  and  C_18
REMARK    7  A    between atoms: N_24  and  C_25
REMARK    8  A    between atoms: C_25  and  C_26
REMARK    9  A    between atoms: C_25  and  C_37
REMARK   10  A    between atoms: C_26  and  C_27
REMARK   11  A    between atoms: C_27  and  C_28
REMARK   12  A    between atoms: C_28  and  N_29
REMARK   13  A    between atoms: C_30  and  C_32
REMARK   14  A    between atoms: C_32  and  C_33
REMARK                            x       y       z     vdW  Elec       q    Type
REMARK                         _______ _______ _______ _____ _____    ______ ____
ROOT
ATOM     10  C   UNL     1       0.211  -0.254  23.263  0.00  0.00    +0.119 C 
ATOM     11  C   UNL     1      -0.404   0.290  23.340  0.00  0.00    +0.053 C 
ATOM     12  C   UNL     1      -0.893   0.037  23.955  0.00  0.00    +0.155 C 
ATOM     13  N   UNL     1      -0.579  -0.664  24.257  0.00  0.00    -0.271 N 
ATOM     14  C   UNL     1       0.103  -0.843  23.830  0.00  0.00    +0.115 C 
ATOM     15  C   UNL     1      -0.892  -1.106  24.879  0.00  0.00    +0.226 C 
ATOM     16  O   UNL     1      -0.516  -1.799  25.123  0.00  0.00    -0.275 OA
ENDROOT
BRANCH  10   9
ATOM      6  N   UNL     1       2.200   0.040  22.411  0.00  0.00    -0.161 NA
ATOM      7  C   UNL     1       1.584   0.001  22.959  0.00  0.00    +0.343 C 
ATOM      8  O   UNL     1       1.726   0.180  23.751  0.00  0.00    -0.249 OA
ATOM      9  N   UNL     1       0.827  -0.216  22.714  0.00  0.00    -0.187 NA
BRANCH   6   5
ATOM      3  C   UNL     1       4.234  -0.099  23.187  0.00  0.00    +0.140 A 
ATOM      4  C   UNL     1       3.477  -0.316  22.943  0.00  0.00    +0.054 A 
ATOM      5  C   UNL     1       2.956   0.256  22.655  0.00  0.00    +0.078 A 
ATOM     40  C   UNL     1       3.194   1.045  22.613  0.00  0.00    +0.017 A 
ATOM     41  C   UNL     1       3.951   1.262  22.857  0.00  0.00    +0.004 A 
ATOM     42  C   UNL     1       4.472   0.689  23.145  0.00  0.00    +0.037 A 
BRANCH   3   2
ATOM      1  C   UNL     1       5.428  -0.444  23.893  0.00  0.00    +0.252 C 
ATOM      2  O   UNL     1       4.755  -0.672  23.475  0.00  0.00    -0.471 OA
ENDBRANCH   3   2
ENDBRANCH   6   5
ENDBRANCH  10   9
BRANCH  12  22
ATOM     22  C   UNL     1      -1.575   0.418  24.220  0.00  0.00    +0.260 C 
ATOM     23  O   UNL     1      -1.676   0.569  25.025  0.00  0.00    -0.272 OA
ATOM     24  N   UNL     1      -2.156   0.647  23.681  0.00  0.00    -0.196 NA
BRANCH  24  25
ATOM     25  C   UNL     1      -2.838   1.028  23.947  0.00  0.00    +0.174 C 
BRANCH  25  37
ATOM     37  C   UNL     1      -3.580   0.709  23.777  0.00  0.00    +0.281 C 
ATOM     38  N   UNL     1      -3.733   0.393  23.031  0.00  0.00    -0.086 NA
ATOM     39  O   UNL     1      -4.170   0.707  24.355  0.00  0.00    -0.270 OA
ENDBRANCH  25  37
BRANCH  25  26
ATOM     26  C   UNL     1      -2.779   1.727  24.380  0.00  0.00    +0.033 C 
BRANCH  26  27
ATOM     27  C   UNL     1      -2.916   2.452  24.014  0.00  0.00    +0.026 C 
BRANCH  27  28
ATOM     28  C   UNL     1      -3.016   3.133  24.470  0.00  0.00    +0.115 C 
BRANCH  28  29
ATOM     29  N   UNL     1      -2.372   3.463  24.866  0.00  0.00    -0.205 NA
ATOM     30  C   UNL     1      -2.364   4.269  25.042  0.00  0.00    +0.241 C 
ATOM     31  O   UNL     1      -3.001   4.745  24.821  0.00  0.00    -0.273 OA
BRANCH  30  32
ATOM     32  C   UNL     1      -1.721   4.599  25.438  0.00  0.00    +0.087 C 
BRANCH  32  33
ATOM     33  C   UNL     1      -1.220   5.125  25.046  0.00  0.00    +0.009 C 
ATOM     34  C   UNL     1      -0.721   5.653  24.655  0.00  0.00    +0.000 C 
ATOM     35  C   UNL     1      -0.661   4.527  24.955  0.00  0.00    +0.000 C 
ATOM     36  C   UNL     1      -1.781   5.725  25.138  0.00  0.00    +0.000 C 
ENDBRANCH  32  33
ENDBRANCH  30  32
ENDBRANCH  28  29
ENDBRANCH  27  28
ENDBRANCH  26  27
ENDBRANCH  25  26
ENDBRANCH  24  25
ENDBRANCH  12  22
BRANCH  15  17
ATOM     17  C   UNL     1      -1.582  -0.857  25.256  0.00  0.00    +0.085 C 
BRANCH  17  18
ATOM     18  C   UNL     1      -1.920  -1.323  25.848  0.00  0.00    +0.009 C 
ATOM     19  C   UNL     1      -2.256  -1.808  25.272  0.00  0.00    +0.000 C 
ATOM     20  C   UNL     1      -1.583  -0.836  26.424  0.00  0.00    +0.000 C 
ATOM     21  C   UNL     1      -2.258  -1.788  26.439  0.00  0.00    +0.000 C 
ENDBRANCH  17  18
ENDBRANCH  15  17
TORSDOF 14
ENDMDL
MODEL 8
REMARK VINA RESULT:      -7.4      1.773      5.634
REMARK  Name = 
REMARK  14 active torsions:
REMARK  status: ('A' for Active; 'I' for Inactive)
REMARK    1  A    between atoms: O_2  and  C_3
REMARK    2  A    between atoms: C_5  and  N_6
REMARK    3  A    between atoms: N_9  and  C_10
REMARK    4  A    between atoms: C_12  and  C_22
REMARK    5  A    between atoms: C_15  and  C_17
REMARK    6  A    between atoms: C_17  and  C_18
REMARK    7  A    between atoms: N_24  and  C_25
REMARK    8  A    between atoms: C_25  and  C_26
REMARK    9  A    between atoms: C_25  and  C_37
REMARK   10  A    between atoms: C_26  and  C_27
REMARK   11  A    between atoms: C_27  and  C_28
REMARK   12  A    between atoms: C_28  and  N_29
REMARK   13  A    between atoms: C_30  and  C_32
REMARK   14  A    between atoms: C_32  and  C_33
REMARK                            x       y       z     vdW  Elec       q    Type
REMARK                         _______ _______ _______ _____ _____    ______ ____
ROOT
ATOM     10  C   UNL     1      -0.742   1.813  25.051  0.00  0.00    +0.119 C 
ATOM     11  C   UNL     1      -0.936   1.014  25.114  0.00  0.00    +0.053 C 
ATOM     12  C   UNL     1      -0.429   0.590  24.619  0.00  0.00    +0.155 C 
ATOM     13  N   UNL     1       0.077   1.128  24.251  0.00  0.00    -0.271 N 
ATOM     14  C   UNL     1      -0.117   1.883  24.519  0.00  0.00    +0.115 C 
ATOM     15  C   UNL     1       0.672   0.942  23.711  0.00  0.00    +0.226 C 
ATOM     16  O   UNL     1       1.137   1.541  23.387  0.00  0.00    -0.275 OA
ENDROOT
BRANCH  10   9
ATOM      6  N   UNL     1      -2.236   3.294  25.635  0.00  0.00    -0.161 NA
ATOM      7  C   UNL     1      -1.868   2.674  25.234  0.00  0.00    +0.343 C 
ATOM      8  O   UNL     1      -2.260   2.293  24.616  0.00  0.00    -0.249 OA
ATOM      9  N   UNL     1      -1.110   2.434  25.452  0.00  0.00    -0.187 NA
BRANCH   6   5
ATOM      3  C   UNL     1      -4.399   3.583  25.676  0.00  0.00    +0.140 A 
ATOM      4  C   UNL     1      -3.641   3.344  25.894  0.00  0.00    +0.054 A 
ATOM      5  C   UNL     1      -2.994   3.534  25.417  0.00  0.00    +0.078 A 
ATOM     40  C   UNL     1      -3.108   3.964  24.722  0.00  0.00    +0.017 A 
ATOM     41  C   UNL     1      -3.866   4.203  24.504  0.00  0.00    +0.004 A 
ATOM     42  C   UNL     1      -4.512   4.013  24.981  0.00  0.00    +0.037 A 
BRANCH   3   2
ATOM      1  C   UNL     1      -5.705   3.024  25.825  0.00  0.00    +0.252 C 
ATOM      2  O   UNL     1      -5.045   3.393  26.153  0.00  0.00    -0.471 OA
ENDBRANCH   3   2
ENDBRANCH   6   5
ENDBRANCH  10   9
BRANCH  12  22
ATOM     22  C   UNL     1      -0.430  -0.228  24.511  0.00  0.00    +0.260 C 
ATOM     23  O   UNL     1      -0.307  -0.545  23.759  0.00  0.00    -0.272 OA
ATOM     24  N   UNL     1      -0.552  -0.729  25.154  0.00  0.00    -0.196 NA
BRANCH  24  25
ATOM     25  C   UNL     1      -0.553  -1.548  25.047  0.00  0.00    +0.174 C 
BRANCH  25  37
ATOM     37  C   UNL     1       0.005  -2.014  25.436  0.00  0.00    +0.281 C 
ATOM     38  N   UNL     1       0.380  -2.630  25.035  0.00  0.00    -0.086 NA
ATOM     39  O   UNL     1       0.188  -1.866  26.227  0.00  0.00    -0.270 OA
ENDBRANCH  25  37
BRANCH  25  26
ATOM     26  C   UNL     1      -1.110  -1.899  24.551  0.00  0.00    +0.033 C 
BRANCH  26  27
ATOM     27  C   UNL     1      -1.711  -2.365  24.870  0.00  0.00    +0.026 C 
BRANCH  27  28
ATOM     28  C   UNL     1      -2.456  -2.378  24.517  0.00  0.00    +0.115 C 
BRANCH  28  29
ATOM     29  N   UNL     1      -3.061  -1.901  24.810  0.00  0.00    -0.205 NA
ATOM     30  C   UNL     1      -3.775  -1.841  24.401  0.00  0.00    +0.241 C 
ATOM     31  O   UNL     1      -3.883  -2.257  23.697  0.00  0.00    -0.273 OA
BRANCH  30  32
ATOM     32  C   UNL     1      -4.380  -1.364  24.694  0.00  0.00    +0.087 C 
BRANCH  32  33
ATOM     33  C   UNL     1      -4.430  -0.572  24.468  0.00  0.00    +0.009 C 
ATOM     34  C   UNL     1      -4.479   0.220  24.243  0.00  0.00    +0.000 C 
ATOM     35  C   UNL     1      -4.517  -0.802  23.681  0.00  0.00    +0.000 C 
ATOM     36  C   UNL     1      -4.342  -0.342  25.256  0.00  0.00    +0.000 C 
ENDBRANCH  32  33
ENDBRANCH  30  32
ENDBRANCH  28  29
ENDBRANCH  27  28
ENDBRANCH  26  27
ENDBRANCH  25  26
ENDBRANCH  24  25
ENDBRANCH  12  22
BRANCH  15  17
ATOM     17  C   UNL     1       0.802   0.156  23.495  0.00  0.00    +0.085 C 
BRANCH  17  18
ATOM     18  C   UNL     1       1.377  -0.026  22.932  0.00  0.00    +0.009 C 
ATOM     19  C   UNL     1       1.963   0.047  23.507  0.00  0.00    +0.000 C 
ATOM     20  C   UNL     1       0.789  -0.099  22.356  0.00  0.00    +0.000 C 
ATOM     21  C   UNL     1       1.951  -0.209  22.368  0.00  0.00    +0.000 C 
ENDBRANCH  17  18
ENDBRANCH  15  17
TORSDOF 14
ENDMDL
