REMARK  Name = 
REMARK  8 active torsions:
REMARK  status: ('A' for Active; 'I' for Inactive)
REMARK    1  A    between atoms: C_2  and  N_3
REMARK    2  A    between atoms: N_3  and  C_4
REMARK    3  A    between atoms: C_6  and  C_8
REMARK    4  A    between atoms: C_8  and  C_9
REMARK    5  A    between atoms: C_14  and  C_15
REMARK    6  A    between atoms: C_15  and  C_16
REMARK    7  A    between atoms: C_19  and  C_20
REMARK    8  A    between atoms: C_20  and  C_21
REMARK                            x       y       z     vdW  Elec       q    Type
REMARK                         _______ _______ _______ _____ _____    ______ ____
ROOT
ATOM      9  C   UNL     1       0.393  -5.912   0.000  0.00  0.00    +0.012 C 
ATOM     10  C   UNL     1       0.393  -5.087   0.000  0.00  0.00    +0.019 C 
ATOM     11  C   UNL     1       1.107  -4.674   0.000  0.00  0.00    +0.089 C 
ATOM     12  N   UNL     1       1.822  -5.087   0.000  0.00  0.00    -0.218 NA
ATOM     13  C   UNL     1       1.822  -5.912   0.000  0.00  0.00    +0.089 C 
ATOM     14  C   UNL     1       1.107  -6.324   0.000  0.00  0.00    +0.024 C 
ENDROOT
BRANCH   9   8
ATOM      8  C   UNL     1      -0.322  -6.324   0.000  0.00  0.00    +0.085 C 
BRANCH   8   6
ATOM      3  N   UNL     1      -1.750  -6.324   0.000  0.00  0.00    -0.280 N 
ATOM      6  C   UNL     1      -1.036  -5.912   0.000  0.00  0.00    +0.226 C 
ATOM      7  O   UNL     1      -1.036  -5.087   0.000  0.00  0.00    -0.275 OA
BRANCH   3   2
ATOM      1  C   UNL     1      -3.179  -6.324   0.000  0.00  0.00    +0.023 C 
ATOM      2  C   UNL     1      -2.465  -5.912   0.000  0.00  0.00    +0.093 C 
ENDBRANCH   3   2
BRANCH   3   4
ATOM      4  C   UNL     1      -1.750  -7.149   0.000  0.00  0.00    +0.093 C 
ATOM      5  C   UNL     1      -2.465  -7.562   0.000  0.00  0.00    +0.023 C 
ENDBRANCH   3   4
ENDBRANCH   8   6
ENDBRANCH   9   8
BRANCH  14  15
ATOM     15  C   UNL     1       1.107  -7.149   0.000  0.00  0.00    +0.051 C 
BRANCH  15  16
ATOM     16  C   UNL     1       1.822  -7.562   0.000  0.00  0.00    +0.100 A 
ATOM     17  N   UNL     1       2.575  -7.226   0.000  0.00  0.00    -0.082 NA
ATOM     18  O   UNL     1       3.127  -7.839   0.000  0.00  0.00    -0.358 OA
ATOM     19  C   UNL     1       2.715  -8.554   0.000  0.00  0.00    +0.154 A 
ATOM     27  C   UNL     1       1.908  -8.382   0.000  0.00  0.00    +0.054 A 
BRANCH  19  20
ATOM     20  C   UNL     1       3.051  -9.307   0.000  0.00  0.00    +0.067 C 
BRANCH  20  21
ATOM     21  C   UNL     1       3.871  -9.394   0.000  0.00  0.00    +0.008 C 
ATOM     22  C   UNL     1       4.356  -8.726   0.000  0.00  0.00    +0.000 C 
ATOM     23  C   UNL     1       5.176  -8.812   0.000  0.00  0.00    +0.000 C 
ATOM     24  C   UNL     1       5.512  -9.566   0.000  0.00  0.00    +0.000 C 
ATOM     25  C   UNL     1       5.027 -10.233   0.000  0.00  0.00    +0.000 C 
ATOM     26  C   UNL     1       4.207 -10.147   0.000  0.00  0.00    +0.000 C 
ENDBRANCH  20  21
ENDBRANCH  19  20
ENDBRANCH  15  16
ENDBRANCH  14  15
TORSDOF 8
