MODEL 1
REMARK VINA RESULT:     -10.7      0.000      0.000
REMARK  Name = 
REMARK  3 active torsions:
REMARK  status: ('A' for Active; 'I' for Inactive)
REMARK    1  A    between atoms: C_5  and  C_7
REMARK    2  A    between atoms: C_9  and  C_10
REMARK    3  A    between atoms: C_10  and  C_11
REMARK                            x       y       z     vdW  Elec       q    Type
REMARK                         _______ _______ _______ _____ _____    ______ ____
ROOT
ATOM      7  C   UNL     1      -4.283   1.471  24.683  0.00  0.00    +0.252 A 
ATOM      8  N   UNL     1      -4.543   0.739  24.962  0.00  0.00    -0.193 NA
ATOM      9  C   UNL     1      -4.244   0.155  24.461  0.00  0.00    +0.185 A 
ATOM     19  N   UNL     1      -3.800   0.526  23.873  0.00  0.00    -0.060 NA
ATOM     20  O   UNL     1      -3.824   1.339  24.010  0.00  0.00    -0.336 OA
ENDROOT
BRANCH   7   5
ATOM      1  O   UNL     1      -5.730   3.753  25.747  0.00  0.00    -0.222 OA
ATOM      2  C   UNL     1      -5.118   3.254  25.508  0.00  0.00    +0.171 C 
ATOM      3  C   UNL     1      -4.311   3.416  25.563  0.00  0.00    +0.122 C 
ATOM      4  N   UNL     1      -3.899   2.767  25.260  0.00  0.00    -0.207 NA
ATOM      5  C   UNL     1      -4.452   2.205  25.019  0.00  0.00    +0.154 C 
ATOM      6  C   UNL     1      -5.206   2.506  25.172  0.00  0.00    +0.061 C 
ENDBRANCH   7   5
BRANCH   9  10
ATOM     10  C   UNL     1      -4.368  -0.658  24.535  0.00  0.00    +0.096 C 
BRANCH  10  11
ATOM     11  C   UNL     1      -3.726  -1.165  24.635  0.00  0.00    -0.004 A 
ATOM     12  C   UNL     1      -3.097  -0.943  25.120  0.00  0.00    -0.001 A 
ATOM     13  C   UNL     1      -2.454  -1.451  25.220  0.00  0.00    +0.029 A 
ATOM     14  C   UNL     1      -2.441  -2.180  24.835  0.00  0.00    +0.141 A 
ATOM     15  F   UNL     1      -1.798  -2.688  24.935  0.00  0.00    -0.204 F 
ATOM     16  C   UNL     1      -3.070  -2.402  24.349  0.00  0.00    +0.041 A 
ATOM     17  C   UNL     1      -3.712  -1.895  24.250  0.00  0.00    +0.056 A 
ATOM     18 CL   UNL     1      -4.341  -2.116  23.764  0.00  0.00    -0.082 Cl
ENDBRANCH  10  11
ENDBRANCH   9  10
TORSDOF 3
ENDMDL
MODEL 2
REMARK VINA RESULT:     -10.5      1.824      2.176
REMARK  Name = 
REMARK  3 active torsions:
REMARK  status: ('A' for Active; 'I' for Inactive)
REMARK    1  A    between atoms: C_5  and  C_7
REMARK    2  A    between atoms: C_9  and  C_10
REMARK    3  A    between atoms: C_10  and  C_11
REMARK                            x       y       z     vdW  Elec       q    Type
REMARK                         _______ _______ _______ _____ _____    ______ ____
ROOT
ATOM      7  C   UNL     1      -3.065   1.526  24.486  0.00  0.00    +0.252 A 
ATOM      8  N   UNL     1      -3.082   0.868  24.985  0.00  0.00    -0.193 NA
ATOM      9  C   UNL     1      -3.816   0.500  24.896  0.00  0.00    +0.185 A 
ATOM     19  N   UNL     1      -4.251   0.930  24.343  0.00  0.00    -0.060 NA
ATOM     20  O   UNL     1      -3.787   1.564  24.089  0.00  0.00    -0.336 OA
ENDROOT
BRANCH   7   5
ATOM      1  O   UNL     1      -1.272   3.775  24.884  0.00  0.00    -0.222 OA
ATOM      2  C   UNL     1      -1.612   3.086  24.583  0.00  0.00    +0.171 C 
ATOM      3  C   UNL     1      -1.323   2.638  23.952  0.00  0.00    +0.122 C 
ATOM      4  N   UNL     1      -1.833   1.999  23.839  0.00  0.00    -0.207 NA
ATOM      5  C   UNL     1      -2.436   2.052  24.400  0.00  0.00    +0.154 C 
ATOM      6  C   UNL     1      -2.299   2.724  24.859  0.00  0.00    +0.061 C 
ENDBRANCH   7   5
BRANCH   9  10
ATOM     10  C   UNL     1      -4.069  -0.178  25.291  0.00  0.00    +0.096 C 
BRANCH  10  11
ATOM     11  C   UNL     1      -3.959  -0.920  24.949  0.00  0.00    -0.004 A 
ATOM     12  C   UNL     1      -4.207  -1.057  24.174  0.00  0.00    -0.001 A 
ATOM     13  C   UNL     1      -4.098  -1.800  23.830  0.00  0.00    +0.029 A 
ATOM     14  C   UNL     1      -3.740  -2.404  24.262  0.00  0.00    +0.141 A 
ATOM     15  F   UNL     1      -3.630  -3.147  23.918  0.00  0.00    -0.204 F 
ATOM     16  C   UNL     1      -3.492  -2.267  25.037  0.00  0.00    +0.041 A 
ATOM     17  C   UNL     1      -3.601  -1.526  25.380  0.00  0.00    +0.056 A 
ATOM     18 CL   UNL     1      -3.353  -1.389  26.154  0.00  0.00    -0.082 Cl
ENDBRANCH  10  11
ENDBRANCH   9  10
TORSDOF 3
ENDMDL
MODEL 3
REMARK VINA RESULT:     -10.3      2.785      3.446
REMARK  Name = 
REMARK  3 active torsions:
REMARK  status: ('A' for Active; 'I' for Inactive)
REMARK    1  A    between atoms: C_5  and  C_7
REMARK    2  A    between atoms: C_9  and  C_10
REMARK    3  A    between atoms: C_10  and  C_11
REMARK                            x       y       z     vdW  Elec       q    Type
REMARK                         _______ _______ _______ _____ _____    ______ ____
ROOT
ATOM      7  C   UNL     1      -1.227   0.154  25.136  0.00  0.00    +0.252 A 
ATOM      8  N   UNL     1      -2.032   0.146  24.955  0.00  0.00    -0.193 NA
ATOM      9  C   UNL     1      -2.399  -0.406  25.448  0.00  0.00    +0.185 A 
ATOM     19  N   UNL     1      -1.820  -0.739  25.932  0.00  0.00    -0.060 NA
ATOM     20  O   UNL     1      -1.096  -0.393  25.739  0.00  0.00    -0.336 OA
ENDROOT
BRANCH   7   5
ATOM      1  O   UNL     1       0.643   2.314  24.616  0.00  0.00    -0.222 OA
ATOM      2  C   UNL     1       0.205   1.619  24.537  0.00  0.00    +0.171 C 
ATOM      3  C   UNL     1       0.249   1.087  23.907  0.00  0.00    +0.122 C 
ATOM      4  N   UNL     1      -0.283   0.473  24.055  0.00  0.00    -0.207 NA
ATOM      5  C   UNL     1      -0.654   0.626  24.776  0.00  0.00    +0.154 C 
ATOM      6  C   UNL     1      -0.353   1.334  25.073  0.00  0.00    +0.061 C 
ENDBRANCH   7   5
BRANCH   9  10
ATOM     10  C   UNL     1      -3.202  -0.592  25.454  0.00  0.00    +0.096 C 
BRANCH  10  11
ATOM     11  C   UNL     1      -3.489  -1.199  24.976  0.00  0.00    -0.004 A 
ATOM     12  C   UNL     1      -3.151  -1.951  25.018  0.00  0.00    -0.001 A 
ATOM     13  C   UNL     1      -3.438  -2.560  24.539  0.00  0.00    +0.029 A 
ATOM     14  C   UNL     1      -4.061  -2.415  24.019  0.00  0.00    +0.141 A 
ATOM     15  F   UNL     1      -4.348  -3.024  23.540  0.00  0.00    -0.204 F 
ATOM     16  C   UNL     1      -4.399  -1.664  23.977  0.00  0.00    +0.041 A 
ATOM     17  C   UNL     1      -4.112  -1.056  24.455  0.00  0.00    +0.056 A 
ATOM     18 CL   UNL     1      -4.450  -0.304  24.413  0.00  0.00    -0.082 Cl
ENDBRANCH  10  11
ENDBRANCH   9  10
TORSDOF 3
ENDMDL
MODEL 4
REMARK VINA RESULT:     -10.2      2.448      4.499
REMARK  Name = 
REMARK  3 active torsions:
REMARK  status: ('A' for Active; 'I' for Inactive)
REMARK    1  A    between atoms: C_5  and  C_7
REMARK    2  A    between atoms: C_9  and  C_10
REMARK    3  A    between atoms: C_10  and  C_11
REMARK                            x       y       z     vdW  Elec       q    Type
REMARK                         _______ _______ _______ _____ _____    ______ ____
ROOT
ATOM      7  C   UNL     1      -3.751   0.233  24.308  0.00  0.00    +0.252 A 
ATOM      8  N   UNL     1      -4.223   0.816  24.653  0.00  0.00    -0.193 NA
ATOM      9  C   UNL     1      -4.074   1.528  24.263  0.00  0.00    +0.185 A 
ATOM     19  N   UNL     1      -3.511   1.386  23.678  0.00  0.00    -0.060 NA
ATOM     20  O   UNL     1      -3.310   0.585  23.706  0.00  0.00    -0.336 OA
ENDROOT
BRANCH   7   5
ATOM      1  O   UNL     1      -3.964  -2.662  24.230  0.00  0.00    -0.222 OA
ATOM      2  C   UNL     1      -3.822  -1.892  24.492  0.00  0.00    +0.171 C 
ATOM      3  C   UNL     1      -3.544  -1.677  25.238  0.00  0.00    +0.122 C 
ATOM      4  N   UNL     1      -3.483  -0.854  25.261  0.00  0.00    -0.207 NA
ATOM      5  C   UNL     1      -3.724  -0.561  24.528  0.00  0.00    +0.154 C 
ATOM      6  C   UNL     1      -3.933  -1.203  24.053  0.00  0.00    +0.061 C 
ENDBRANCH   7   5
BRANCH   9  10
ATOM     10  C   UNL     1      -4.427   2.255  24.430  0.00  0.00    +0.096 C 
BRANCH  10  11
ATOM     11  C   UNL     1      -4.039   2.802  24.909  0.00  0.00    -0.004 A 
ATOM     12  C   UNL     1      -3.223   2.904  24.839  0.00  0.00    -0.001 A 
ATOM     13  C   UNL     1      -2.833   3.452  25.319  0.00  0.00    +0.029 A 
ATOM     14  C   UNL     1      -3.260   3.896  25.868  0.00  0.00    +0.141 A 
ATOM     15  F   UNL     1      -2.871   4.444  26.347  0.00  0.00    -0.204 F 
ATOM     16  C   UNL     1      -4.076   3.794  25.937  0.00  0.00    +0.041 A 
ATOM     17  C   UNL     1      -4.465   3.247  25.458  0.00  0.00    +0.056 A 
ATOM     18 CL   UNL     1      -5.280   3.144  25.527  0.00  0.00    -0.082 Cl
ENDBRANCH  10  11
ENDBRANCH   9  10
TORSDOF 3
ENDMDL
