REMARK  Name = 
REMARK  5 active torsions:
REMARK  status: ('A' for Active; 'I' for Inactive)
REMARK    1  A    between atoms: C_2  and  O_10
REMARK    2  A    between atoms: N_3  and  C_4
REMARK    3  A    between atoms: O_10  and  C_11
REMARK    4  A    between atoms: C_15  and  N_19
REMARK    5  A    between atoms: C_22  and  C_26
REMARK                            x       y       z     vdW  Elec       q    Type
REMARK                         _______ _______ _______ _____ _____    ______ ____
ROOT
ATOM     11  C   UNL     1       5.193  -3.590   0.000  0.00  0.00    +0.229 C 
ATOM     12  C   UNL     1       4.439  -3.925   0.000  0.00  0.00    +0.188 C 
ATOM     13  O   UNL     1       3.887  -3.312   0.000  0.00  0.00    -0.348 OA
ATOM     14  C   UNL     1       4.300  -2.598   0.000  0.00  0.00    +0.168 C 
ATOM     15  C   UNL     1       4.213  -1.777   0.000  0.00  0.00    +0.155 C 
ATOM     16  C   UNL     1       4.967  -1.442   0.000  0.00  0.00    +0.166 C 
ATOM     17  O   UNL     1       5.519  -2.055   0.000  0.00  0.00    -0.348 OA
ATOM     18  C   UNL     1       5.107  -2.769   0.000  0.00  0.00    +0.186 C 
ENDROOT
BRANCH  15  19
ATOM     19  N   UNL     1       3.499  -1.365   0.000  0.00  0.00    -0.200 NA
ATOM     20  C   UNL     1       3.499  -0.540   0.000  0.00  0.00    +0.237 A 
ATOM     21  N   UNL     1       2.784  -0.127   0.000  0.00  0.00    -0.212 NA
ATOM     22  C   UNL     1       2.784   0.698   0.000  0.00  0.00    +0.086 A 
ATOM     23  C   UNL     1       3.499   1.110   0.000  0.00  0.00    +0.040 A 
ATOM     24  C   UNL     1       4.213   0.698   0.000  0.00  0.00    +0.103 A 
ATOM     25  N   UNL     1       4.213  -0.127   0.000  0.00  0.00    -0.211 NA
BRANCH  22  26
ATOM     26  C   UNL     1       2.070   1.110   0.000  0.00  0.00    +0.021 A 
ATOM     27  C   UNL     1       1.356   0.698   0.000  0.00  0.00    +0.042 A 
ATOM     28  C   UNL     1       0.641   1.110   0.000  0.00  0.00    +0.176 A 
ATOM     29  C   UNL     1       0.641   1.935   0.000  0.00  0.00    +0.176 A 
ATOM     30  O   UNL     1      -0.143   2.190   0.000  0.00  0.00    -0.435 OA
ATOM     31  C   UNL     1      -0.628   1.523   0.000  0.00  0.00    +0.429 C 
ATOM     32  O   UNL     1      -0.143   0.856   0.000  0.00  0.00    -0.435 OA
ATOM     33  C   UNL     1       1.356   2.348   0.000  0.00  0.00    +0.040 A 
ATOM     34  C   UNL     1       2.070   1.935   0.000  0.00  0.00    +0.005 A 
ENDBRANCH  22  26
ENDBRANCH  15  19
BRANCH  11  10
ATOM     10  O   UNL     1       5.907  -4.002   0.000  0.00  0.00    -0.432 OA
BRANCH  10   2
ATOM      1  O   UNL     1       5.193  -5.239   0.000  0.00  0.00    -0.224 OA
ATOM      2  C   UNL     1       5.907  -4.827   0.000  0.00  0.00    +0.425 C 
ATOM      3  N   UNL     1       6.622  -5.239   0.000  0.00  0.00    -0.142 NA
BRANCH   3   4
ATOM      4  C   UNL     1       6.622  -6.064   0.000  0.00  0.00    +0.077 A 
ATOM      5  C   UNL     1       7.336  -6.477   0.000  0.00  0.00    +0.017 A 
ATOM      6  C   UNL     1       7.336  -7.302   0.000  0.00  0.00    +0.001 A 
ATOM      7  C   UNL     1       6.622  -7.715   0.000  0.00  0.00    +0.000 A 
ATOM      8  C   UNL     1       5.907  -7.302   0.000  0.00  0.00    +0.001 A 
ATOM      9  C   UNL     1       5.907  -6.477   0.000  0.00  0.00    +0.017 A 
ENDBRANCH   3   4
ENDBRANCH  10   2
ENDBRANCH  11  10
TORSDOF 5
