MODEL 1
REMARK VINA RESULT:      -9.3      0.000      0.000
REMARK  Name = 
REMARK  6 active torsions:
REMARK  status: ('A' for Active; 'I' for Inactive)
REMARK    1  A    between atoms: C_2  and  C_4
REMARK    2  A    between atoms: C_7  and  N_8
REMARK    3  A    between atoms: C_9  and  O_11
REMARK    4  A    between atoms: O_11  and  C_12
REMARK    5  A    between atoms: C_16  and  N_20
REMARK    6  A    between atoms: C_21  and  C_23
REMARK                            x       y       z     vdW  Elec       q    Type
REMARK                         _______ _______ _______ _____ _____    ______ ____
ROOT
ATOM     12  C   UNL     1      -0.865   0.432  24.070  0.00  0.00    +0.229 C 
ATOM     13  C   UNL     1      -0.562   1.040  24.537  0.00  0.00    +0.188 C 
ATOM     14  O   UNL     1       0.243   1.111  24.372  0.00  0.00    -0.348 OA
ATOM     15  C   UNL     1       0.438   0.547  23.803  0.00  0.00    +0.168 C 
ATOM     16  C   UNL     1       1.055   0.241  23.349  0.00  0.00    +0.155 C 
ATOM     17  C   UNL     1       0.752  -0.368  22.882  0.00  0.00    +0.166 C 
ATOM     18  O   UNL     1      -0.053  -0.438  23.047  0.00  0.00    -0.348 OA
ATOM     19  C   UNL     1      -0.247   0.127  23.617  0.00  0.00    +0.186 C 
ENDROOT
BRANCH  16  20
ATOM     20  N   UNL     1       1.839   0.499  23.361  0.00  0.00    -0.196 NA
ATOM     21  C   UNL     1       2.365   0.245  22.779  0.00  0.00    +0.300 C 
ATOM     22  O   UNL     1       2.109  -0.268  22.185  0.00  0.00    -0.265 OA
BRANCH  21  23
ATOM     23  C   UNL     1       3.149   0.503  22.791  0.00  0.00    +0.200 A 
ATOM     24  C   UNL     1       3.808   0.043  22.976  0.00  0.00    +0.046 A 
ATOM     25  C   UNL     1       4.478   0.522  22.919  0.00  0.00    +0.044 A 
ATOM     26  C   UNL     1       4.232   1.277  22.698  0.00  0.00    +0.180 A 
ATOM     27  O   UNL     1       3.411   1.265  22.619  0.00  0.00    -0.446 OA
ENDBRANCH  21  23
ENDBRANCH  16  20
BRANCH  12  11
ATOM     11  O   UNL     1      -1.649   0.174  24.058  0.00  0.00    -0.432 OA
BRANCH  11   9
ATOM      8  N   UNL     1      -2.938   0.783  23.960  0.00  0.00    -0.142 NA
ATOM      9  C   UNL     1      -2.243   0.645  24.383  0.00  0.00    +0.425 C 
ATOM     10  O   UNL     1      -2.143   0.978  25.131  0.00  0.00    -0.224 OA
BRANCH   8   7
ATOM      4  C   UNL     1      -4.721   2.197  24.932  0.00  0.00    -0.022 A 
ATOM      5  C   UNL     1      -4.153   2.532  24.435  0.00  0.00    -0.003 A 
ATOM      6  C   UNL     1      -3.559   2.060  24.112  0.00  0.00    +0.016 A 
ATOM      7  C   UNL     1      -3.532   1.254  24.284  0.00  0.00    +0.077 A 
ATOM     28  C   UNL     1      -4.099   0.920  24.780  0.00  0.00    +0.016 A 
ATOM     29  C   UNL     1      -4.694   1.391  25.104  0.00  0.00    -0.003 A 
BRANCH   4   2
ATOM      1  C   UNL     1      -6.068   2.355  25.381  0.00  0.00    +0.005 C 
ATOM      2  C   UNL     1      -5.315   2.669  25.256  0.00  0.00    +0.022 C 
ATOM      3  C   UNL     1      -5.157   3.454  25.454  0.00  0.00    +0.005 C 
ENDBRANCH   4   2
ENDBRANCH   8   7
ENDBRANCH  11   9
ENDBRANCH  12  11
TORSDOF 6
ENDMDL
MODEL 2
REMARK VINA RESULT:      -8.9      3.057      4.734
REMARK  Name = 
REMARK  6 active torsions:
REMARK  status: ('A' for Active; 'I' for Inactive)
REMARK    1  A    between atoms: C_2  and  C_4
REMARK    2  A    between atoms: C_7  and  N_8
REMARK    3  A    between atoms: C_9  and  O_11
REMARK    4  A    between atoms: O_11  and  C_12
REMARK    5  A    between atoms: C_16  and  N_20
REMARK    6  A    between atoms: C_21  and  C_23
REMARK                            x       y       z     vdW  Elec       q    Type
REMARK                         _______ _______ _______ _____ _____    ______ ____
ROOT
ATOM     12  C   UNL     1      -0.290   0.723  24.771  0.00  0.00    +0.229 C 
ATOM     13  C   UNL     1      -0.179   1.039  24.018  0.00  0.00    +0.188 C 
ATOM     14  O   UNL     1      -0.236   1.860  24.075  0.00  0.00    -0.348 OA
ATOM     15  C   UNL     1      -0.382   2.051  24.864  0.00  0.00    +0.168 C 
ATOM     16  C   UNL     1      -0.507   2.676  25.388  0.00  0.00    +0.155 C 
ATOM     17  C   UNL     1      -0.617   2.360  26.141  0.00  0.00    +0.166 C 
ATOM     18  O   UNL     1      -0.560   1.539  26.084  0.00  0.00    -0.348 OA
ATOM     19  C   UNL     1      -0.415   1.348  25.294  0.00  0.00    +0.186 C 
ENDROOT
BRANCH  16  20
ATOM     20  N   UNL     1      -0.519   3.478  25.191  0.00  0.00    -0.196 NA
ATOM     21  C   UNL     1      -1.194   3.928  25.341  0.00  0.00    +0.300 C 
ATOM     22  O   UNL     1      -1.856   3.579  25.686  0.00  0.00    -0.265 OA
BRANCH  21  23
ATOM     23  C   UNL     1      -1.206   4.730  25.144  0.00  0.00    +0.200 A 
ATOM     24  C   UNL     1      -1.846   5.242  25.238  0.00  0.00    +0.046 A 
ATOM     25  C   UNL     1      -1.617   5.989  24.972  0.00  0.00    +0.044 A 
ATOM     26  C   UNL     1      -0.835   5.937  24.714  0.00  0.00    +0.180 A 
ATOM     27  O   UNL     1      -0.582   5.160  24.821  0.00  0.00    -0.446 OA
ENDBRANCH  21  23
ENDBRANCH  16  20
BRANCH  12  11
ATOM     11  O   UNL     1      -0.277  -0.079  24.968  0.00  0.00    -0.432 OA
BRANCH  11   9
ATOM      8  N   UNL     1      -1.411  -0.901  25.250  0.00  0.00    -0.142 NA
ATOM      9  C   UNL     1      -0.881  -0.577  24.708  0.00  0.00    +0.425 C 
ATOM     10  O   UNL     1      -0.954  -0.751  23.904  0.00  0.00    -0.224 OA
BRANCH   8   7
ATOM      4  C   UNL     1      -3.224  -2.395  24.470  0.00  0.00    -0.022 A 
ATOM      5  C   UNL     1      -3.399  -1.625  24.712  0.00  0.00    -0.003 A 
ATOM      6  C   UNL     1      -2.794  -1.128  24.972  0.00  0.00    +0.016 A 
ATOM      7  C   UNL     1      -2.016  -1.399  24.990  0.00  0.00    +0.077 A 
ATOM     28  C   UNL     1      -1.841  -2.167  24.748  0.00  0.00    +0.016 A 
ATOM     29  C   UNL     1      -2.445  -2.666  24.488  0.00  0.00    -0.003 A 
BRANCH   4   2
ATOM      1  C   UNL     1      -3.801  -3.699  24.381  0.00  0.00    +0.005 C 
ATOM      2  C   UNL     1      -3.829  -2.892  24.210  0.00  0.00    +0.022 C 
ATOM      3  C   UNL     1      -4.461  -2.583  23.780  0.00  0.00    +0.005 C 
ENDBRANCH   4   2
ENDBRANCH   8   7
ENDBRANCH  11   9
ENDBRANCH  12  11
TORSDOF 6
ENDMDL
MODEL 3
REMARK VINA RESULT:      -8.6      4.163      5.277
REMARK  Name = 
REMARK  6 active torsions:
REMARK  status: ('A' for Active; 'I' for Inactive)
REMARK    1  A    between atoms: C_2  and  C_4
REMARK    2  A    between atoms: C_7  and  N_8
REMARK    3  A    between atoms: C_9  and  O_11
REMARK    4  A    between atoms: O_11  and  C_12
REMARK    5  A    between atoms: C_16  and  N_20
REMARK    6  A    between atoms: C_21  and  C_23
REMARK                            x       y       z     vdW  Elec       q    Type
REMARK                         _______ _______ _______ _____ _____    ______ ____
ROOT
ATOM     12  C   UNL     1      -4.192   1.956  24.279  0.00  0.00    +0.229 C 
ATOM     13  C   UNL     1      -3.918   2.202  23.541  0.00  0.00    +0.188 C 
ATOM     14  O   UNL     1      -3.468   2.884  23.652  0.00  0.00    -0.348 OA
ATOM     15  C   UNL     1      -3.464   3.060  24.457  0.00  0.00    +0.168 C 
ATOM     16  C   UNL     1      -3.184   3.590  25.024  0.00  0.00    +0.155 C 
ATOM     17  C   UNL     1      -3.459   3.344  25.762  0.00  0.00    +0.166 C 
ATOM     18  O   UNL     1      -3.908   2.662  25.651  0.00  0.00    -0.348 OA
ATOM     19  C   UNL     1      -3.912   2.486  24.845  0.00  0.00    +0.186 C 
ENDROOT
BRANCH  16  20
ATOM     20  N   UNL     1      -2.712   4.251  24.878  0.00  0.00    -0.196 NA
ATOM     21  C   UNL     1      -1.969   4.314  25.230  0.00  0.00    +0.300 C 
ATOM     22  O   UNL     1      -1.697   3.716  25.729  0.00  0.00    -0.265 OA
BRANCH  21  23
ATOM     23  C   UNL     1      -1.497   4.975  25.084  0.00  0.00    +0.200 A 
ATOM     24  C   UNL     1      -0.722   4.964  24.802  0.00  0.00    +0.046 A 
ATOM     25  C   UNL     1      -0.463   5.745  24.738  0.00  0.00    +0.044 A 
ATOM     26  C   UNL     1      -1.078   6.238  24.980  0.00  0.00    +0.180 A 
ATOM     27  O   UNL     1      -1.717   5.762  25.194  0.00  0.00    -0.446 OA
ENDBRANCH  21  23
ENDBRANCH  16  20
BRANCH  12  11
ATOM     11  O   UNL     1      -4.664   1.295  24.425  0.00  0.00    -0.432 OA
BRANCH  11   9
ATOM      8  N   UNL     1      -4.455  -0.032  24.913  0.00  0.00    -0.142 NA
ATOM      9  C   UNL     1      -4.355   0.536  24.324  0.00  0.00    +0.425 C 
ATOM     10  O   UNL     1      -3.947   0.347  23.632  0.00  0.00    -0.224 OA
BRANCH   8   7
ATOM      4  C   UNL     1      -3.528  -2.307  24.610  0.00  0.00    -0.022 A 
ATOM      5  C   UNL     1      -3.286  -1.845  25.249  0.00  0.00    -0.003 A 
ATOM      6  C   UNL     1      -3.595  -1.087  25.350  0.00  0.00    +0.016 A 
ATOM      7  C   UNL     1      -4.146  -0.791  24.812  0.00  0.00    +0.077 A 
ATOM     28  C   UNL     1      -4.387  -1.253  24.173  0.00  0.00    +0.016 A 
ATOM     29  C   UNL     1      -4.078  -2.011  24.072  0.00  0.00    -0.003 A 
BRANCH   4   2
ATOM      1  C   UNL     1      -3.727  -3.707  24.401  0.00  0.00    +0.005 C 
ATOM      2  C   UNL     1      -3.219  -3.065  24.509  0.00  0.00    +0.022 C 
ATOM      3  C   UNL     1      -2.402  -3.183  24.517  0.00  0.00    +0.005 C 
ENDBRANCH   4   2
ENDBRANCH   8   7
ENDBRANCH  11   9
ENDBRANCH  12  11
TORSDOF 6
ENDMDL
MODEL 4
REMARK VINA RESULT:      -8.4      3.047      5.011
REMARK  Name = 
REMARK  6 active torsions:
REMARK  status: ('A' for Active; 'I' for Inactive)
REMARK    1  A    between atoms: C_2  and  C_4
REMARK    2  A    between atoms: C_7  and  N_8
REMARK    3  A    between atoms: C_9  and  O_11
REMARK    4  A    between atoms: O_11  and  C_12
REMARK    5  A    between atoms: C_16  and  N_20
REMARK    6  A    between atoms: C_21  and  C_23
REMARK                            x       y       z     vdW  Elec       q    Type
REMARK                         _______ _______ _______ _____ _____    ______ ____
ROOT
ATOM     12  C   UNL     1      -0.499   0.478  24.834  0.00  0.00    +0.229 C 
ATOM     13  C   UNL     1      -0.497   0.262  24.038  0.00  0.00    +0.188 C 
ATOM     14  O   UNL     1      -0.998  -0.387  23.949  0.00  0.00    -0.348 OA
ATOM     15  C   UNL     1      -1.308  -0.574  24.689  0.00  0.00    +0.168 C 
ATOM     16  C   UNL     1      -1.809  -1.090  25.093  0.00  0.00    +0.155 C 
ATOM     17  C   UNL     1      -1.811  -0.875  25.889  0.00  0.00    +0.166 C 
ATOM     18  O   UNL     1      -1.311  -0.225  25.978  0.00  0.00    -0.348 OA
ATOM     19  C   UNL     1      -1.000  -0.039  25.237  0.00  0.00    +0.186 C 
ENDROOT
BRANCH  16  20
ATOM     20  N   UNL     1      -2.234  -1.713  24.758  0.00  0.00    -0.196 NA
ATOM     21  C   UNL     1      -3.046  -1.778  24.893  0.00  0.00    +0.300 C 
ATOM     22  O   UNL     1      -3.433  -1.220  25.361  0.00  0.00    -0.265 OA
BRANCH  21  23
ATOM     23  C   UNL     1      -3.471  -2.401  24.558  0.00  0.00    +0.200 A 
ATOM     24  C   UNL     1      -4.031  -2.338  23.955  0.00  0.00    +0.046 A 
ATOM     25  C   UNL     1      -4.317  -3.095  23.792  0.00  0.00    +0.044 A 
ATOM     26  C   UNL     1      -3.933  -3.625  24.293  0.00  0.00    +0.180 A 
ATOM     27  O   UNL     1      -3.411  -3.197  24.767  0.00  0.00    -0.446 OA
ENDBRANCH  21  23
ENDBRANCH  16  20
BRANCH  12  11
ATOM     11  O   UNL     1      -0.074   1.101  25.169  0.00  0.00    -0.432 OA
BRANCH  11   9
ATOM      8  N   UNL     1      -0.576   2.355  25.634  0.00  0.00    -0.142 NA
ATOM      9  C   UNL     1      -0.298   1.881  25.020  0.00  0.00    +0.425 C 
ATOM     10  O   UNL     1      -0.244   2.186  24.255  0.00  0.00    -0.224 OA
BRANCH   8   7
ATOM      4  C   UNL     1      -1.248   4.695  25.187  0.00  0.00    -0.022 A 
ATOM      5  C   UNL     1      -0.467   4.458  25.059  0.00  0.00    -0.003 A 
ATOM      6  C   UNL     1      -0.244   3.678  25.208  0.00  0.00    +0.016 A 
ATOM      7  C   UNL     1      -0.800   3.135  25.485  0.00  0.00    +0.077 A 
ATOM     28  C   UNL     1      -1.579   3.372  25.613  0.00  0.00    +0.016 A 
ATOM     29  C   UNL     1      -1.804   4.152  25.464  0.00  0.00    -0.003 A 
BRANCH   4   2
ATOM      1  C   UNL     1      -2.222   5.738  25.258  0.00  0.00    +0.005 C 
ATOM      2  C   UNL     1      -1.471   5.475  25.037  0.00  0.00    +0.022 C 
ATOM      3  C   UNL     1      -0.945   5.992  24.668  0.00  0.00    +0.005 C 
ENDBRANCH   4   2
ENDBRANCH   8   7
ENDBRANCH  11   9
ENDBRANCH  12  11
TORSDOF 6
ENDMDL
MODEL 5
REMARK VINA RESULT:      -7.3      1.159      6.715
REMARK  Name = 
REMARK  6 active torsions:
REMARK  status: ('A' for Active; 'I' for Inactive)
REMARK    1  A    between atoms: C_2  and  C_4
REMARK    2  A    between atoms: C_7  and  N_8
REMARK    3  A    between atoms: C_9  and  O_11
REMARK    4  A    between atoms: O_11  and  C_12
REMARK    5  A    between atoms: C_16  and  N_20
REMARK    6  A    between atoms: C_21  and  C_23
REMARK                            x       y       z     vdW  Elec       q    Type
REMARK                         _______ _______ _______ _____ _____    ______ ____
ROOT
ATOM     12  C   UNL     1      -0.344   0.683  23.590  0.00  0.00    +0.229 C 
ATOM     13  C   UNL     1      -0.326   0.560  24.406  0.00  0.00    +0.188 C 
ATOM     14  O   UNL     1      -0.968   0.958  24.737  0.00  0.00    -0.348 OA
ATOM     15  C   UNL     1      -1.383   1.326  24.127  0.00  0.00    +0.168 C 
ATOM     16  C   UNL     1      -2.036   1.799  23.954  0.00  0.00    +0.155 C 
ATOM     17  C   UNL     1      -2.055   1.921  23.139  0.00  0.00    +0.166 C 
ATOM     18  O   UNL     1      -1.412   1.524  22.807  0.00  0.00    -0.348 OA
ATOM     19  C   UNL     1      -0.997   1.156  23.418  0.00  0.00    +0.186 C 
ENDROOT
BRANCH  16  20
ATOM     20  N   UNL     1      -2.577   2.097  24.502  0.00  0.00    -0.196 NA
ATOM     21  C   UNL     1      -3.296   2.408  24.244  0.00  0.00    +0.300 C 
ATOM     22  O   UNL     1      -3.476   2.421  23.439  0.00  0.00    -0.265 OA
BRANCH  21  23
ATOM     23  C   UNL     1      -3.837   2.706  24.791  0.00  0.00    +0.200 A 
ATOM     24  C   UNL     1      -4.588   2.403  24.945  0.00  0.00    +0.046 A 
ATOM     25  C   UNL     1      -4.937   2.869  25.530  0.00  0.00    +0.044 A 
ATOM     26  C   UNL     1      -4.401   3.460  25.737  0.00  0.00    +0.180 A 
ATOM     27  O   UNL     1      -3.721   3.360  25.280  0.00  0.00    -0.446 OA
ENDBRANCH  21  23
ENDBRANCH  16  20
BRANCH  12  11
ATOM     11  O   UNL     1       0.197   0.385  23.043  0.00  0.00    -0.432 OA
BRANCH  11   9
ATOM      8  N   UNL     1       1.542   0.056  22.688  0.00  0.00    -0.142 NA
ATOM      9  C   UNL     1       1.005   0.410  23.205  0.00  0.00    +0.425 C 
ATOM     10  O   UNL     1       1.277   0.790  23.886  0.00  0.00    -0.224 OA
BRANCH   8   7
ATOM      4  C   UNL     1       3.967   0.132  23.176  0.00  0.00    -0.022 A 
ATOM      5  C   UNL     1       3.590   0.792  22.855  0.00  0.00    -0.003 A 
ATOM      6  C   UNL     1       2.781   0.766  22.693  0.00  0.00    +0.016 A 
ATOM      7  C   UNL     1       2.350   0.081  22.851  0.00  0.00    +0.077 A 
ATOM     28  C   UNL     1       2.727  -0.578  23.171  0.00  0.00    +0.016 A 
ATOM     29  C   UNL     1       3.536  -0.553  23.334  0.00  0.00    -0.003 A 
BRANCH   4   2
ATOM      1  C   UNL     1       5.163  -0.517  23.613  0.00  0.00    +0.005 C 
ATOM      2  C   UNL     1       4.776   0.158  23.338  0.00  0.00    +0.022 C 
ATOM      3  C   UNL     1       5.197   0.858  23.225  0.00  0.00    +0.005 C 
ENDBRANCH   4   2
ENDBRANCH   8   7
ENDBRANCH  11   9
ENDBRANCH  12  11
TORSDOF 6
ENDMDL
MODEL 6
REMARK VINA RESULT:      -7.1      4.123      5.442
REMARK  Name = 
REMARK  6 active torsions:
REMARK  status: ('A' for Active; 'I' for Inactive)
REMARK    1  A    between atoms: C_2  and  C_4
REMARK    2  A    between atoms: C_7  and  N_8
REMARK    3  A    between atoms: C_9  and  O_11
REMARK    4  A    between atoms: O_11  and  C_12
REMARK    5  A    between atoms: C_16  and  N_20
REMARK    6  A    between atoms: C_21  and  C_23
REMARK                            x       y       z     vdW  Elec       q    Type
REMARK                         _______ _______ _______ _____ _____    ______ ____
ROOT
ATOM     12  C   UNL     1      -4.209   1.652  24.450  0.00  0.00    +0.229 C 
ATOM     13  C   UNL     1      -3.959   1.478  23.684  0.00  0.00    +0.188 C 
ATOM     14  O   UNL     1      -3.892   0.659  23.618  0.00  0.00    -0.348 OA
ATOM     15  C   UNL     1      -4.101   0.326  24.343  0.00  0.00    +0.168 C 
ATOM     16  C   UNL     1      -4.189  -0.385  24.751  0.00  0.00    +0.155 C 
ATOM     17  C   UNL     1      -4.439  -0.212  25.517  0.00  0.00    +0.166 C 
ATOM     18  O   UNL     1      -4.505   0.608  25.583  0.00  0.00    -0.348 OA
ATOM     19  C   UNL     1      -4.296   0.940  24.857  0.00  0.00    +0.186 C 
ENDROOT
BRANCH  16  20
ATOM     20  N   UNL     1      -4.050  -1.140  24.445  0.00  0.00    -0.196 NA
ATOM     21  C   UNL     1      -3.655  -1.703  24.900  0.00  0.00    +0.300 C 
ATOM     22  O   UNL     1      -3.397  -1.513  25.660  0.00  0.00    -0.265 OA
BRANCH  21  23
ATOM     23  C   UNL     1      -3.516  -2.457  24.594  0.00  0.00    +0.200 A 
ATOM     24  C   UNL     1      -2.784  -2.833  24.545  0.00  0.00    +0.046 A 
ATOM     25  C   UNL     1      -2.901  -3.576  24.204  0.00  0.00    +0.044 A 
ATOM     26  C   UNL     1      -3.706  -3.658  24.044  0.00  0.00    +0.180 A 
ATOM     27  O   UNL     1      -4.086  -2.966  24.285  0.00  0.00    -0.446 OA
ENDBRANCH  21  23
ENDBRANCH  16  20
BRANCH  12  11
ATOM     11  O   UNL     1      -4.347   2.406  24.756  0.00  0.00    -0.432 OA
BRANCH  11   9
ATOM      8  N   UNL     1      -3.215   3.113  25.266  0.00  0.00    -0.142 NA
ATOM      9  C   UNL     1      -3.776   2.996  24.674  0.00  0.00    +0.425 C 
ATOM     10  O   UNL     1      -3.767   3.469  23.997  0.00  0.00    -0.224 OA
BRANCH   8   7
ATOM      4  C   UNL     1      -1.503   4.883  25.020  0.00  0.00    -0.022 A 
ATOM      5  C   UNL     1      -2.225   5.055  25.379  0.00  0.00    -0.003 A 
ATOM      6  C   UNL     1      -2.795   4.465  25.461  0.00  0.00    +0.016 A 
ATOM      7  C   UNL     1      -2.644   3.703  25.184  0.00  0.00    +0.077 A 
ATOM     28  C   UNL     1      -1.922   3.531  24.825  0.00  0.00    +0.016 A 
ATOM     29  C   UNL     1      -1.351   4.121  24.742  0.00  0.00    -0.003 A 
BRANCH   4   2
ATOM      1  C   UNL     1      -1.156   6.268  24.951  0.00  0.00    +0.005 C 
ATOM      2  C   UNL     1      -0.932   5.473  24.938  0.00  0.00    +0.022 C 
ATOM      3  C   UNL     1      -0.138   5.270  24.842  0.00  0.00    +0.005 C 
ENDBRANCH   4   2
ENDBRANCH   8   7
ENDBRANCH  11   9
ENDBRANCH  12  11
TORSDOF 6
ENDMDL
MODEL 7
REMARK VINA RESULT:      -6.8     17.247     19.001
REMARK  Name = 
REMARK  6 active torsions:
REMARK  status: ('A' for Active; 'I' for Inactive)
REMARK    1  A    between atoms: C_2  and  C_4
REMARK    2  A    between atoms: C_7  and  N_8
REMARK    3  A    between atoms: C_9  and  O_11
REMARK    4  A    between atoms: O_11  and  C_12
REMARK    5  A    between atoms: C_16  and  N_20
REMARK    6  A    between atoms: C_21  and  C_23
REMARK                            x       y       z     vdW  Elec       q    Type
REMARK                         _______ _______ _______ _____ _____    ______ ____
ROOT
ATOM     12  C   UNL     1      -6.085  -8.751   9.132  0.00  0.00    +0.229 C 
ATOM     13  C   UNL     1      -5.839  -8.027   9.442  0.00  0.00    +0.188 C 
ATOM     14  O   UNL     1      -6.425  -7.469   9.281  0.00  0.00    -0.348 OA
ATOM     15  C   UNL     1      -7.033  -7.848   8.873  0.00  0.00    +0.168 C 
ATOM     16  C   UNL     1      -7.771  -7.738   8.522  0.00  0.00    +0.155 C 
ATOM     17  C   UNL     1      -8.017  -8.462   8.212  0.00  0.00    +0.166 C 
ATOM     18  O   UNL     1      -7.431  -9.020   8.373  0.00  0.00    -0.348 OA
ATOM     19  C   UNL     1      -6.823  -8.640   8.781  0.00  0.00    +0.186 C 
ENDROOT
BRANCH  16  20
ATOM     20  N   UNL     1      -8.190  -7.028   8.486  0.00  0.00    -0.196 NA
ATOM     21  C   UNL     1      -8.996  -7.015   8.661  0.00  0.00    +0.300 C 
ATOM     22  O   UNL     1      -9.384  -7.712   8.871  0.00  0.00    -0.265 OA
BRANCH  21  23
ATOM     23  C   UNL     1      -9.415  -6.305   8.625  0.00  0.00    +0.200 A 
ATOM     24  C   UNL     1     -10.235  -6.223   8.667  0.00  0.00    +0.046 A 
ATOM     25  C   UNL     1     -10.414  -5.420   8.609  0.00  0.00    +0.044 A 
ATOM     26  C   UNL     1      -9.705  -5.006   8.531  0.00  0.00    +0.180 A 
ATOM     27  O   UNL     1      -9.088  -5.553   8.541  0.00  0.00    -0.446 OA
ENDBRANCH  21  23
ENDBRANCH  16  20
BRANCH  12  11
ATOM     11  O   UNL     1      -5.666  -9.461   9.168  0.00  0.00    -0.432 OA
BRANCH  11   9
ATOM      8  N   UNL     1      -4.302  -9.771   9.461  0.00  0.00    -0.142 NA
ATOM      9  C   UNL     1      -5.056  -9.553   9.716  0.00  0.00    +0.425 C 
ATOM     10  O   UNL     1      -5.200  -9.427  10.519  0.00  0.00    -0.224 OA
BRANCH   8   7
ATOM      4  C   UNL     1      -2.471 -10.047  11.104  0.00  0.00    -0.022 A 
ATOM      5  C   UNL     1      -2.557  -9.334  10.697  0.00  0.00    -0.003 A 
ATOM      6  C   UNL     1      -3.167  -9.243  10.149  0.00  0.00    +0.016 A 
ATOM      7  C   UNL     1      -3.692  -9.863  10.009  0.00  0.00    +0.077 A 
ATOM     28  C   UNL     1      -3.607 -10.575  10.416  0.00  0.00    +0.016 A 
ATOM     29  C   UNL     1      -2.996 -10.667  10.963  0.00  0.00    -0.003 A 
BRANCH   4   2
ATOM      1  C   UNL     1      -1.160  -9.711  11.562  0.00  0.00    +0.005 C 
ATOM      2  C   UNL     1      -1.861 -10.138  11.651  0.00  0.00    +0.022 C 
ATOM      3  C   UNL     1      -1.950 -10.656  12.287  0.00  0.00    +0.005 C 
ENDBRANCH   4   2
ENDBRANCH   8   7
ENDBRANCH  11   9
ENDBRANCH  12  11
TORSDOF 6
ENDMDL
MODEL 8
REMARK VINA RESULT:      -6.6     14.328     14.882
REMARK  Name = 
REMARK  6 active torsions:
REMARK  status: ('A' for Active; 'I' for Inactive)
REMARK    1  A    between atoms: C_2  and  C_4
REMARK    2  A    between atoms: C_7  and  N_8
REMARK    3  A    between atoms: C_9  and  O_11
REMARK    4  A    between atoms: O_11  and  C_12
REMARK    5  A    between atoms: C_16  and  N_20
REMARK    6  A    between atoms: C_21  and  C_23
REMARK                            x       y       z     vdW  Elec       q    Type
REMARK                         _______ _______ _______ _____ _____    ______ ____
ROOT
ATOM     12  C   UNL     1      -5.583 -10.636  15.739  0.00  0.00    +0.229 C 
ATOM     13  C   UNL     1      -6.021 -10.567  15.043  0.00  0.00    +0.188 C 
ATOM     14  O   UNL     1      -5.494 -10.577  14.409  0.00  0.00    -0.348 OA
ATOM     15  C   UNL     1      -4.731 -10.651  14.712  0.00  0.00    +0.168 C 
ATOM     16  C   UNL     1      -3.933 -10.703  14.509  0.00  0.00    +0.155 C 
ATOM     17  C   UNL     1      -3.495 -10.772  15.205  0.00  0.00    +0.166 C 
ATOM     18  O   UNL     1      -4.023 -10.762  15.839  0.00  0.00    -0.348 OA
ATOM     19  C   UNL     1      -4.786 -10.688  15.535  0.00  0.00    +0.186 C 
ENDROOT
BRANCH  16  20
ATOM     20  N   UNL     1      -3.627 -10.689  13.743  0.00  0.00    -0.196 NA
ATOM     21  C   UNL     1      -2.844 -10.462  13.616  0.00  0.00    +0.300 C 
ATOM     22  O   UNL     1      -2.367 -10.249  14.254  0.00  0.00    -0.265 OA
BRANCH  21  23
ATOM     23  C   UNL     1      -2.537 -10.448  12.849  0.00  0.00    +0.200 A 
ATOM     24  C   UNL     1      -1.793 -10.719  12.620  0.00  0.00    +0.046 A 
ATOM     25  C   UNL     1      -1.717 -10.599  11.807  0.00  0.00    +0.044 A 
ATOM     26  C   UNL     1      -2.414 -10.253  11.535  0.00  0.00    +0.180 A 
ATOM     27  O   UNL     1      -2.921 -10.159  12.179  0.00  0.00    -0.446 OA
ENDBRANCH  21  23
ENDBRANCH  16  20
BRANCH  12  11
ATOM     11  O   UNL     1      -5.890 -10.650  16.505  0.00  0.00    -0.432 OA
BRANCH  11   9
ATOM      8  N   UNL     1      -6.861  -9.915  17.253  0.00  0.00    -0.142 NA
ATOM      9  C   UNL     1      -6.675 -10.435  16.640  0.00  0.00    +0.425 C 
ATOM     10  O   UNL     1      -7.274 -10.740  16.161  0.00  0.00    -0.224 OA
BRANCH   8   7
ATOM      4  C   UNL     1      -9.216  -9.268  17.657  0.00  0.00    -0.022 A 
ATOM      5  C   UNL     1      -8.751  -8.831  17.132  0.00  0.00    -0.003 A 
ATOM      6  C   UNL     1      -7.967  -9.047  16.998  0.00  0.00    +0.016 A 
ATOM      7  C   UNL     1      -7.646  -9.700  17.388  0.00  0.00    +0.077 A 
ATOM     28  C   UNL     1      -8.110 -10.136  17.911  0.00  0.00    +0.016 A 
ATOM     29  C   UNL     1      -8.895  -9.920  18.046  0.00  0.00    -0.003 A 
BRANCH   4   2
ATOM      1  C   UNL     1     -10.504  -9.561  18.201  0.00  0.00    +0.005 C 
ATOM      2  C   UNL     1     -10.000  -9.052  17.791  0.00  0.00    +0.022 C 
ATOM      3  C   UNL     1     -10.282  -8.327  17.515  0.00  0.00    +0.005 C 
ENDBRANCH   4   2
ENDBRANCH   8   7
ENDBRANCH  11   9
ENDBRANCH  12  11
TORSDOF 6
ENDMDL
MODEL 9
REMARK VINA RESULT:      -6.4     14.822     16.505
REMARK  Name = 
REMARK  6 active torsions:
REMARK  status: ('A' for Active; 'I' for Inactive)
REMARK    1  A    between atoms: C_2  and  C_4
REMARK    2  A    between atoms: C_7  and  N_8
REMARK    3  A    between atoms: C_9  and  O_11
REMARK    4  A    between atoms: O_11  and  C_12
REMARK    5  A    between atoms: C_16  and  N_20
REMARK    6  A    between atoms: C_21  and  C_23
REMARK                            x       y       z     vdW  Elec       q    Type
REMARK                         _______ _______ _______ _____ _____    ______ ____
ROOT
ATOM     12  C   UNL     1      -4.720 -10.691  14.137  0.00  0.00    +0.229 C 
ATOM     13  C   UNL     1      -5.538 -10.739  14.044  0.00  0.00    +0.188 C 
ATOM     14  O   UNL     1      -5.879 -10.748  14.794  0.00  0.00    -0.348 OA
ATOM     15  C   UNL     1      -5.274 -10.705  15.351  0.00  0.00    +0.168 C 
ATOM     16  C   UNL     1      -5.109 -10.685  16.160  0.00  0.00    +0.155 C 
ATOM     17  C   UNL     1      -4.291 -10.636  16.253  0.00  0.00    +0.166 C 
ATOM     18  O   UNL     1      -3.950 -10.627  15.503  0.00  0.00    -0.348 OA
ATOM     19  C   UNL     1      -4.557 -10.670  14.945  0.00  0.00    +0.186 C 
ENDROOT
BRANCH  16  20
ATOM     20  N   UNL     1      -5.666 -10.708  16.768  0.00  0.00    -0.196 NA
ATOM     21  C   UNL     1      -5.458 -10.463  17.528  0.00  0.00    +0.300 C 
ATOM     22  O   UNL     1      -4.694 -10.193  17.680  0.00  0.00    -0.265 OA
BRANCH  21  23
ATOM     23  C   UNL     1      -6.016 -10.486  18.136  0.00  0.00    +0.200 A 
ATOM     24  C   UNL     1      -5.891 -10.781  18.896  0.00  0.00    +0.046 A 
ATOM     25  C   UNL     1      -6.594 -10.696  19.321  0.00  0.00    +0.044 A 
ATOM     26  C   UNL     1      -7.151 -10.348  18.823  0.00  0.00    +0.180 A 
ATOM     27  O   UNL     1      -6.794 -10.219  18.091  0.00  0.00    -0.446 OA
ENDBRANCH  21  23
ENDBRANCH  16  20
BRANCH  12  11
ATOM     11  O   UNL     1      -4.163 -10.667  13.529  0.00  0.00    -0.432 OA
BRANCH  11   9
ATOM      8  N   UNL     1      -3.967 -10.574  12.117  0.00  0.00    -0.142 NA
ATOM      9  C   UNL     1      -4.361 -10.335  12.800  0.00  0.00    +0.425 C 
ATOM     10  O   UNL     1      -4.954  -9.762  12.756  0.00  0.00    -0.224 OA
BRANCH   8   7
ATOM      4  C   UNL     1      -4.562  -9.577   9.931  0.00  0.00    -0.022 A 
ATOM      5  C   UNL     1      -4.975 -10.234  10.211  0.00  0.00    -0.003 A 
ATOM      6  C   UNL     1      -4.776 -10.566  10.939  0.00  0.00    +0.016 A 
ATOM      7  C   UNL     1      -4.165 -10.241  11.388  0.00  0.00    +0.077 A 
ATOM     28  C   UNL     1      -3.752  -9.584  11.108  0.00  0.00    +0.016 A 
ATOM     29  C   UNL     1      -3.951  -9.252  10.379  0.00  0.00    -0.003 A 
BRANCH   4   2
ATOM      1  C   UNL     1      -5.032  -8.466   9.164  0.00  0.00    +0.005 C 
ATOM      2  C   UNL     1      -4.760  -9.245   9.202  0.00  0.00    +0.022 C 
ATOM      3  C   UNL     1      -4.688  -9.691   8.512  0.00  0.00    +0.005 C 
ENDBRANCH   4   2
ENDBRANCH   8   7
ENDBRANCH  11   9
ENDBRANCH  12  11
TORSDOF 6
ENDMDL
MODEL 10
REMARK VINA RESULT:      -6.2     14.934     16.838
REMARK  Name = 
REMARK  6 active torsions:
REMARK  status: ('A' for Active; 'I' for Inactive)
REMARK    1  A    between atoms: C_2  and  C_4
REMARK    2  A    between atoms: C_7  and  N_8
REMARK    3  A    between atoms: C_9  and  O_11
REMARK    4  A    between atoms: O_11  and  C_12
REMARK    5  A    between atoms: C_16  and  N_20
REMARK    6  A    between atoms: C_21  and  C_23
REMARK                            x       y       z     vdW  Elec       q    Type
REMARK                         _______ _______ _______ _____ _____    ______ ____
ROOT
ATOM     12  C   UNL     1      -6.030 -10.436  14.220  0.00  0.00    +0.229 C 
ATOM     13  C   UNL     1      -6.752 -10.620  13.866  0.00  0.00    +0.188 C 
ATOM     14  O   UNL     1      -7.352 -10.433  14.401  0.00  0.00    -0.348 OA
ATOM     15  C   UNL     1      -7.001 -10.134  15.084  0.00  0.00    +0.168 C 
ATOM     16  C   UNL     1      -7.154  -9.833  15.837  0.00  0.00    +0.155 C 
ATOM     17  C   UNL     1      -6.432  -9.649  16.190  0.00  0.00    +0.166 C 
ATOM     18  O   UNL     1      -5.832  -9.836  15.656  0.00  0.00    -0.348 OA
ATOM     19  C   UNL     1      -6.184 -10.136  14.972  0.00  0.00    +0.186 C 
ENDROOT
BRANCH  16  20
ATOM     20  N   UNL     1      -7.899  -9.734  16.177  0.00  0.00    -0.196 NA
ATOM     21  C   UNL     1      -7.985  -9.271  16.854  0.00  0.00    +0.300 C 
ATOM     22  O   UNL     1      -7.327  -8.908  17.193  0.00  0.00    -0.265 OA
BRANCH  21  23
ATOM     23  C   UNL     1      -8.731  -9.172  17.194  0.00  0.00    +0.200 A 
ATOM     24  C   UNL     1      -9.225  -8.519  17.096  0.00  0.00    +0.046 A 
ATOM     25  C   UNL     1      -9.913  -8.652  17.533  0.00  0.00    +0.044 A 
ATOM     26  C   UNL     1      -9.843  -9.386  17.901  0.00  0.00    +0.180 A 
ATOM     27  O   UNL     1      -9.113  -9.708  17.691  0.00  0.00    -0.446 OA
ENDBRANCH  21  23
ENDBRANCH  16  20
BRANCH  12  11
ATOM     11  O   UNL     1      -5.284 -10.535  13.880  0.00  0.00    -0.432 OA
BRANCH  11   9
ATOM      8  N   UNL     1      -4.551  -9.994  12.779  0.00  0.00    -0.142 NA
ATOM      9  C   UNL     1      -5.185 -10.436  13.067  0.00  0.00    +0.425 C 
ATOM     10  O   UNL     1      -5.720 -10.781  12.541  0.00  0.00    -0.224 OA
BRANCH   8   7
ATOM      4  C   UNL     1      -4.252  -9.698  10.340  0.00  0.00    -0.022 A 
ATOM      5  C   UNL     1      -3.829 -10.283  10.740  0.00  0.00    -0.003 A 
ATOM      6  C   UNL     1      -3.929 -10.382  11.553  0.00  0.00    +0.016 A 
ATOM      7  C   UNL     1      -4.452  -9.895  11.966  0.00  0.00    +0.077 A 
ATOM     28  C   UNL     1      -4.874  -9.310  11.567  0.00  0.00    +0.016 A 
ATOM     29  C   UNL     1      -4.774  -9.212  10.754  0.00  0.00    -0.003 A 
BRANCH   4   2
ATOM      1  C   UNL     1      -4.381 -10.199   9.008  0.00  0.00    +0.005 C 
ATOM      2  C   UNL     1      -4.152  -9.600   9.527  0.00  0.00    +0.022 C 
ATOM      3  C   UNL     1      -3.822  -8.903   9.233  0.00  0.00    +0.005 C 
ENDBRANCH   4   2
ENDBRANCH   8   7
ENDBRANCH  11   9
ENDBRANCH  12  11
TORSDOF 6
ENDMDL
