MODEL 1
REMARK VINA RESULT:      -8.2      0.000      0.000
REMARK  Name = 
REMARK  6 active torsions:
REMARK  status: ('A' for Active; 'I' for Inactive)
REMARK    1  A    between atoms: S_2  and  N_5
REMARK    2  A    between atoms: N_5  and  C_6
REMARK    3  A    between atoms: C_6  and  C_7
REMARK    4  A    between atoms: C_9  and  C_10
REMARK    5  A    between atoms: C_10  and  C_11
REMARK    6  A    between atoms: N_13  and  C_14
REMARK                            x       y       z     vdW  Elec       q    Type
REMARK                         _______ _______ _______ _____ _____    ______ ____
ROOT
ATOM      7  C   UNL     1      -4.774   1.805  25.048  0.00  0.00    +0.167 C 
ATOM      8  O   UNL     1      -4.145   2.300  25.247  0.00  0.00    -0.351 OA
ATOM      9  C   UNL     1      -4.456   3.030  25.472  0.00  0.00    +0.157 C 
ATOM     17  C   UNL     1      -5.278   2.987  25.412  0.00  0.00    +0.212 C 
ATOM     18  O   UNL     1      -5.810   3.593  25.584  0.00  0.00    -0.218 OA
ATOM     19  C   UNL     1      -5.474   2.230  25.150  0.00  0.00    +0.213 C 
ATOM     20  O   UNL     1      -6.237   1.946  25.013  0.00  0.00    -0.218 OA
ENDROOT
BRANCH   7   6
ATOM      6  C   UNL     1      -4.713   1.023  24.791  0.00  0.00    +0.147 C 
BRANCH   6   5
ATOM      5  N   UNL     1      -4.008   0.607  24.900  0.00  0.00    -0.079 NA
BRANCH   5   2
ATOM      1  C   UNL     1      -3.897  -0.966  24.419  0.00  0.00    +0.197 C 
ATOM      2  S   UNL     1      -3.953  -0.179  24.660  0.00  0.00    +0.059 S 
ATOM      3  O   UNL     1      -4.098  -0.426  25.433  0.00  0.00    -0.156 OA
ATOM      4  O   UNL     1      -3.808   0.067  23.886  0.00  0.00    -0.156 OA
ENDBRANCH   5   2
ENDBRANCH   6   5
ENDBRANCH   7   6
BRANCH   9  10
ATOM     10  C   UNL     1      -4.022   3.689  25.715  0.00  0.00    +0.119 C 
BRANCH  10  11
ATOM     11  C   UNL     1      -3.283   3.841  25.382  0.00  0.00    +0.244 C 
ATOM     12  O   UNL     1      -3.215   3.972  24.570  0.00  0.00    -0.273 OA
ATOM     13  N   UNL     1      -2.612   3.862  25.861  0.00  0.00    -0.207 NA
BRANCH  13  14
ATOM     14  C   UNL     1      -1.872   4.014  25.528  0.00  0.00    +0.095 C 
ATOM     15  C   UNL     1      -1.097   3.779  25.371  0.00  0.00    +0.023 C 
ATOM     16  C   UNL     1      -1.366   4.513  25.109  0.00  0.00    +0.023 C 
ENDBRANCH  13  14
ENDBRANCH  10  11
ENDBRANCH   9  10
TORSDOF 6
ENDMDL
MODEL 2
REMARK VINA RESULT:      -7.9      1.256      3.628
REMARK  Name = 
REMARK  6 active torsions:
REMARK  status: ('A' for Active; 'I' for Inactive)
REMARK    1  A    between atoms: S_2  and  N_5
REMARK    2  A    between atoms: N_5  and  C_6
REMARK    3  A    between atoms: C_6  and  C_7
REMARK    4  A    between atoms: C_9  and  C_10
REMARK    5  A    between atoms: C_10  and  C_11
REMARK    6  A    between atoms: N_13  and  C_14
REMARK                            x       y       z     vdW  Elec       q    Type
REMARK                         _______ _______ _______ _____ _____    ______ ____
ROOT
ATOM      7  C   UNL     1      -4.331   2.862  25.220  0.00  0.00    +0.167 C 
ATOM      8  O   UNL     1      -4.173   2.079  25.013  0.00  0.00    -0.351 OA
ATOM      9  C   UNL     1      -4.890   1.674  24.976  0.00  0.00    +0.157 C 
ATOM     17  C   UNL     1      -5.493   2.206  25.161  0.00  0.00    +0.212 C 
ATOM     18  O   UNL     1      -6.300   2.035  25.190  0.00  0.00    -0.218 OA
ATOM     19  C   UNL     1      -5.148   2.940  25.311  0.00  0.00    +0.213 C 
ATOM     20  O   UNL     1      -5.548   3.632  25.517  0.00  0.00    -0.218 OA
ENDROOT
BRANCH   7   6
ATOM      6  C   UNL     1      -3.772   3.460  25.318  0.00  0.00    +0.147 C 
BRANCH   6   5
ATOM      5  N   UNL     1      -2.970   3.270  25.367  0.00  0.00    -0.079 NA
BRANCH   5   2
ATOM      1  C   UNL     1      -1.843   4.472  25.453  0.00  0.00    +0.197 C 
ATOM      2  S   UNL     1      -2.407   3.871  25.410  0.00  0.00    +0.059 S 
ATOM      3  O   UNL     1      -2.483   3.884  26.231  0.00  0.00    -0.156 OA
ATOM      4  O   UNL     1      -2.330   3.858  24.589  0.00  0.00    -0.156 OA
ENDBRANCH   5   2
ENDBRANCH   6   5
ENDBRANCH   7   6
BRANCH   9  10
ATOM     10  C   UNL     1      -4.988   0.876  24.789  0.00  0.00    +0.119 C 
BRANCH  10  11
ATOM     11  C   UNL     1      -4.335   0.373  24.773  0.00  0.00    +0.244 C 
ATOM     12  O   UNL     1      -3.786   0.430  24.160  0.00  0.00    -0.273 OA
ATOM     13  N   UNL     1      -4.232  -0.187  25.369  0.00  0.00    -0.207 NA
BRANCH  13  14
ATOM     14  C   UNL     1      -3.579  -0.691  25.353  0.00  0.00    +0.095 C 
ATOM     15  C   UNL     1      -2.921  -1.021  25.728  0.00  0.00    +0.023 C 
ATOM     16  C   UNL     1      -3.104  -1.234  24.952  0.00  0.00    +0.023 C 
ENDBRANCH  13  14
ENDBRANCH  10  11
ENDBRANCH   9  10
TORSDOF 6
ENDMDL
MODEL 3
REMARK VINA RESULT:      -7.8      1.937      4.099
REMARK  Name = 
REMARK  6 active torsions:
REMARK  status: ('A' for Active; 'I' for Inactive)
REMARK    1  A    between atoms: S_2  and  N_5
REMARK    2  A    between atoms: N_5  and  C_6
REMARK    3  A    between atoms: C_6  and  C_7
REMARK    4  A    between atoms: C_9  and  C_10
REMARK    5  A    between atoms: C_10  and  C_11
REMARK    6  A    between atoms: N_13  and  C_14
REMARK                            x       y       z     vdW  Elec       q    Type
REMARK                         _______ _______ _______ _____ _____    ______ ____
ROOT
ATOM      7  C   UNL     1      -2.866   1.791  24.766  0.00  0.00    +0.167 C 
ATOM      8  O   UNL     1      -3.113   1.009  24.854  0.00  0.00    -0.351 OA
ATOM      9  C   UNL     1      -3.934   0.990  24.773  0.00  0.00    +0.157 C 
ATOM     17  C   UNL     1      -4.195   1.760  24.636  0.00  0.00    +0.212 C 
ATOM     18  O   UNL     1      -4.978   1.994  24.523  0.00  0.00    -0.218 OA
ATOM     19  C   UNL     1      -3.535   2.255  24.631  0.00  0.00    +0.213 C 
ATOM     20  O   UNL     1      -3.543   3.072  24.513  0.00  0.00    -0.218 OA
ENDROOT
BRANCH   7   6
ATOM      6  C   UNL     1      -2.088   2.061  24.805  0.00  0.00    +0.147 C 
BRANCH   6   5
ATOM      5  N   UNL     1      -1.487   1.551  25.052  0.00  0.00    -0.079 NA
BRANCH   5   2
ATOM      1  C   UNL     1       0.062   2.104  25.180  0.00  0.00    +0.197 C 
ATOM      2  S   UNL     1      -0.713   1.828  25.116  0.00  0.00    +0.059 S 
ATOM      3  O   UNL     1      -0.595   1.686  24.312  0.00  0.00    -0.156 OA
ATOM      4  O   UNL     1      -0.830   1.969  25.920  0.00  0.00    -0.156 OA
ENDBRANCH   5   2
ENDBRANCH   6   5
ENDBRANCH   7   6
BRANCH   9  10
ATOM     10  C   UNL     1      -4.410   0.317  24.822  0.00  0.00    +0.119 C 
BRANCH  10  11
ATOM     11  C   UNL     1      -4.127  -0.410  24.554  0.00  0.00    +0.244 C 
ATOM     12  O   UNL     1      -3.949  -0.513  23.756  0.00  0.00    -0.273 OA
ATOM     13  N   UNL     1      -4.023  -1.032  25.085  0.00  0.00    -0.207 NA
BRANCH  13  14
ATOM     14  C   UNL     1      -3.740  -1.759  24.817  0.00  0.00    +0.095 C 
ATOM     15  C   UNL     1      -3.296  -2.444  24.943  0.00  0.00    +0.023 C 
ATOM     16  C   UNL     1      -3.693  -2.335  24.228  0.00  0.00    +0.023 C 
ENDBRANCH  13  14
ENDBRANCH  10  11
ENDBRANCH   9  10
TORSDOF 6
ENDMDL
MODEL 4
REMARK VINA RESULT:      -7.4      1.639      2.041
REMARK  Name = 
REMARK  6 active torsions:
REMARK  status: ('A' for Active; 'I' for Inactive)
REMARK    1  A    between atoms: S_2  and  N_5
REMARK    2  A    between atoms: N_5  and  C_6
REMARK    3  A    between atoms: C_6  and  C_7
REMARK    4  A    between atoms: C_9  and  C_10
REMARK    5  A    between atoms: C_10  and  C_11
REMARK    6  A    between atoms: N_13  and  C_14
REMARK                            x       y       z     vdW  Elec       q    Type
REMARK                         _______ _______ _______ _____ _____    ______ ____
ROOT
ATOM      7  C   UNL     1      -3.114   0.726  24.870  0.00  0.00    +0.167 C 
ATOM      8  O   UNL     1      -2.896   1.514  24.983  0.00  0.00    -0.351 OA
ATOM      9  C   UNL     1      -3.569   1.981  24.883  0.00  0.00    +0.157 C 
ATOM     17  C   UNL     1      -4.202   1.483  24.708  0.00  0.00    +0.212 C 
ATOM     18  O   UNL     1      -4.980   1.718  24.565  0.00  0.00    -0.218 OA
ATOM     19  C   UNL     1      -3.921   0.707  24.700  0.00  0.00    +0.213 C 
ATOM     20  O   UNL     1      -4.368   0.030  24.548  0.00  0.00    -0.218 OA
ENDROOT
BRANCH   7   6
ATOM      6  C   UNL     1      -2.612   0.073  24.919  0.00  0.00    +0.147 C 
BRANCH   6   5
ATOM      5  N   UNL     1      -1.837   0.168  25.185  0.00  0.00    -0.079 NA
BRANCH   5   2
ATOM      1  C   UNL     1      -0.827  -1.134  25.265  0.00  0.00    +0.197 C 
ATOM      2  S   UNL     1      -1.332  -0.482  25.225  0.00  0.00    +0.059 S 
ATOM      3  O   UNL     1      -1.093  -0.345  24.448  0.00  0.00    -0.156 OA
ATOM      4  O   UNL     1      -1.571  -0.621  26.002  0.00  0.00    -0.156 OA
ENDBRANCH   5   2
ENDBRANCH   6   5
ENDBRANCH   7   6
BRANCH   9  10
ATOM     10  C   UNL     1      -3.602   2.803  24.946  0.00  0.00    +0.119 C 
BRANCH  10  11
ATOM     11  C   UNL     1      -2.924   3.255  24.816  0.00  0.00    +0.244 C 
ATOM     12  O   UNL     1      -2.534   3.214  24.091  0.00  0.00    -0.273 OA
ATOM     13  N   UNL     1      -2.637   3.748  25.412  0.00  0.00    -0.207 NA
BRANCH  13  14
ATOM     14  C   UNL     1      -1.959   4.200  25.282  0.00  0.00    +0.095 C 
ATOM     15  C   UNL     1      -1.586   4.935  25.248  0.00  0.00    +0.023 C 
ATOM     16  C   UNL     1      -1.158   4.248  25.091  0.00  0.00    +0.023 C 
ENDBRANCH  13  14
ENDBRANCH  10  11
ENDBRANCH   9  10
TORSDOF 6
ENDMDL
MODEL 5
REMARK VINA RESULT:      -7.4      1.891      3.390
REMARK  Name = 
REMARK  6 active torsions:
REMARK  status: ('A' for Active; 'I' for Inactive)
REMARK    1  A    between atoms: S_2  and  N_5
REMARK    2  A    between atoms: N_5  and  C_6
REMARK    3  A    between atoms: C_6  and  C_7
REMARK    4  A    between atoms: C_9  and  C_10
REMARK    5  A    between atoms: C_10  and  C_11
REMARK    6  A    between atoms: N_13  and  C_14
REMARK                            x       y       z     vdW  Elec       q    Type
REMARK                         _______ _______ _______ _____ _____    ______ ____
ROOT
ATOM      7  C   UNL     1      -1.618   2.725  25.241  0.00  0.00    +0.167 C 
ATOM      8  O   UNL     1      -2.441   2.755  25.283  0.00  0.00    -0.351 OA
ATOM      9  C   UNL     1      -2.662   3.541  25.395  0.00  0.00    +0.157 C 
ATOM     17  C   UNL     1      -1.976   3.998  25.422  0.00  0.00    +0.212 C 
ATOM     18  O   UNL     1      -1.941   4.816  25.525  0.00  0.00    -0.218 OA
ATOM     19  C   UNL     1      -1.331   3.494  25.326  0.00  0.00    +0.213 C 
ATOM     20  O   UNL     1      -0.536   3.718  25.318  0.00  0.00    -0.218 OA
ENDROOT
BRANCH   7   6
ATOM      6  C   UNL     1      -1.162   2.045  25.132  0.00  0.00    +0.147 C 
BRANCH   6   5
ATOM      5  N   UNL     1      -1.529   1.308  25.077  0.00  0.00    -0.079 NA
BRANCH   5   2
ATOM      1  C   UNL     1      -0.622  -0.047  24.824  0.00  0.00    +0.197 C 
ATOM      2  S   UNL     1      -1.076   0.631  24.950  0.00  0.00    +0.059 S 
ATOM      3  O   UNL     1      -1.005   0.526  25.765  0.00  0.00    -0.156 OA
ATOM      4  O   UNL     1      -1.146   0.736  24.135  0.00  0.00    -0.156 OA
ENDBRANCH   5   2
ENDBRANCH   6   5
ENDBRANCH   7   6
BRANCH   9  10
ATOM     10  C   UNL     1      -3.435   3.822  25.467  0.00  0.00    +0.119 C 
BRANCH  10  11
ATOM     11  C   UNL     1      -4.069   3.354  25.225  0.00  0.00    +0.244 C 
ATOM     12  O   UNL     1      -4.175   3.186  24.424  0.00  0.00    -0.273 OA
ATOM     13  N   UNL     1      -4.596   3.053  25.783  0.00  0.00    -0.207 NA
BRANCH  13  14
ATOM     14  C   UNL     1      -5.230   2.584  25.540  0.00  0.00    +0.095 C 
ATOM     15  C   UNL     1      -5.780   1.989  25.697  0.00  0.00    +0.023 C 
ATOM     16  C   UNL     1      -5.779   2.367  24.964  0.00  0.00    +0.023 C 
ENDBRANCH  13  14
ENDBRANCH  10  11
ENDBRANCH   9  10
TORSDOF 6
ENDMDL
MODEL 6
REMARK VINA RESULT:      -7.4      1.894      4.364
REMARK  Name = 
REMARK  6 active torsions:
REMARK  status: ('A' for Active; 'I' for Inactive)
REMARK    1  A    between atoms: S_2  and  N_5
REMARK    2  A    between atoms: N_5  and  C_6
REMARK    3  A    between atoms: C_6  and  C_7
REMARK    4  A    between atoms: C_9  and  C_10
REMARK    5  A    between atoms: C_10  and  C_11
REMARK    6  A    between atoms: N_13  and  C_14
REMARK                            x       y       z     vdW  Elec       q    Type
REMARK                         _______ _______ _______ _____ _____    ______ ____
ROOT
ATOM      7  C   UNL     1      -3.149   1.728  24.479  0.00  0.00    +0.167 C 
ATOM      8  O   UNL     1      -3.073   0.994  24.848  0.00  0.00    -0.351 OA
ATOM      9  C   UNL     1      -2.367   0.652  24.594  0.00  0.00    +0.157 C 
ATOM     17  C   UNL     1      -2.005   1.173  24.068  0.00  0.00    +0.212 C 
ATOM     18  O   UNL     1      -1.287   1.052  23.681  0.00  0.00    -0.218 OA
ATOM     19  C   UNL     1      -2.488   1.838  23.997  0.00  0.00    +0.213 C 
ATOM     20  O   UNL     1      -2.337   2.499  23.526  0.00  0.00    -0.218 OA
ENDROOT
BRANCH   7   6
ATOM      6  C   UNL     1      -3.774   2.257  24.575  0.00  0.00    +0.147 C 
BRANCH   6   5
ATOM      5  N   UNL     1      -4.286   2.177  25.217  0.00  0.00    -0.079 NA
BRANCH   5   2
ATOM      1  C   UNL     1      -5.505   3.266  25.440  0.00  0.00    +0.197 C 
ATOM      2  S   UNL     1      -4.895   2.721  25.328  0.00  0.00    +0.059 S 
ATOM      3  O   UNL     1      -4.410   3.164  25.827  0.00  0.00    -0.156 OA
ATOM      4  O   UNL     1      -5.382   2.279  24.831  0.00  0.00    -0.156 OA
ENDBRANCH   5   2
ENDBRANCH   6   5
ENDBRANCH   7   6
BRANCH   9  10
ATOM     10  C   UNL     1      -2.074  -0.084  24.826  0.00  0.00    +0.119 C 
BRANCH  10  11
ATOM     11  C   UNL     1      -2.592  -0.712  24.958  0.00  0.00    +0.244 C 
ATOM     12  O   UNL     1      -3.034  -0.743  25.655  0.00  0.00    -0.273 OA
ATOM     13  N   UNL     1      -2.669  -1.309  24.395  0.00  0.00    -0.207 NA
BRANCH  13  14
ATOM     14  C   UNL     1      -3.188  -1.937  24.527  0.00  0.00    +0.095 C 
ATOM     15  C   UNL     1      -3.817  -2.410  24.276  0.00  0.00    +0.023 C 
ATOM     16  C   UNL     1      -3.458  -2.552  25.006  0.00  0.00    +0.023 C 
ENDBRANCH  13  14
ENDBRANCH  10  11
ENDBRANCH   9  10
TORSDOF 6
ENDMDL
