REMARK  Name = 
REMARK  6 active torsions:
REMARK  status: ('A' for Active; 'I' for Inactive)
REMARK    1  A    between atoms: C_4  and  C_5
REMARK    2  A    between atoms: C_5  and  C_6
REMARK    3  A    between atoms: C_9  and  C_10
REMARK    4  A    between atoms: C_10  and  C_11
REMARK    5  A    between atoms: C_19  and  N_20
REMARK    6  A    between atoms: C_21  and  C_23
REMARK                            x       y       z     vdW  Elec       q    Type
REMARK                         _______ _______ _______ _____ _____    ______ ____
ROOT
ATOM      1  C   UNL     1       0.182  -3.368   0.000  0.00  0.00    +0.002 C 
ATOM      2  C   UNL     1      -0.401  -3.952   0.000  0.00  0.00    +0.019 C 
ATOM      3  C   UNL     1      -0.984  -3.368   0.000  0.00  0.00    +0.002 C 
ATOM      4  C   UNL     1       0.182  -4.535   0.000  0.00  0.00    +0.009 C 
ATOM     18  C   UNL     1      -0.401  -5.118   0.000  0.00  0.00    +0.022 C 
ATOM     19  C   UNL     1      -0.984  -4.535   0.000  0.00  0.00    +0.095 C 
ENDROOT
BRANCH  19  20
ATOM     20  N   UNL     1      -1.809  -4.535   0.000  0.00  0.00    -0.207 NA
ATOM     21  C   UNL     1      -2.222  -5.250   0.000  0.00  0.00    +0.241 C 
ATOM     22  O   UNL     1      -1.809  -5.964   0.000  0.00  0.00    -0.273 OA
BRANCH  21  23
ATOM     23  C   UNL     1      -3.047  -5.250   0.000  0.00  0.00    +0.078 C 
ATOM     24  C   UNL     1      -3.532  -5.917   0.000  0.00  0.00    +0.009 C 
ATOM     25  C   UNL     1      -4.316  -5.662   0.000  0.00  0.00    +0.001 C 
ATOM     26  C   UNL     1      -4.316  -4.837   0.000  0.00  0.00    +0.001 C 
ATOM     27  C   UNL     1      -3.532  -4.582   0.000  0.00  0.00    +0.009 C 
ENDBRANCH  21  23
ENDBRANCH  19  20
BRANCH   4   5
ATOM      5  C   UNL     1       1.007  -4.535   0.000  0.00  0.00    +0.049 C 
BRANCH   5   6
ATOM      6  C   UNL     1       1.420  -5.250   0.000  0.00  0.00    +0.100 A 
ATOM      7  N   UNL     1       2.240  -5.336   0.000  0.00  0.00    -0.082 NA
ATOM      8  O   UNL     1       2.412  -6.143   0.000  0.00  0.00    -0.358 OA
ATOM      9  C   UNL     1       1.697  -6.555   0.000  0.00  0.00    +0.154 A 
ATOM     17  C   UNL     1       1.084  -6.003   0.000  0.00  0.00    +0.054 A 
BRANCH   9  10
ATOM     10  C   UNL     1       1.611  -7.376   0.000  0.00  0.00    +0.067 C 
BRANCH  10  11
ATOM     11  C   UNL     1       2.279  -7.861   0.000  0.00  0.00    +0.008 C 
ATOM     12  C   UNL     1       3.032  -7.525   0.000  0.00  0.00    +0.000 C 
ATOM     13  C   UNL     1       3.700  -8.010   0.000  0.00  0.00    +0.000 C 
ATOM     14  C   UNL     1       3.614  -8.831   0.000  0.00  0.00    +0.000 C 
ATOM     15  C   UNL     1       2.860  -9.166   0.000  0.00  0.00    +0.000 C 
ATOM     16  C   UNL     1       2.192  -8.681   0.000  0.00  0.00    +0.000 C 
ENDBRANCH  10  11
ENDBRANCH   9  10
ENDBRANCH   5   6
ENDBRANCH   4   5
TORSDOF 6
