MODEL 1
REMARK VINA RESULT:     -10.0      0.000      0.000
REMARK  Name = 
REMARK  9 active torsions:
REMARK  status: ('A' for Active; 'I' for Inactive)
REMARK    1  A    between atoms: O_2  and  C_3
REMARK    2  A    between atoms: C_6  and  N_7
REMARK    3  A    between atoms: N_10  and  C_11
REMARK    4  A    between atoms: C_13  and  C_21
REMARK    5  A    between atoms: C_16  and  C_18
REMARK    6  A    between atoms: N_23  and  C_24
REMARK    7  A    between atoms: C_24  and  C_25
REMARK    8  A    between atoms: C_24  and  C_35
REMARK    9  A    between atoms: C_25  and  C_26
REMARK                            x       y       z     vdW  Elec       q    Type
REMARK                         _______ _______ _______ _____ _____    ______ ____
ROOT
ATOM     11  C   UNL     1       0.360  -0.243  23.216  0.00  0.00    +0.119 C 
ATOM     12  C   UNL     1      -0.252   0.309  23.211  0.00  0.00    +0.053 C 
ATOM     13  C   UNL     1      -0.764   0.128  23.833  0.00  0.00    +0.155 C 
ATOM     14  N   UNL     1      -0.467  -0.537  24.222  0.00  0.00    -0.271 N 
ATOM     15  C   UNL     1       0.228  -0.766  23.841  0.00  0.00    +0.115 C 
ATOM     16  C   UNL     1      -0.805  -0.907  24.877  0.00  0.00    +0.226 C 
ATOM     17  O   UNL     1      -0.443  -1.570  25.208  0.00  0.00    -0.275 OA
ENDROOT
BRANCH  11  10
ATOM      7  N   UNL     1       2.386  -0.089  22.417  0.00  0.00    -0.161 NA
ATOM      8  C   UNL     1       1.752  -0.064  22.944  0.00  0.00    +0.343 C 
ATOM      9  O   UNL     1       1.876   0.165  23.727  0.00  0.00    -0.249 OA
ATOM     10  N   UNL     1       0.995  -0.268  22.689  0.00  0.00    -0.187 NA
BRANCH   7   6
ATOM      3  C   UNL     1       4.659   0.523  23.184  0.00  0.00    +0.139 A 
ATOM      4  C   UNL     1       4.178   1.089  22.823  0.00  0.00    +0.038 A 
ATOM      5  C   UNL     1       3.421   0.885  22.567  0.00  0.00    +0.020 A 
ATOM      6  C   UNL     1       3.144   0.115  22.672  0.00  0.00    +0.075 A 
ATOM     38  C   UNL     1       3.623  -0.451  23.033  0.00  0.00    +0.020 A 
ATOM     39  C   UNL     1       4.381  -0.247  23.289  0.00  0.00    +0.038 A 
BRANCH   3   2
ATOM      1  C   UNL     1       5.797   0.267  24.009  0.00  0.00    +0.252 C 
ATOM      2  O   UNL     1       5.416   0.727  23.440  0.00  0.00    -0.471 OA
ENDBRANCH   3   2
ENDBRANCH   7   6
ENDBRANCH  11  10
BRANCH  16  18
ATOM     18  C   UNL     1      -1.505  -0.614  25.200  0.00  0.00    +0.077 C 
ATOM     19  C   UNL     1      -1.892  -0.119  25.734  0.00  0.00    +0.010 C 
ATOM     20  C   UNL     1      -2.330  -0.602  25.228  0.00  0.00    +0.010 C 
ENDBRANCH  16  18
BRANCH  13  21
ATOM     21  C   UNL     1      -1.451   0.539  24.031  0.00  0.00    +0.260 C 
ATOM     22  O   UNL     1      -2.033   0.173  24.487  0.00  0.00    -0.272 OA
ATOM     23  N   UNL     1      -1.557   1.315  23.773  0.00  0.00    -0.196 NA
BRANCH  23  24
ATOM     24  C   UNL     1      -2.244   1.726  23.971  0.00  0.00    +0.179 C 
BRANCH  24  35
ATOM     35  C   UNL     1      -2.893   1.712  23.462  0.00  0.00    +0.281 C 
ATOM     36  N   UNL     1      -2.783   1.835  22.652  0.00  0.00    -0.086 NA
ATOM     37  O   UNL     1      -3.649   1.577  23.759  0.00  0.00    -0.270 OA
ENDBRANCH  24  35
BRANCH  24  25
ATOM     25  C   UNL     1      -2.283   2.150  24.678  0.00  0.00    +0.059 C 
BRANCH  25  26
ATOM     26  C   UNL     1      -1.967   2.910  24.721  0.00  0.00    +0.001 A 
ATOM     27  C   UNL     1      -1.335   3.199  24.276  0.00  0.00    +0.095 A 
ATOM     28  N   UNL     1      -1.204   3.983  24.497  0.00  0.00    -0.244 NA
ATOM     29  C   UNL     1      -1.755   4.178  25.079  0.00  0.00    +0.081 A 
ATOM     30  C   UNL     1      -2.226   3.515  25.217  0.00  0.00    +0.015 A 
ATOM     31  C   UNL     1      -2.830   3.550  25.778  0.00  0.00    +0.001 A 
ATOM     32  C   UNL     1      -2.963   4.246  26.200  0.00  0.00    +0.000 A 
ATOM     33  C   UNL     1      -2.492   4.908  26.061  0.00  0.00    +0.002 A 
ATOM     34  C   UNL     1      -1.888   4.875  25.500  0.00  0.00    +0.019 A 
ENDBRANCH  25  26
ENDBRANCH  24  25
ENDBRANCH  23  24
ENDBRANCH  13  21
TORSDOF 9
ENDMDL
MODEL 2
REMARK VINA RESULT:      -9.4      1.387      3.086
REMARK  Name = 
REMARK  9 active torsions:
REMARK  status: ('A' for Active; 'I' for Inactive)
REMARK    1  A    between atoms: O_2  and  C_3
REMARK    2  A    between atoms: C_6  and  N_7
REMARK    3  A    between atoms: N_10  and  C_11
REMARK    4  A    between atoms: C_13  and  C_21
REMARK    5  A    between atoms: C_16  and  C_18
REMARK    6  A    between atoms: N_23  and  C_24
REMARK    7  A    between atoms: C_24  and  C_25
REMARK    8  A    between atoms: C_24  and  C_35
REMARK    9  A    between atoms: C_25  and  C_26
REMARK                            x       y       z     vdW  Elec       q    Type
REMARK                         _______ _______ _______ _____ _____    ______ ____
ROOT
ATOM     11  C   UNL     1       0.381   0.931  23.521  0.00  0.00    +0.119 C 
ATOM     12  C   UNL     1      -0.438   0.839  23.538  0.00  0.00    +0.053 C 
ATOM     13  C   UNL     1      -0.735   1.314  24.145  0.00  0.00    +0.155 C 
ATOM     14  N   UNL     1      -0.099   1.698  24.503  0.00  0.00    -0.271 N 
ATOM     15  C   UNL     1       0.591   1.462  24.118  0.00  0.00    +0.115 C 
ATOM     16  C   UNL     1      -0.145   2.226  25.135  0.00  0.00    +0.226 C 
ATOM     17  O   UNL     1       0.543   2.569  25.436  0.00  0.00    -0.275 OA
ENDROOT
BRANCH  11  10
ATOM      7  N   UNL     1       2.231   0.196  22.624  0.00  0.00    -0.161 NA
ATOM      8  C   UNL     1       1.712   0.570  23.146  0.00  0.00    +0.343 C 
ATOM      9  O   UNL     1       2.006   0.955  23.813  0.00  0.00    -0.249 OA
ATOM     10  N   UNL     1       0.900   0.557  23.000  0.00  0.00    -0.187 NA
BRANCH   7   6
ATOM      3  C   UNL     1       4.667   0.232  23.063  0.00  0.00    +0.139 A 
ATOM      4  C   UNL     1       4.303   0.876  22.696  0.00  0.00    +0.038 A 
ATOM      5  C   UNL     1       3.492   0.864  22.550  0.00  0.00    +0.020 A 
ATOM      6  C   UNL     1       3.043   0.208  22.770  0.00  0.00    +0.075 A 
ATOM     38  C   UNL     1       3.406  -0.436  23.138  0.00  0.00    +0.020 A 
ATOM     39  C   UNL     1       4.218  -0.424  23.284  0.00  0.00    +0.038 A 
BRANCH   3   2
ATOM      1  C   UNL     1       5.760   0.153  23.980  0.00  0.00    +0.252 C 
ATOM      2  O   UNL     1       5.479   0.245  23.210  0.00  0.00    -0.471 OA
ENDBRANCH   3   2
ENDBRANCH   7   6
ENDBRANCH  11  10
BRANCH  16  18
ATOM     18  C   UNL     1      -0.877   2.411  25.466  0.00  0.00    +0.077 C 
ATOM     19  C   UNL     1      -1.481   2.243  26.001  0.00  0.00    +0.010 C 
ATOM     20  C   UNL     1      -1.541   2.899  25.504  0.00  0.00    +0.010 C 
ENDBRANCH  16  18
BRANCH  13  21
ATOM     21  C   UNL     1      -1.528   1.390  24.356  0.00  0.00    +0.260 C 
ATOM     22  O   UNL     1      -1.735   1.803  25.040  0.00  0.00    -0.272 OA
ATOM     23  N   UNL     1      -2.116   1.052  23.885  0.00  0.00    -0.196 NA
BRANCH  23  24
ATOM     24  C   UNL     1      -2.909   1.128  24.096  0.00  0.00    +0.179 C 
BRANCH  24  35
ATOM     35  C   UNL     1      -3.367   1.732  23.768  0.00  0.00    +0.281 C 
ATOM     36  N   UNL     1      -3.240   1.966  22.986  0.00  0.00    -0.086 NA
ATOM     37  O   UNL     1      -3.948   2.101  24.220  0.00  0.00    -0.270 OA
ENDBRANCH  24  35
BRANCH  24  25
ATOM     25  C   UNL     1      -3.245   0.602  24.635  0.00  0.00    +0.059 C 
BRANCH  25  26
ATOM     26  C   UNL     1      -3.493  -0.143  24.384  0.00  0.00    +0.001 A 
ATOM     27  C   UNL     1      -3.813  -0.325  23.645  0.00  0.00    +0.095 A 
ATOM     28  N   UNL     1      -3.983  -1.132  23.632  0.00  0.00    -0.244 NA
ATOM     29  C   UNL     1      -3.768  -1.449  24.361  0.00  0.00    +0.081 A 
ATOM     30  C   UNL     1      -3.465  -0.839  24.826  0.00  0.00    +0.015 A 
ATOM     31  C   UNL     1      -3.203  -0.995  25.593  0.00  0.00    +0.001 A 
ATOM     32  C   UNL     1      -3.244  -1.761  25.895  0.00  0.00    +0.000 A 
ATOM     33  C   UNL     1      -3.546  -2.372  25.430  0.00  0.00    +0.002 A 
ATOM     34  C   UNL     1      -3.808  -2.217  24.663  0.00  0.00    +0.019 A 
ENDBRANCH  25  26
ENDBRANCH  24  25
ENDBRANCH  23  24
ENDBRANCH  13  21
TORSDOF 9
ENDMDL
MODEL 3
REMARK VINA RESULT:      -9.1      2.876      4.515
REMARK  Name = 
REMARK  9 active torsions:
REMARK  status: ('A' for Active; 'I' for Inactive)
REMARK    1  A    between atoms: O_2  and  C_3
REMARK    2  A    between atoms: C_6  and  N_7
REMARK    3  A    between atoms: N_10  and  C_11
REMARK    4  A    between atoms: C_13  and  C_21
REMARK    5  A    between atoms: C_16  and  C_18
REMARK    6  A    between atoms: N_23  and  C_24
REMARK    7  A    between atoms: C_24  and  C_25
REMARK    8  A    between atoms: C_24  and  C_35
REMARK    9  A    between atoms: C_25  and  C_26
REMARK                            x       y       z     vdW  Elec       q    Type
REMARK                         _______ _______ _______ _____ _____    ______ ____
ROOT
ATOM     11  C   UNL     1      -0.659   1.630  24.709  0.00  0.00    +0.119 C 
ATOM     12  C   UNL     1      -1.410   1.856  24.452  0.00  0.00    +0.053 C 
ATOM     13  C   UNL     1      -1.534   2.638  24.683  0.00  0.00    +0.155 C 
ATOM     14  N   UNL     1      -0.859   2.896  25.082  0.00  0.00    -0.271 N 
ATOM     15  C   UNL     1      -0.318   2.273  25.098  0.00  0.00    +0.115 C 
ATOM     16  C   UNL     1      -0.745   3.645  25.407  0.00  0.00    +0.226 C 
ATOM     17  O   UNL     1      -0.037   3.824  25.793  0.00  0.00    -0.275 OA
ENDROOT
BRANCH  11  10
ATOM      7  N   UNL     1      -0.420  -0.532  24.527  0.00  0.00    -0.161 NA
ATOM      8  C   UNL     1      -0.769   0.207  24.640  0.00  0.00    +0.343 C 
ATOM      9  O   UNL     1      -1.577   0.261  24.796  0.00  0.00    -0.249 OA
ATOM     10  N   UNL     1      -0.310   0.891  24.596  0.00  0.00    -0.187 NA
BRANCH   7   6
ATOM      3  C   UNL     1      -1.797  -2.585  24.658  0.00  0.00    +0.139 A 
ATOM      4  C   UNL     1      -1.428  -2.291  25.335  0.00  0.00    +0.038 A 
ATOM      5  C   UNL     1      -0.969  -1.606  25.291  0.00  0.00    +0.020 A 
ATOM      6  C   UNL     1      -0.879  -1.217  24.571  0.00  0.00    +0.075 A 
ATOM     38  C   UNL     1      -1.247  -1.510  23.893  0.00  0.00    +0.020 A 
ATOM     39  C   UNL     1      -1.706  -2.194  23.936  0.00  0.00    +0.038 A 
BRANCH   3   2
ATOM      1  C   UNL     1      -3.079  -3.215  24.680  0.00  0.00    +0.252 C 
ATOM      2  O   UNL     1      -2.256  -3.269  24.702  0.00  0.00    -0.471 OA
ENDBRANCH   3   2
ENDBRANCH   7   6
ENDBRANCH  11  10
BRANCH  16  18
ATOM     18  C   UNL     1      -1.338   4.215  25.348  0.00  0.00    +0.077 C 
ATOM     19  C   UNL     1      -1.668   4.865  24.962  0.00  0.00    +0.010 C 
ATOM     20  C   UNL     1      -2.035   4.554  25.633  0.00  0.00    +0.010 C 
ENDBRANCH  16  18
BRANCH  13  21
ATOM     21  C   UNL     1      -2.212   3.084  24.540  0.00  0.00    +0.260 C 
ATOM     22  O   UNL     1      -2.239   3.878  24.764  0.00  0.00    -0.272 OA
ATOM     23  N   UNL     1      -2.865   2.737  24.173  0.00  0.00    -0.196 NA
BRANCH  23  24
ATOM     24  C   UNL     1      -3.543   3.183  24.030  0.00  0.00    +0.179 C 
BRANCH  24  35
ATOM     35  C   UNL     1      -3.633   3.578  23.310  0.00  0.00    +0.281 C 
ATOM     36  N   UNL     1      -3.421   3.202  22.606  0.00  0.00    -0.086 NA
ATOM     37  O   UNL     1      -3.933   4.345  23.294  0.00  0.00    -0.270 OA
ENDBRANCH  24  35
BRANCH  24  25
ATOM     25  C   UNL     1      -4.133   3.235  24.605  0.00  0.00    +0.059 C 
BRANCH  25  26
ATOM     26  C   UNL     1      -4.653   2.607  24.721  0.00  0.00    +0.001 A 
ATOM     27  C   UNL     1      -4.718   1.936  24.243  0.00  0.00    +0.095 A 
ATOM     28  N   UNL     1      -5.306   1.453  24.561  0.00  0.00    -0.244 NA
ATOM     29  C   UNL     1      -5.604   1.824  25.235  0.00  0.00    +0.081 A 
ATOM     30  C   UNL     1      -5.201   2.537  25.333  0.00  0.00    +0.015 A 
ATOM     31  C   UNL     1      -5.385   3.030  25.969  0.00  0.00    +0.001 A 
ATOM     32  C   UNL     1      -5.971   2.811  26.505  0.00  0.00    +0.000 A 
ATOM     33  C   UNL     1      -6.374   2.098  26.407  0.00  0.00    +0.002 A 
ATOM     34  C   UNL     1      -6.191   1.604  25.772  0.00  0.00    +0.019 A 
ENDBRANCH  25  26
ENDBRANCH  24  25
ENDBRANCH  23  24
ENDBRANCH  13  21
TORSDOF 9
ENDMDL
MODEL 4
REMARK VINA RESULT:      -9.0      1.791      2.607
REMARK  Name = 
REMARK  9 active torsions:
REMARK  status: ('A' for Active; 'I' for Inactive)
REMARK    1  A    between atoms: O_2  and  C_3
REMARK    2  A    between atoms: C_6  and  N_7
REMARK    3  A    between atoms: N_10  and  C_11
REMARK    4  A    between atoms: C_13  and  C_21
REMARK    5  A    between atoms: C_16  and  C_18
REMARK    6  A    between atoms: N_23  and  C_24
REMARK    7  A    between atoms: C_24  and  C_25
REMARK    8  A    between atoms: C_24  and  C_35
REMARK    9  A    between atoms: C_25  and  C_26
REMARK                            x       y       z     vdW  Elec       q    Type
REMARK                         _______ _______ _______ _____ _____    ______ ____
ROOT
ATOM     11  C   UNL     1       0.120   1.134  23.860  0.00  0.00    +0.119 C 
ATOM     12  C   UNL     1      -0.626   1.408  23.641  0.00  0.00    +0.053 C 
ATOM     13  C   UNL     1      -0.851   1.993  24.179  0.00  0.00    +0.155 C 
ATOM     14  N   UNL     1      -0.243   2.080  24.730  0.00  0.00    -0.271 N 
ATOM     15  C   UNL     1       0.357   1.549  24.533  0.00  0.00    +0.115 C 
ATOM     16  C   UNL     1      -0.237   2.605  25.366  0.00  0.00    +0.226 C 
ATOM     17  O   UNL     1       0.414   2.630  25.873  0.00  0.00    -0.275 OA
ENDROOT
BRANCH  11  10
ATOM      7  N   UNL     1       1.807   0.034  23.017  0.00  0.00    -0.161 NA
ATOM      8  C   UNL     1       1.373   0.620  23.403  0.00  0.00    +0.343 C 
ATOM      9  O   UNL     1       1.758   1.278  23.717  0.00  0.00    -0.249 OA
ATOM     10  N   UNL     1       0.554   0.548  23.474  0.00  0.00    -0.187 NA
BRANCH   7   6
ATOM      3  C   UNL     1       4.263   0.250  22.803  0.00  0.00    +0.139 A 
ATOM      4  C   UNL     1       3.765   0.750  22.375  0.00  0.00    +0.038 A 
ATOM      5  C   UNL     1       2.947   0.678  22.446  0.00  0.00    +0.020 A 
ATOM      6  C   UNL     1       2.625   0.106  22.945  0.00  0.00    +0.075 A 
ATOM     38  C   UNL     1       3.122  -0.395  23.374  0.00  0.00    +0.020 A 
ATOM     39  C   UNL     1       3.942  -0.323  23.303  0.00  0.00    +0.038 A 
BRANCH   3   2
ATOM      1  C   UNL     1       5.572   0.086  23.352  0.00  0.00    +0.252 C 
ATOM      2  O   UNL     1       5.082   0.322  22.732  0.00  0.00    -0.471 OA
ENDBRANCH   3   2
ENDBRANCH   7   6
ENDBRANCH  11  10
BRANCH  16  18
ATOM     18  C   UNL     1      -0.880   3.105  25.494  0.00  0.00    +0.077 C 
ATOM     19  C   UNL     1      -1.594   3.267  25.874  0.00  0.00    +0.010 C 
ATOM     20  C   UNL     1      -1.280   3.810  25.337  0.00  0.00    +0.010 C 
ENDBRANCH  16  18
BRANCH  13  21
ATOM     21  C   UNL     1      -1.559   2.416  24.167  0.00  0.00    +0.260 C 
ATOM     22  O   UNL     1      -1.572   3.204  24.410  0.00  0.00    -0.272 OA
ATOM     23  N   UNL     1      -2.254   2.051  23.912  0.00  0.00    -0.196 NA
BRANCH  23  24
ATOM     24  C   UNL     1      -2.961   2.473  23.901  0.00  0.00    +0.179 C 
BRANCH  24  35
ATOM     35  C   UNL     1      -3.188   2.878  23.218  0.00  0.00    +0.281 C 
ATOM     36  N   UNL     1      -3.081   2.529  22.477  0.00  0.00    -0.086 NA
ATOM     37  O   UNL     1      -3.521   3.630  23.275  0.00  0.00    -0.270 OA
ENDBRANCH  24  35
BRANCH  24  25
ATOM     25  C   UNL     1      -3.443   2.492  24.570  0.00  0.00    +0.059 C 
BRANCH  25  26
ATOM     26  C   UNL     1      -4.032   1.924  24.671  0.00  0.00    +0.001 A 
ATOM     27  C   UNL     1      -4.035   1.165  24.345  0.00  0.00    +0.095 A 
ATOM     28  N   UNL     1      -4.727   0.787  24.588  0.00  0.00    -0.244 NA
ATOM     29  C   UNL     1      -5.150   1.311  25.064  0.00  0.00    +0.081 A 
ATOM     30  C   UNL     1      -4.721   2.013  25.115  0.00  0.00    +0.015 A 
ATOM     31  C   UNL     1      -5.014   2.643  25.560  0.00  0.00    +0.001 A 
ATOM     32  C   UNL     1      -5.735   2.572  25.953  0.00  0.00    +0.000 A 
ATOM     33  C   UNL     1      -6.164   1.869  25.902  0.00  0.00    +0.002 A 
ATOM     34  C   UNL     1      -5.873   1.238  25.457  0.00  0.00    +0.019 A 
ENDBRANCH  25  26
ENDBRANCH  24  25
ENDBRANCH  23  24
ENDBRANCH  13  21
TORSDOF 9
ENDMDL
MODEL 5
REMARK VINA RESULT:      -8.7      3.379      5.061
REMARK  Name = 
REMARK  9 active torsions:
REMARK  status: ('A' for Active; 'I' for Inactive)
REMARK    1  A    between atoms: O_2  and  C_3
REMARK    2  A    between atoms: C_6  and  N_7
REMARK    3  A    between atoms: N_10  and  C_11
REMARK    4  A    between atoms: C_13  and  C_21
REMARK    5  A    between atoms: C_16  and  C_18
REMARK    6  A    between atoms: N_23  and  C_24
REMARK    7  A    between atoms: C_24  and  C_25
REMARK    8  A    between atoms: C_24  and  C_35
REMARK    9  A    between atoms: C_25  and  C_26
REMARK                            x       y       z     vdW  Elec       q    Type
REMARK                         _______ _______ _______ _____ _____    ______ ____
ROOT
ATOM     11  C   UNL     1      -4.896   0.605  24.739  0.00  0.00    +0.119 C 
ATOM     12  C   UNL     1      -4.385   1.208  24.502  0.00  0.00    +0.053 C 
ATOM     13  C   UNL     1      -4.619   1.903  24.882  0.00  0.00    +0.155 C 
ATOM     14  N   UNL     1      -5.273   1.728  25.353  0.00  0.00    -0.271 N 
ATOM     15  C   UNL     1      -5.445   0.926  25.265  0.00  0.00    +0.115 C 
ATOM     16  C   UNL     1      -5.684   2.262  25.829  0.00  0.00    +0.226 C 
ATOM     17  O   UNL     1      -6.332   2.006  26.272  0.00  0.00    -0.275 OA
ENDROOT
BRANCH  11  10
ATOM      7  N   UNL     1      -4.141  -1.409  24.360  0.00  0.00    -0.161 NA
ATOM      8  C   UNL     1      -4.174  -0.622  24.606  0.00  0.00    +0.343 C 
ATOM      9  O   UNL     1      -3.517  -0.275  24.965  0.00  0.00    -0.249 OA
ATOM     10  N   UNL     1      -4.863  -0.182  24.493  0.00  0.00    -0.187 NA
BRANCH   7   6
ATOM      3  C   UNL     1      -2.074  -2.727  24.700  0.00  0.00    +0.139 A 
ATOM      4  C   UNL     1      -2.102  -2.145  24.114  0.00  0.00    +0.038 A 
ATOM      5  C   UNL     1      -2.791  -1.706  24.001  0.00  0.00    +0.020 A 
ATOM      6  C   UNL     1      -3.452  -1.848  24.473  0.00  0.00    +0.075 A 
ATOM     38  C   UNL     1      -3.425  -2.429  25.058  0.00  0.00    +0.020 A 
ATOM     39  C   UNL     1      -2.736  -2.869  25.172  0.00  0.00    +0.038 A 
BRANCH   3   2
ATOM      1  C   UNL     1      -0.679  -2.784  25.004  0.00  0.00    +0.252 C 
ATOM      2  O   UNL     1      -1.385  -3.167  24.813  0.00  0.00    -0.471 OA
ENDBRANCH   3   2
ENDBRANCH   7   6
ENDBRANCH  11  10
BRANCH  16  18
ATOM     18  C   UNL     1      -5.448   3.051  25.862  0.00  0.00    +0.077 C 
ATOM     19  C   UNL     1      -5.515   3.828  25.594  0.00  0.00    +0.010 C 
ATOM     20  C   UNL     1      -4.973   3.642  26.188  0.00  0.00    +0.010 C 
ENDBRANCH  16  18
BRANCH  13  21
ATOM     21  C   UNL     1      -4.260   2.641  24.804  0.00  0.00    +0.260 C 
ATOM     22  O   UNL     1      -4.584   3.298  25.184  0.00  0.00    -0.272 OA
ATOM     23  N   UNL     1      -3.578   2.724  24.347  0.00  0.00    -0.196 NA
BRANCH  23  24
ATOM     24  C   UNL     1      -3.220   3.462  24.270  0.00  0.00    +0.179 C 
BRANCH  24  35
ATOM     35  C   UNL     1      -3.490   3.992  23.697  0.00  0.00    +0.281 C 
ATOM     36  N   UNL     1      -3.713   3.715  22.952  0.00  0.00    -0.086 NA
ATOM     37  O   UNL     1      -3.536   4.797  23.868  0.00  0.00    -0.270 OA
ENDBRANCH  24  35
BRANCH  24  25
ATOM     25  C   UNL     1      -2.593   3.671  24.763  0.00  0.00    +0.059 C 
BRANCH  25  26
ATOM     26  C   UNL     1      -1.846   3.345  24.642  0.00  0.00    +0.001 A 
ATOM     27  C   UNL     1      -1.508   3.165  23.911  0.00  0.00    +0.095 A 
ATOM     28  N   UNL     1      -0.758   2.850  24.047  0.00  0.00    -0.244 NA
ATOM     29  C   UNL     1      -0.632   2.836  24.862  0.00  0.00    +0.081 A 
ATOM     30  C   UNL     1      -1.304   3.142  25.229  0.00  0.00    +0.015 A 
ATOM     31  C   UNL     1      -1.335   3.196  26.052  0.00  0.00    +0.001 A 
ATOM     32  C   UNL     1      -0.696   2.944  26.507  0.00  0.00    +0.000 A 
ATOM     33  C   UNL     1      -0.023   2.638  26.140  0.00  0.00    +0.002 A 
ATOM     34  C   UNL     1       0.009   2.584  25.317  0.00  0.00    +0.019 A 
ENDBRANCH  25  26
ENDBRANCH  24  25
ENDBRANCH  23  24
ENDBRANCH  13  21
TORSDOF 9
ENDMDL
MODEL 6
REMARK VINA RESULT:      -8.5      2.488      5.684
REMARK  Name = 
REMARK  9 active torsions:
REMARK  status: ('A' for Active; 'I' for Inactive)
REMARK    1  A    between atoms: O_2  and  C_3
REMARK    2  A    between atoms: C_6  and  N_7
REMARK    3  A    between atoms: N_10  and  C_11
REMARK    4  A    between atoms: C_13  and  C_21
REMARK    5  A    between atoms: C_16  and  C_18
REMARK    6  A    between atoms: N_23  and  C_24
REMARK    7  A    between atoms: C_24  and  C_25
REMARK    8  A    between atoms: C_24  and  C_35
REMARK    9  A    between atoms: C_25  and  C_26
REMARK                            x       y       z     vdW  Elec       q    Type
REMARK                         _______ _______ _______ _____ _____    ______ ____
ROOT
ATOM     11  C   UNL     1      -3.503  -0.414  24.462  0.00  0.00    +0.119 C 
ATOM     12  C   UNL     1      -2.784  -0.033  24.325  0.00  0.00    +0.053 C 
ATOM     13  C   UNL     1      -2.177  -0.563  24.504  0.00  0.00    +0.155 C 
ATOM     14  N   UNL     1      -2.521  -1.271  24.752  0.00  0.00    -0.271 N 
ATOM     15  C   UNL     1      -3.340  -1.179  24.726  0.00  0.00    +0.115 C 
ATOM     16  C   UNL     1      -2.116  -1.951  24.985  0.00  0.00    +0.226 C 
ATOM     17  O   UNL     1      -2.538  -2.621  25.220  0.00  0.00    -0.275 OA
ENDROOT
BRANCH  11  10
ATOM      7  N   UNL     1      -5.191   0.965  24.591  0.00  0.00    -0.161 NA
ATOM      8  C   UNL     1      -4.441   0.638  24.700  0.00  0.00    +0.343 C 
ATOM      9  O   UNL     1      -3.879   1.036  25.154  0.00  0.00    -0.249 OA
ATOM     10  N   UNL     1      -4.253  -0.087  24.353  0.00  0.00    -0.187 NA
BRANCH   7   6
ATOM      3  C   UNL     1      -5.755   3.140  25.630  0.00  0.00    +0.139 A 
ATOM      4  C   UNL     1      -5.310   3.116  24.935  0.00  0.00    +0.038 A 
ATOM      5  C   UNL     1      -5.122   2.391  24.589  0.00  0.00    +0.020 A 
ATOM      6  C   UNL     1      -5.379   1.690  24.937  0.00  0.00    +0.075 A 
ATOM     38  C   UNL     1      -5.823   1.712  25.632  0.00  0.00    +0.020 A 
ATOM     39  C   UNL     1      -6.011   2.437  25.979  0.00  0.00    +0.038 A 
BRANCH   3   2
ATOM      1  C   UNL     1      -5.746   4.568  25.593  0.00  0.00    +0.252 C 
ATOM      2  O   UNL     1      -5.943   3.864  25.976  0.00  0.00    -0.471 OA
ENDBRANCH   3   2
ENDBRANCH   7   6
ENDBRANCH  11  10
BRANCH  16  18
ATOM     18  C   UNL     1      -1.292  -1.962  24.983  0.00  0.00    +0.077 C 
ATOM     19  C   UNL     1      -0.581  -2.134  24.602  0.00  0.00    +0.010 C 
ATOM     20  C   UNL     1      -0.574  -1.808  25.361  0.00  0.00    +0.010 C 
ENDBRANCH  16  18
BRANCH  13  21
ATOM     21  C   UNL     1      -1.368  -0.411  24.446  0.00  0.00    +0.260 C 
ATOM     22  O   UNL     1      -0.830  -0.886  24.852  0.00  0.00    -0.272 OA
ATOM     23  N   UNL     1      -1.098   0.215  23.982  0.00  0.00    -0.196 NA
BRANCH  23  24
ATOM     24  C   UNL     1      -0.290   0.367  23.924  0.00  0.00    +0.179 C 
BRANCH  24  35
ATOM     35  C   UNL     1       0.143   0.058  23.293  0.00  0.00    +0.281 C 
ATOM     36  N   UNL     1       0.915  -0.210  23.415  0.00  0.00    -0.086 NA
ATOM     37  O   UNL     1      -0.194   0.016  22.542  0.00  0.00    -0.270 OA
ENDBRANCH  24  35
BRANCH  24  25
ATOM     25  C   UNL     1       0.087   0.827  24.496  0.00  0.00    +0.059 C 
BRANCH  25  26
ATOM     26  C   UNL     1      -0.031   1.643  24.512  0.00  0.00    +0.001 A 
ATOM     27  C   UNL     1      -0.097   2.137  23.854  0.00  0.00    +0.095 A 
ATOM     28  N   UNL     1      -0.210   2.908  24.124  0.00  0.00    -0.244 NA
ATOM     29  C   UNL     1      -0.214   2.891  24.949  0.00  0.00    +0.081 A 
ATOM     30  C   UNL     1      -0.103   2.109  25.188  0.00  0.00    +0.015 A 
ATOM     31  C   UNL     1      -0.083   1.924  25.992  0.00  0.00    +0.001 A 
ATOM     32  C   UNL     1      -0.173   2.519  26.556  0.00  0.00    +0.000 A 
ATOM     33  C   UNL     1      -0.284   3.301  26.316  0.00  0.00    +0.002 A 
ATOM     34  C   UNL     1      -0.305   3.487  25.513  0.00  0.00    +0.019 A 
ENDBRANCH  25  26
ENDBRANCH  24  25
ENDBRANCH  23  24
ENDBRANCH  13  21
TORSDOF 9
ENDMDL
MODEL 7
REMARK VINA RESULT:      -8.2      2.079      6.104
REMARK  Name = 
REMARK  9 active torsions:
REMARK  status: ('A' for Active; 'I' for Inactive)
REMARK    1  A    between atoms: O_2  and  C_3
REMARK    2  A    between atoms: C_6  and  N_7
REMARK    3  A    between atoms: N_10  and  C_11
REMARK    4  A    between atoms: C_13  and  C_21
REMARK    5  A    between atoms: C_16  and  C_18
REMARK    6  A    between atoms: N_23  and  C_24
REMARK    7  A    between atoms: C_24  and  C_25
REMARK    8  A    between atoms: C_24  and  C_35
REMARK    9  A    between atoms: C_25  and  C_26
REMARK                            x       y       z     vdW  Elec       q    Type
REMARK                         _______ _______ _______ _____ _____    ______ ____
ROOT
ATOM     11  C   UNL     1      -0.734   2.254  24.703  0.00  0.00    +0.119 C 
ATOM     12  C   UNL     1      -0.984   1.497  24.915  0.00  0.00    +0.053 C 
ATOM     13  C   UNL     1      -0.499   0.951  24.529  0.00  0.00    +0.155 C 
ATOM     14  N   UNL     1       0.050   1.372  24.079  0.00  0.00    -0.271 N 
ATOM     15  C   UNL     1      -0.095   2.177  24.187  0.00  0.00    +0.115 C 
ATOM     16  C   UNL     1       0.641   1.045  23.605  0.00  0.00    +0.226 C 
ATOM     17  O   UNL     1       1.152   1.538  23.185  0.00  0.00    -0.275 OA
ENDROOT
BRANCH  11  10
ATOM      7  N   UNL     1      -2.216   3.750  25.280  0.00  0.00    -0.161 NA
ATOM      8  C   UNL     1      -1.884   3.040  25.021  0.00  0.00    +0.343 C 
ATOM      9  O   UNL     1      -2.373   2.407  24.819  0.00  0.00    -0.249 OA
ATOM     10  N   UNL     1      -1.065   2.964  24.963  0.00  0.00    -0.187 NA
BRANCH   7   6
ATOM      3  C   UNL     1      -4.674   3.978  25.453  0.00  0.00    +0.139 A 
ATOM      4  C   UNL     1      -4.220   3.869  26.134  0.00  0.00    +0.038 A 
ATOM      5  C   UNL     1      -3.401   3.793  26.076  0.00  0.00    +0.020 A 
ATOM      6  C   UNL     1      -3.035   3.826  25.338  0.00  0.00    +0.075 A 
ATOM     38  C   UNL     1      -3.488   3.935  24.657  0.00  0.00    +0.020 A 
ATOM     39  C   UNL     1      -4.308   4.012  24.714  0.00  0.00    +0.038 A 
BRANCH   3   2
ATOM      1  C   UNL     1      -5.964   3.383  25.606  0.00  0.00    +0.252 C 
ATOM      2  O   UNL     1      -5.494   4.054  25.511  0.00  0.00    -0.471 OA
ENDBRANCH   3   2
ENDBRANCH   7   6
ENDBRANCH  11  10
BRANCH  16  18
ATOM     18  C   UNL     1       0.720   0.226  23.551  0.00  0.00    +0.077 C 
ATOM     19  C   UNL     1       1.060  -0.478  23.815  0.00  0.00    +0.010 C 
ATOM     20  C   UNL     1       0.517  -0.490  23.193  0.00  0.00    +0.010 C 
ENDBRANCH  16  18
BRANCH  13  21
ATOM     21  C   UNL     1      -0.554   0.130  24.584  0.00  0.00    +0.260 C 
ATOM     22  O   UNL     1      -0.141  -0.347  24.053  0.00  0.00    -0.272 OA
ATOM     23  N   UNL     1      -1.022  -0.214  25.169  0.00  0.00    -0.196 NA
BRANCH  23  24
ATOM     24  C   UNL     1      -1.077  -1.035  25.224  0.00  0.00    +0.179 C 
BRANCH  24  35
ATOM     35  C   UNL     1      -0.622  -1.442  25.780  0.00  0.00    +0.281 C 
ATOM     36  N   UNL     1      -0.563  -1.156  26.552  0.00  0.00    -0.086 NA
ATOM     37  O   UNL     1      -0.229  -2.133  25.565  0.00  0.00    -0.270 OA
ENDBRANCH  24  35
BRANCH  24  25
ATOM     25  C   UNL     1      -1.586  -1.449  24.724  0.00  0.00    +0.059 C 
BRANCH  25  26
ATOM     26  C   UNL     1      -2.392  -1.484  24.892  0.00  0.00    +0.001 A 
ATOM     27  C   UNL     1      -2.784  -1.058  25.480  0.00  0.00    +0.095 A 
ATOM     28  N   UNL     1      -3.583  -1.262  25.453  0.00  0.00    -0.244 NA
ATOM     29  C   UNL     1      -3.685  -1.814  24.850  0.00  0.00    +0.081 A 
ATOM     30  C   UNL     1      -2.949  -1.952  24.503  0.00  0.00    +0.015 A 
ATOM     31  C   UNL     1      -2.882  -2.486  23.877  0.00  0.00    +0.001 A 
ATOM     32  C   UNL     1      -3.549  -2.882  23.599  0.00  0.00    +0.000 A 
ATOM     33  C   UNL     1      -4.285  -2.744  23.946  0.00  0.00    +0.002 A 
ATOM     34  C   UNL     1      -4.353  -2.211  24.571  0.00  0.00    +0.019 A 
ENDBRANCH  25  26
ENDBRANCH  24  25
ENDBRANCH  23  24
ENDBRANCH  13  21
TORSDOF 9
ENDMDL
MODEL 8
REMARK VINA RESULT:      -7.9      2.211      5.662
REMARK  Name = 
REMARK  9 active torsions:
REMARK  status: ('A' for Active; 'I' for Inactive)
REMARK    1  A    between atoms: O_2  and  C_3
REMARK    2  A    between atoms: C_6  and  N_7
REMARK    3  A    between atoms: N_10  and  C_11
REMARK    4  A    between atoms: C_13  and  C_21
REMARK    5  A    between atoms: C_16  and  C_18
REMARK    6  A    between atoms: N_23  and  C_24
REMARK    7  A    between atoms: C_24  and  C_25
REMARK    8  A    between atoms: C_24  and  C_35
REMARK    9  A    between atoms: C_25  and  C_26
REMARK                            x       y       z     vdW  Elec       q    Type
REMARK                         _______ _______ _______ _____ _____    ______ ____
ROOT
ATOM     11  C   UNL     1      -4.054   0.656  24.807  0.00  0.00    +0.119 C 
ATOM     12  C   UNL     1      -3.262   0.440  24.879  0.00  0.00    +0.053 C 
ATOM     13  C   UNL     1      -3.196  -0.359  24.683  0.00  0.00    +0.155 C 
ATOM     14  N   UNL     1      -3.949  -0.637  24.490  0.00  0.00    -0.271 N 
ATOM     15  C   UNL     1      -4.480  -0.009  24.567  0.00  0.00    +0.115 C 
ATOM     16  C   UNL     1      -4.138  -1.406  24.261  0.00  0.00    +0.226 C 
ATOM     17  O   UNL     1      -4.920  -1.603  24.085  0.00  0.00    -0.275 OA
ENDROOT
BRANCH  11  10
ATOM      7  N   UNL     1      -4.178   2.807  25.163  0.00  0.00    -0.161 NA
ATOM      8  C   UNL     1      -3.865   2.057  25.020  0.00  0.00    +0.343 C 
ATOM      9  O   UNL     1      -3.049   1.958  24.947  0.00  0.00    -0.249 OA
ATOM     10  N   UNL     1      -4.367   1.406  24.950  0.00  0.00    -0.187 NA
BRANCH   7   6
ATOM      3  C   UNL     1      -2.669   4.758  25.373  0.00  0.00    +0.139 A 
ATOM      4  C   UNL     1      -2.922   4.508  24.627  0.00  0.00    +0.038 A 
ATOM      5  C   UNL     1      -3.424   3.858  24.558  0.00  0.00    +0.020 A 
ATOM      6  C   UNL     1      -3.675   3.457  25.233  0.00  0.00    +0.075 A 
ATOM     38  C   UNL     1      -3.424   3.706  25.978  0.00  0.00    +0.020 A 
ATOM     39  C   UNL     1      -2.921   4.357  26.049  0.00  0.00    +0.038 A 
BRANCH   3   2
ATOM      1  C   UNL     1      -1.414   5.386  25.105  0.00  0.00    +0.252 C 
ATOM      2  O   UNL     1      -2.167   5.408  25.443  0.00  0.00    -0.471 OA
ENDBRANCH   3   2
ENDBRANCH   7   6
ENDBRANCH  11  10
BRANCH  16  18
ATOM     18  C   UNL     1      -3.547  -1.978  24.209  0.00  0.00    +0.077 C 
ATOM     19  C   UNL     1      -2.956  -2.356  23.776  0.00  0.00    +0.010 C 
ATOM     20  C   UNL     1      -3.113  -2.591  24.552  0.00  0.00    +0.010 C 
ENDBRANCH  16  18
BRANCH  13  21
ATOM     21  C   UNL     1      -2.501  -0.802  24.681  0.00  0.00    +0.260 C 
ATOM     22  O   UNL     1      -2.507  -1.576  24.396  0.00  0.00    -0.272 OA
ATOM     23  N   UNL     1      -1.800  -0.472  24.963  0.00  0.00    -0.196 NA
BRANCH  23  24
ATOM     24  C   UNL     1      -1.105  -0.915  24.961  0.00  0.00    +0.179 C 
BRANCH  24  35
ATOM     35  C   UNL     1      -0.889  -1.347  25.631  0.00  0.00    +0.281 C 
ATOM     36  N   UNL     1      -1.023  -1.033  26.383  0.00  0.00    -0.086 NA
ATOM     37  O   UNL     1      -0.540  -2.089  25.550  0.00  0.00    -0.270 OA
ENDBRANCH  24  35
BRANCH  24  25
ATOM     25  C   UNL     1      -0.625  -0.928  24.290  0.00  0.00    +0.059 C 
BRANCH  25  26
ATOM     26  C   UNL     1      -0.129  -0.291  24.125  0.00  0.00    +0.001 A 
ATOM     27  C   UNL     1      -0.105   0.425  24.536  0.00  0.00    +0.095 A 
ATOM     28  N   UNL     1       0.469   0.901  24.185  0.00  0.00    -0.244 NA
ATOM     29  C   UNL     1       0.801   0.481  23.558  0.00  0.00    +0.081 A 
ATOM     30  C   UNL     1       0.431  -0.255  23.521  0.00  0.00    +0.015 A 
ATOM     31  C   UNL     1       0.653  -0.799  22.941  0.00  0.00    +0.001 A 
ATOM     32  C   UNL     1       1.244  -0.606  22.399  0.00  0.00    +0.000 A 
ATOM     33  C   UNL     1       1.613   0.130  22.436  0.00  0.00    +0.002 A 
ATOM     34  C   UNL     1       1.392   0.674  23.015  0.00  0.00    +0.019 A 
ENDBRANCH  25  26
ENDBRANCH  24  25
ENDBRANCH  23  24
ENDBRANCH  13  21
TORSDOF 9
ENDMDL
