MODEL 1
REMARK VINA RESULT:     -10.6      0.000      0.000
REMARK  Name = 
REMARK  9 active torsions:
REMARK  status: ('A' for Active; 'I' for Inactive)
REMARK    1  A    between atoms: O_2  and  C_3
REMARK    2  A    between atoms: C_3  and  C_4
REMARK    3  A    between atoms: C_4  and  N_5
REMARK    4  A    between atoms: C_6  and  C_8
REMARK    5  A    between atoms: C_8  and  C_9
REMARK    6  A    between atoms: C_11  and  C_12
REMARK    7  A    between atoms: C_15  and  C_16
REMARK    8  A    between atoms: C_16  and  N_17
REMARK    9  A    between atoms: C_18  and  C_20
REMARK                            x       y       z     vdW  Elec       q    Type
REMARK                         _______ _______ _______ _____ _____    ______ ____
ROOT
ATOM      9  C   UNL     1      -4.252   2.124  24.828  0.00  0.00    +0.027 C 
ATOM     10  C   UNL     1      -3.570   1.956  24.397  0.00  0.00    +0.005 C 
ATOM     11  C   UNL     1      -3.387   1.175  24.202  0.00  0.00    +0.006 C 
ATOM     15  C   UNL     1      -3.888   0.563  24.438  0.00  0.00    +0.043 C 
ATOM     26  C   UNL     1      -4.571   0.732  24.870  0.00  0.00    -0.033 C 
ATOM     27  C   UNL     1      -4.753   1.512  25.065  0.00  0.00    -0.048 C 
ATOM     28  C   UNL     1      -5.436   1.680  25.496  0.00  0.00    +0.026 C 
ENDROOT
BRANCH  11  12
ATOM     12  C   UNL     1      -2.704   1.006  23.771  0.00  0.00    +0.000 C 
ATOM     13  C   UNL     1      -2.742   0.938  22.949  0.00  0.00    +0.000 C 
ATOM     14  C   UNL     1      -1.984   0.905  24.161  0.00  0.00    +0.000 C 
ENDBRANCH  11  12
BRANCH   9   8
ATOM      8  C   UNL     1      -4.434   2.905  25.023  0.00  0.00    +0.091 C 
BRANCH   8   6
ATOM      5  N   UNL     1      -3.368   3.810  25.315  0.00  0.00    -0.203 NA
ATOM      6  C   UNL     1      -3.931   3.516  24.789  0.00  0.00    +0.242 C 
ATOM      7  O   UNL     1      -3.990   3.832  24.029  0.00  0.00    -0.273 OA
BRANCH   5   4
ATOM      4  C   UNL     1      -2.864   4.421  25.081  0.00  0.00    +0.147 C 
BRANCH   4   3
ATOM      3  C   UNL     1      -2.169   4.565  25.501  0.00  0.00    +0.166 C 
BRANCH   3   2
ATOM      1  C   UNL     1      -0.887   4.978  25.024  0.00  0.00    +0.174 C 
ATOM      2  O   UNL     1      -1.656   5.164  25.256  0.00  0.00    -0.349 OA
ENDBRANCH   3   2
ENDBRANCH   4   3
ENDBRANCH   5   4
ENDBRANCH   8   6
ENDBRANCH   9   8
BRANCH  15  16
ATOM     16  C   UNL     1      -3.705  -0.219  24.244  0.00  0.00    +0.119 C 
BRANCH  16  17
ATOM     17  N   UNL     1      -4.283  -0.708  23.916  0.00  0.00    -0.205 NA
ATOM     18  C   UNL     1      -4.236  -1.525  24.016  0.00  0.00    +0.241 C 
ATOM     19  O   UNL     1      -4.814  -2.014  23.689  0.00  0.00    -0.273 OA
BRANCH  18  20
ATOM     20  C   UNL     1      -3.611  -1.853  24.442  0.00  0.00    +0.078 C 
ATOM     21  C   UNL     1      -2.947  -2.140  24.046  0.00  0.00    +0.009 C 
ATOM     22  C   UNL     1      -2.321  -2.469  24.472  0.00  0.00    +0.000 C 
ATOM     23  C   UNL     1      -2.361  -2.510  25.295  0.00  0.00    +0.000 C 
ATOM     24  C   UNL     1      -3.025  -2.223  25.692  0.00  0.00    +0.000 C 
ATOM     25  C   UNL     1      -3.649  -1.895  25.265  0.00  0.00    +0.009 C 
ENDBRANCH  18  20
ENDBRANCH  16  17
ENDBRANCH  15  16
TORSDOF 9
ENDMDL
MODEL 2
REMARK VINA RESULT:      -9.9      0.990      4.836
REMARK  Name = 
REMARK  9 active torsions:
REMARK  status: ('A' for Active; 'I' for Inactive)
REMARK    1  A    between atoms: O_2  and  C_3
REMARK    2  A    between atoms: C_3  and  C_4
REMARK    3  A    between atoms: C_4  and  N_5
REMARK    4  A    between atoms: C_6  and  C_8
REMARK    5  A    between atoms: C_8  and  C_9
REMARK    6  A    between atoms: C_11  and  C_12
REMARK    7  A    between atoms: C_15  and  C_16
REMARK    8  A    between atoms: C_16  and  N_17
REMARK    9  A    between atoms: C_18  and  C_20
REMARK                            x       y       z     vdW  Elec       q    Type
REMARK                         _______ _______ _______ _____ _____    ______ ____
ROOT
ATOM      9  C   UNL     1      -4.197   0.251  24.372  0.00  0.00    +0.027 C 
ATOM     10  C   UNL     1      -3.579   0.452  23.864  0.00  0.00    +0.005 C 
ATOM     11  C   UNL     1      -3.285   1.224  23.857  0.00  0.00    +0.006 C 
ATOM     15  C   UNL     1      -3.610   1.793  24.359  0.00  0.00    +0.043 C 
ATOM     26  C   UNL     1      -4.228   1.591  24.868  0.00  0.00    -0.033 C 
ATOM     27  C   UNL     1      -4.521   0.820  24.874  0.00  0.00    -0.048 C 
ATOM     28  C   UNL     1      -5.139   0.618  25.382  0.00  0.00    +0.026 C 
ENDROOT
BRANCH  11  12
ATOM     12  C   UNL     1      -2.667   1.426  23.349  0.00  0.00    +0.000 C 
ATOM     13  C   UNL     1      -2.831   1.771  22.618  0.00  0.00    +0.000 C 
ATOM     14  C   UNL     1      -1.886   1.283  23.572  0.00  0.00    +0.000 C 
ENDBRANCH  11  12
BRANCH   9   8
ATOM      8  C   UNL     1      -4.489  -0.520  24.378  0.00  0.00    +0.091 C 
BRANCH   8   6
ATOM      5  N   UNL     1      -3.527  -1.542  24.646  0.00  0.00    -0.203 NA
ATOM      6  C   UNL     1      -4.016  -1.143  24.115  0.00  0.00    +0.242 C 
ATOM      7  O   UNL     1      -4.031  -1.367  23.321  0.00  0.00    -0.273 OA
BRANCH   5   4
ATOM      4  C   UNL     1      -3.053  -2.165  24.383  0.00  0.00    +0.147 C 
BRANCH   4   3
ATOM      3  C   UNL     1      -2.439  -2.444  24.858  0.00  0.00    +0.166 C 
BRANCH   3   2
ATOM      1  C   UNL     1      -1.013  -2.381  24.928  0.00  0.00    +0.174 C 
ATOM      2  O   UNL     1      -1.700  -2.601  24.526  0.00  0.00    -0.349 OA
ENDBRANCH   3   2
ENDBRANCH   4   3
ENDBRANCH   5   4
ENDBRANCH   8   6
ENDBRANCH   9   8
BRANCH  15  16
ATOM     16  C   UNL     1      -3.316   2.565  24.353  0.00  0.00    +0.119 C 
BRANCH  16  17
ATOM     17  N   UNL     1      -3.836   3.204  24.313  0.00  0.00    -0.205 NA
ATOM     18  C   UNL     1      -3.620   3.931  24.634  0.00  0.00    +0.241 C 
ATOM     19  O   UNL     1      -4.141   4.571  24.594  0.00  0.00    -0.273 OA
BRANCH  18  20
ATOM     20  C   UNL     1      -2.885   4.021  24.995  0.00  0.00    +0.078 C 
ATOM     21  C   UNL     1      -2.250   4.330  24.567  0.00  0.00    +0.009 C 
ATOM     22  C   UNL     1      -1.513   4.419  24.928  0.00  0.00    +0.000 C 
ATOM     23  C   UNL     1      -1.412   4.200  25.717  0.00  0.00    +0.000 C 
ATOM     24  C   UNL     1      -2.046   3.892  26.145  0.00  0.00    +0.000 C 
ATOM     25  C   UNL     1      -2.782   3.802  25.784  0.00  0.00    +0.009 C 
ENDBRANCH  18  20
ENDBRANCH  16  17
ENDBRANCH  15  16
TORSDOF 9
ENDMDL
MODEL 3
REMARK VINA RESULT:      -9.8      2.379      4.538
REMARK  Name = 
REMARK  9 active torsions:
REMARK  status: ('A' for Active; 'I' for Inactive)
REMARK    1  A    between atoms: O_2  and  C_3
REMARK    2  A    between atoms: C_3  and  C_4
REMARK    3  A    between atoms: C_4  and  N_5
REMARK    4  A    between atoms: C_6  and  C_8
REMARK    5  A    between atoms: C_8  and  C_9
REMARK    6  A    between atoms: C_11  and  C_12
REMARK    7  A    between atoms: C_15  and  C_16
REMARK    8  A    between atoms: C_16  and  N_17
REMARK    9  A    between atoms: C_18  and  C_20
REMARK                            x       y       z     vdW  Elec       q    Type
REMARK                         _______ _______ _______ _____ _____    ______ ____
ROOT
ATOM      9  C   UNL     1      -1.499   0.505  25.030  0.00  0.00    +0.027 C 
ATOM     10  C   UNL     1      -2.114   0.012  24.788  0.00  0.00    +0.005 C 
ATOM     11  C   UNL     1      -2.863   0.329  24.644  0.00  0.00    +0.006 C 
ATOM     15  C   UNL     1      -2.996   1.137  24.743  0.00  0.00    +0.043 C 
ATOM     26  C   UNL     1      -2.379   1.630  24.986  0.00  0.00    -0.033 C 
ATOM     27  C   UNL     1      -1.631   1.313  25.130  0.00  0.00    -0.048 C 
ATOM     28  C   UNL     1      -1.016   1.805  25.373  0.00  0.00    +0.026 C 
ENDROOT
BRANCH  11  12
ATOM     12  C   UNL     1      -3.480  -0.163  24.401  0.00  0.00    +0.000 C 
ATOM     13  C   UNL     1      -3.918  -0.582  24.961  0.00  0.00    +0.000 C 
ATOM     14  C   UNL     1      -3.658  -0.237  23.599  0.00  0.00    +0.000 C 
ENDBRANCH  11  12
BRANCH   9   8
ATOM      8  C   UNL     1      -0.751   0.188  25.174  0.00  0.00    +0.091 C 
BRANCH   8   6
ATOM      5  N   UNL     1       0.143   0.112  24.061  0.00  0.00    -0.203 NA
ATOM      6  C   UNL     1      -0.373  -0.256  24.589  0.00  0.00    +0.242 C 
ATOM      7  O   UNL     1      -0.510  -1.068  24.534  0.00  0.00    -0.273 OA
BRANCH   5   4
ATOM      4  C   UNL     1       0.521  -0.332  23.477  0.00  0.00    +0.147 C 
BRANCH   4   3
ATOM      3  C   UNL     1       1.039   0.036  22.951  0.00  0.00    +0.166 C 
BRANCH   3   2
ATOM      1  C   UNL     1       2.330   0.033  22.338  0.00  0.00    +0.174 C 
ATOM      2  O   UNL     1       1.690  -0.378  22.656  0.00  0.00    -0.349 OA
ENDBRANCH   3   2
ENDBRANCH   4   3
ENDBRANCH   5   4
ENDBRANCH   8   6
ENDBRANCH   9   8
BRANCH  15  16
ATOM     16  C   UNL     1      -3.745   1.454  24.600  0.00  0.00    +0.119 C 
BRANCH  16  17
ATOM     17  N   UNL     1      -3.830   2.099  24.092  0.00  0.00    -0.205 NA
ATOM     18  C   UNL     1      -4.460   2.620  24.190  0.00  0.00    +0.241 C 
ATOM     19  O   UNL     1      -4.545   3.265  23.683  0.00  0.00    -0.273 OA
BRANCH  18  20
ATOM     20  C   UNL     1      -5.006   2.498  24.796  0.00  0.00    +0.078 C 
ATOM     21  C   UNL     1      -4.886   2.844  25.535  0.00  0.00    +0.009 C 
ATOM     22  C   UNL     1      -5.433   2.721  26.142  0.00  0.00    +0.000 C 
ATOM     23  C   UNL     1      -6.099   2.253  26.008  0.00  0.00    +0.000 C 
ATOM     24  C   UNL     1      -6.219   1.907  25.269  0.00  0.00    +0.000 C 
ATOM     25  C   UNL     1      -5.673   2.030  24.663  0.00  0.00    +0.009 C 
ENDBRANCH  18  20
ENDBRANCH  16  17
ENDBRANCH  15  16
TORSDOF 9
ENDMDL
MODEL 4
REMARK VINA RESULT:      -9.2      3.215      4.323
REMARK  Name = 
REMARK  9 active torsions:
REMARK  status: ('A' for Active; 'I' for Inactive)
REMARK    1  A    between atoms: O_2  and  C_3
REMARK    2  A    between atoms: C_3  and  C_4
REMARK    3  A    between atoms: C_4  and  N_5
REMARK    4  A    between atoms: C_6  and  C_8
REMARK    5  A    between atoms: C_8  and  C_9
REMARK    6  A    between atoms: C_11  and  C_12
REMARK    7  A    between atoms: C_15  and  C_16
REMARK    8  A    between atoms: C_16  and  N_17
REMARK    9  A    between atoms: C_18  and  C_20
REMARK                            x       y       z     vdW  Elec       q    Type
REMARK                         _______ _______ _______ _____ _____    ______ ____
ROOT
ATOM      9  C   UNL     1      -0.270   0.551  23.933  0.00  0.00    +0.027 C 
ATOM     10  C   UNL     1      -0.147  -0.166  24.321  0.00  0.00    +0.005 C 
ATOM     11  C   UNL     1      -0.790  -0.587  24.624  0.00  0.00    +0.006 C 
ATOM     15  C   UNL     1      -1.555  -0.290  24.538  0.00  0.00    +0.043 C 
ATOM     26  C   UNL     1      -1.678   0.428  24.150  0.00  0.00    -0.033 C 
ATOM     27  C   UNL     1      -1.035   0.848  23.848  0.00  0.00    -0.048 C 
ATOM     28  C   UNL     1      -1.159   1.566  23.460  0.00  0.00    +0.026 C 
ENDROOT
BRANCH  11  12
ATOM     12  C   UNL     1      -0.667  -1.306  25.012  0.00  0.00    +0.000 C 
ATOM     13  C   UNL     1      -0.588  -1.322  25.833  0.00  0.00    +0.000 C 
ATOM     14  C   UNL     1      -0.623  -2.007  24.579  0.00  0.00    +0.000 C 
ENDBRANCH  11  12
BRANCH   9   8
ATOM      8  C   UNL     1       0.372   0.971  23.631  0.00  0.00    +0.091 C 
BRANCH   8   6
ATOM      5  N   UNL     1       1.747   0.726  23.330  0.00  0.00    -0.203 NA
ATOM      6  C   UNL     1       0.948   0.580  23.187  0.00  0.00    +0.242 C 
ATOM      7  O   UNL     1       0.724   0.044  22.601  0.00  0.00    -0.273 OA
BRANCH   5   4
ATOM      4  C   UNL     1       2.323   0.335  22.886  0.00  0.00    +0.147 C 
BRANCH   4   3
ATOM      3  C   UNL     1       3.079   0.659  22.815  0.00  0.00    +0.166 C 
BRANCH   3   2
ATOM      1  C   UNL     1       4.492   0.496  22.946  0.00  0.00    +0.174 C 
ATOM      2  O   UNL     1       3.742   0.168  22.847  0.00  0.00    -0.349 OA
ENDBRANCH   3   2
ENDBRANCH   4   3
ENDBRANCH   5   4
ENDBRANCH   8   6
ENDBRANCH   9   8
BRANCH  15  16
ATOM     16  C   UNL     1      -2.197  -0.711  24.840  0.00  0.00    +0.119 C 
BRANCH  16  17
ATOM     17  N   UNL     1      -2.783  -0.319  25.269  0.00  0.00    -0.205 NA
ATOM     18  C   UNL     1      -3.553  -0.612  25.279  0.00  0.00    +0.241 C 
ATOM     19  O   UNL     1      -4.138  -0.219  25.708  0.00  0.00    -0.273 OA
BRANCH  18  20
ATOM     20  C   UNL     1      -3.739  -1.297  24.860  0.00  0.00    +0.078 C 
ATOM     21  C   UNL     1      -4.036  -1.243  24.092  0.00  0.00    +0.009 C 
ATOM     22  C   UNL     1      -4.223  -1.929  23.672  0.00  0.00    +0.000 C 
ATOM     23  C   UNL     1      -4.111  -2.668  24.021  0.00  0.00    +0.000 C 
ATOM     24  C   UNL     1      -3.813  -2.722  24.789  0.00  0.00    +0.000 C 
ATOM     25  C   UNL     1      -3.628  -2.037  25.208  0.00  0.00    +0.009 C 
ENDBRANCH  18  20
ENDBRANCH  16  17
ENDBRANCH  15  16
TORSDOF 9
ENDMDL
MODEL 5
REMARK VINA RESULT:      -9.2      1.464      2.525
REMARK  Name = 
REMARK  9 active torsions:
REMARK  status: ('A' for Active; 'I' for Inactive)
REMARK    1  A    between atoms: O_2  and  C_3
REMARK    2  A    between atoms: C_3  and  C_4
REMARK    3  A    between atoms: C_4  and  N_5
REMARK    4  A    between atoms: C_6  and  C_8
REMARK    5  A    between atoms: C_8  and  C_9
REMARK    6  A    between atoms: C_11  and  C_12
REMARK    7  A    between atoms: C_15  and  C_16
REMARK    8  A    between atoms: C_16  and  N_17
REMARK    9  A    between atoms: C_18  and  C_20
REMARK                            x       y       z     vdW  Elec       q    Type
REMARK                         _______ _______ _______ _____ _____    ______ ____
ROOT
ATOM      9  C   UNL     1      -1.055   1.410  24.564  0.00  0.00    +0.027 C 
ATOM     10  C   UNL     1      -1.825   1.633  24.366  0.00  0.00    +0.005 C 
ATOM     11  C   UNL     1      -2.445   1.096  24.456  0.00  0.00    +0.006 C 
ATOM     15  C   UNL     1      -2.296   0.337  24.745  0.00  0.00    +0.043 C 
ATOM     26  C   UNL     1      -1.526   0.115  24.943  0.00  0.00    -0.033 C 
ATOM     27  C   UNL     1      -0.906   0.652  24.853  0.00  0.00    -0.048 C 
ATOM     28  C   UNL     1      -0.137   0.429  25.051  0.00  0.00    +0.026 C 
ENDROOT
BRANCH  11  12
ATOM     12  C   UNL     1      -3.215   1.318  24.258  0.00  0.00    +0.000 C 
ATOM     13  C   UNL     1      -3.715   1.630  24.835  0.00  0.00    +0.000 C 
ATOM     14  C   UNL     1      -3.484   1.228  23.483  0.00  0.00    +0.000 C 
ENDBRANCH  11  12
BRANCH   9   8
ATOM      8  C   UNL     1      -0.436   1.947  24.474  0.00  0.00    +0.091 C 
BRANCH   8   6
ATOM      5  N   UNL     1      -0.573   3.369  24.510  0.00  0.00    -0.203 NA
ATOM      6  C   UNL     1      -0.438   2.654  24.899  0.00  0.00    +0.242 C 
ATOM      7  O   UNL     1      -0.305   2.647  25.714  0.00  0.00    -0.273 OA
BRANCH   5   4
ATOM      4  C   UNL     1      -0.576   4.076  24.935  0.00  0.00    +0.147 C 
BRANCH   4   3
ATOM      3  C   UNL     1      -0.913   4.753  24.606  0.00  0.00    +0.166 C 
BRANCH   3   2
ATOM      1  C   UNL     1      -1.774   5.781  25.100  0.00  0.00    +0.174 C 
ATOM      2  O   UNL     1      -1.031   5.424  25.074  0.00  0.00    -0.349 OA
ENDBRANCH   3   2
ENDBRANCH   4   3
ENDBRANCH   5   4
ENDBRANCH   8   6
ENDBRANCH   9   8
BRANCH  15  16
ATOM     16  C   UNL     1      -2.917  -0.200  24.835  0.00  0.00    +0.119 C 
BRANCH  16  17
ATOM     17  N   UNL     1      -3.108  -0.487  25.584  0.00  0.00    -0.205 NA
ATOM     18  C   UNL     1      -3.453  -1.232  25.664  0.00  0.00    +0.241 C 
ATOM     19  O   UNL     1      -3.644  -1.519  26.413  0.00  0.00    -0.273 OA
BRANCH  18  20
ATOM     20  C   UNL     1      -3.608  -1.688  24.996  0.00  0.00    +0.078 C 
ATOM     21  C   UNL     1      -3.079  -2.279  24.768  0.00  0.00    +0.009 C 
ATOM     22  C   UNL     1      -3.233  -2.737  24.099  0.00  0.00    +0.000 C 
ATOM     23  C   UNL     1      -3.918  -2.603  23.658  0.00  0.00    +0.000 C 
ATOM     24  C   UNL     1      -4.447  -2.012  23.885  0.00  0.00    +0.000 C 
ATOM     25  C   UNL     1      -4.292  -1.556  24.554  0.00  0.00    +0.009 C 
ENDBRANCH  18  20
ENDBRANCH  16  17
ENDBRANCH  15  16
TORSDOF 9
ENDMDL
MODEL 6
REMARK VINA RESULT:      -9.0      1.605      5.289
REMARK  Name = 
REMARK  9 active torsions:
REMARK  status: ('A' for Active; 'I' for Inactive)
REMARK    1  A    between atoms: O_2  and  C_3
REMARK    2  A    between atoms: C_3  and  C_4
REMARK    3  A    between atoms: C_4  and  N_5
REMARK    4  A    between atoms: C_6  and  C_8
REMARK    5  A    between atoms: C_8  and  C_9
REMARK    6  A    between atoms: C_11  and  C_12
REMARK    7  A    between atoms: C_15  and  C_16
REMARK    8  A    between atoms: C_16  and  N_17
REMARK    9  A    between atoms: C_18  and  C_20
REMARK                            x       y       z     vdW  Elec       q    Type
REMARK                         _______ _______ _______ _____ _____    ______ ____
ROOT
ATOM      9  C   UNL     1      -1.012   0.628  24.811  0.00  0.00    +0.027 C 
ATOM     10  C   UNL     1      -1.515   0.716  24.163  0.00  0.00    +0.005 C 
ATOM     11  C   UNL     1      -1.978   1.395  24.090  0.00  0.00    +0.006 C 
ATOM     15  C   UNL     1      -1.938   1.986  24.665  0.00  0.00    +0.043 C 
ATOM     26  C   UNL     1      -1.435   1.898  25.314  0.00  0.00    -0.033 C 
ATOM     27  C   UNL     1      -0.972   1.219  25.386  0.00  0.00    -0.048 C 
ATOM     28  C   UNL     1      -0.469   1.131  26.034  0.00  0.00    +0.026 C 
ENDROOT
BRANCH  11  12
ATOM     12  C   UNL     1      -2.482   1.484  23.442  0.00  0.00    +0.000 C 
ATOM     13  C   UNL     1      -2.227   1.900  22.777  0.00  0.00    +0.000 C 
ATOM     14  C   UNL     1      -3.239   1.156  23.460  0.00  0.00    +0.000 C 
ENDBRANCH  11  12
BRANCH   9   8
ATOM      8  C   UNL     1      -0.549  -0.051  24.884  0.00  0.00    +0.091 C 
BRANCH   8   6
ATOM      5  N   UNL     1      -1.293  -1.271  24.886  0.00  0.00    -0.203 NA
ATOM      6  C   UNL     1      -0.779  -0.748  24.507  0.00  0.00    +0.242 C 
ATOM      7  O   UNL     1      -0.495  -0.923  23.752  0.00  0.00    -0.273 OA
BRANCH   5   4
ATOM      4  C   UNL     1      -1.523  -1.969  24.509  0.00  0.00    +0.147 C 
BRANCH   4   3
ATOM      3  C   UNL     1      -2.150  -2.412  24.811  0.00  0.00    +0.166 C 
BRANCH   3   2
ATOM      1  C   UNL     1      -3.474  -2.880  24.549  0.00  0.00    +0.174 C 
ATOM      2  O   UNL     1      -2.699  -2.752  24.296  0.00  0.00    -0.349 OA
ENDBRANCH   3   2
ENDBRANCH   4   3
ENDBRANCH   5   4
ENDBRANCH   8   6
ENDBRANCH   9   8
BRANCH  15  16
ATOM     16  C   UNL     1      -2.402   2.665  24.592  0.00  0.00    +0.119 C 
BRANCH  16  17
ATOM     17  N   UNL     1      -2.064   3.409  24.707  0.00  0.00    -0.205 NA
ATOM     18  C   UNL     1      -2.528   4.035  24.978  0.00  0.00    +0.241 C 
ATOM     19  O   UNL     1      -2.191   4.779  25.093  0.00  0.00    -0.273 OA
BRANCH  18  20
ATOM     20  C   UNL     1      -3.329   3.917  25.133  0.00  0.00    +0.078 C 
ATOM     21  C   UNL     1      -3.573   3.685  25.886  0.00  0.00    +0.009 C 
ATOM     22  C   UNL     1      -4.375   3.567  26.043  0.00  0.00    +0.000 C 
ATOM     23  C   UNL     1      -4.932   3.681  25.445  0.00  0.00    +0.000 C 
ATOM     24  C   UNL     1      -4.688   3.914  24.692  0.00  0.00    +0.000 C 
ATOM     25  C   UNL     1      -3.887   4.032  24.537  0.00  0.00    +0.009 C 
ENDBRANCH  18  20
ENDBRANCH  16  17
ENDBRANCH  15  16
TORSDOF 9
ENDMDL
MODEL 7
REMARK VINA RESULT:      -8.8      1.885      2.989
REMARK  Name = 
REMARK  9 active torsions:
REMARK  status: ('A' for Active; 'I' for Inactive)
REMARK    1  A    between atoms: O_2  and  C_3
REMARK    2  A    between atoms: C_3  and  C_4
REMARK    3  A    between atoms: C_4  and  N_5
REMARK    4  A    between atoms: C_6  and  C_8
REMARK    5  A    between atoms: C_8  and  C_9
REMARK    6  A    between atoms: C_11  and  C_12
REMARK    7  A    between atoms: C_15  and  C_16
REMARK    8  A    between atoms: C_16  and  N_17
REMARK    9  A    between atoms: C_18  and  C_20
REMARK                            x       y       z     vdW  Elec       q    Type
REMARK                         _______ _______ _______ _____ _____    ______ ____
ROOT
ATOM      9  C   UNL     1      -2.329   2.876  24.898  0.00  0.00    +0.027 C 
ATOM     10  C   UNL     1      -2.726   2.425  24.333  0.00  0.00    +0.005 C 
ATOM     11  C   UNL     1      -2.421   1.693  24.102  0.00  0.00    +0.006 C 
ATOM     15  C   UNL     1      -1.719   1.414  24.435  0.00  0.00    +0.043 C 
ATOM     26  C   UNL     1      -1.322   1.867  25.000  0.00  0.00    -0.033 C 
ATOM     27  C   UNL     1      -1.627   2.598  25.231  0.00  0.00    -0.048 C 
ATOM     28  C   UNL     1      -1.230   3.050  25.795  0.00  0.00    +0.026 C 
ENDROOT
BRANCH  11  12
ATOM     12  C   UNL     1      -2.818   1.241  23.537  0.00  0.00    +0.000 C 
ATOM     13  C   UNL     1      -3.405   0.711  23.772  0.00  0.00    +0.000 C 
ATOM     14  C   UNL     1      -2.627   1.318  22.738  0.00  0.00    +0.000 C 
ENDBRANCH  11  12
BRANCH   9   8
ATOM      8  C   UNL     1      -2.634   3.607  25.128  0.00  0.00    +0.091 C 
BRANCH   8   6
ATOM      5  N   UNL     1      -3.989   3.569  25.579  0.00  0.00    -0.203 NA
ATOM      6  C   UNL     1      -3.433   3.777  25.007  0.00  0.00    +0.242 C 
ATOM      7  O   UNL     1      -3.674   4.154  24.314  0.00  0.00    -0.273 OA
BRANCH   5   4
ATOM      4  C   UNL     1      -4.788   3.739  25.458  0.00  0.00    +0.147 C 
BRANCH   4   3
ATOM      3  C   UNL     1      -5.363   3.363  25.915  0.00  0.00    +0.166 C 
BRANCH   3   2
ATOM      1  C   UNL     1      -6.227   2.225  25.910  0.00  0.00    +0.174 C 
ATOM      2  O   UNL     1      -5.951   2.914  25.550  0.00  0.00    -0.349 OA
ENDBRANCH   3   2
ENDBRANCH   4   3
ENDBRANCH   5   4
ENDBRANCH   8   6
ENDBRANCH   9   8
BRANCH  15  16
ATOM     16  C   UNL     1      -1.414   0.683  24.204  0.00  0.00    +0.119 C 
BRANCH  16  17
ATOM     17  N   UNL     1      -0.632   0.624  23.948  0.00  0.00    -0.205 NA
ATOM     18  C   UNL     1      -0.222  -0.086  24.035  0.00  0.00    +0.241 C 
ATOM     19  O   UNL     1       0.560  -0.144  23.779  0.00  0.00    -0.273 OA
BRANCH  18  20
ATOM     20  C   UNL     1      -0.594  -0.737  24.377  0.00  0.00    +0.078 C 
ATOM     21  C   UNL     1      -0.607  -0.820  25.198  0.00  0.00    +0.009 C 
ATOM     22  C   UNL     1      -0.979  -1.472  25.542  0.00  0.00    +0.000 C 
ATOM     23  C   UNL     1      -1.337  -2.041  25.063  0.00  0.00    +0.000 C 
ATOM     24  C   UNL     1      -1.324  -1.958  24.243  0.00  0.00    +0.000 C 
ATOM     25  C   UNL     1      -0.952  -1.307  23.900  0.00  0.00    +0.009 C 
ENDBRANCH  18  20
ENDBRANCH  16  17
ENDBRANCH  15  16
TORSDOF 9
ENDMDL
