REMARK  Name = 
REMARK  6 active torsions:
REMARK  status: ('A' for Active; 'I' for Inactive)
REMARK    1  A    between atoms: C_5  and  C_6
REMARK    2  A    between atoms: C_6  and  C_7
REMARK    3  A    between atoms: N_12  and  C_15
REMARK    4  A    between atoms: C_23  and  C_24
REMARK    5  A    between atoms: C_24  and  N_25
REMARK    6  A    between atoms: C_26  and  C_28
REMARK                            x       y       z     vdW  Elec       q    Type
REMARK                         _______ _______ _______ _____ _____    ______ ____
ROOT
ATOM      6  C   UNL     1      -0.711  -4.800   0.000  0.00  0.00    +0.117 C 
ENDROOT
BRANCH   6   7
ATOM      7  C   UNL     1      -1.532  -4.714   0.000  0.00  0.00    +0.228 C 
ATOM      8  O   UNL     1      -2.017  -5.381   0.000  0.00  0.00    -0.275 OA
ATOM      9  N   UNL     1      -1.867  -3.960   0.000  0.00  0.00    -0.276 N 
ATOM     10  C   UNL     1      -2.688  -3.874   0.000  0.00  0.00    +0.115 C 
ATOM     11  C   UNL     1      -3.023  -3.120   0.000  0.00  0.00    +0.112 C 
ATOM     12  N   UNL     1      -2.538  -2.453   0.000  0.00  0.00    -0.304 N 
ATOM     13  C   UNL     1      -1.718  -2.539   0.000  0.00  0.00    +0.112 C 
ATOM     14  C   UNL     1      -1.382  -3.293   0.000  0.00  0.00    +0.115 C 
BRANCH  12  15
ATOM     15  C   UNL     1      -2.874  -1.699   0.000  0.00  0.00    +0.048 A 
ATOM     16  C   UNL     1      -3.695  -1.613   0.000  0.00  0.00    +0.017 A 
ATOM     17  C   UNL     1      -4.030  -0.859   0.000  0.00  0.00    +0.031 A 
ATOM     18  C   UNL     1      -3.545  -0.192   0.000  0.00  0.00    +0.140 A 
ATOM     19  F   UNL     1      -3.881   0.562   0.000  0.00  0.00    -0.204 F 
ATOM     20  C   UNL     1      -2.725  -0.278   0.000  0.00  0.00    +0.031 A 
ATOM     21  C   UNL     1      -2.389  -1.032   0.000  0.00  0.00    +0.017 A 
ENDBRANCH  12  15
ENDBRANCH   6   7
BRANCH   6   5
ATOM      1  O   UNL     1      -0.408  -7.688   0.000  0.00  0.00    -0.218 OA
ATOM      2  C   UNL     1      -0.236  -6.881   0.000  0.00  0.00    +0.213 C 
ATOM      3  C   UNL     1      -0.788  -6.268   0.000  0.00  0.00    +0.212 C 
ATOM      4  O   UNL     1      -1.609  -6.354   0.000  0.00  0.00    -0.218 OA
ATOM      5  C   UNL     1      -0.376  -5.554   0.000  0.00  0.00    +0.157 C 
ATOM     22  O   UNL     1       0.431  -5.725   0.000  0.00  0.00    -0.351 OA
ATOM     23  C   UNL     1       0.517  -6.546   0.000  0.00  0.00    +0.170 C 
BRANCH  23  24
ATOM     24  C   UNL     1       1.232  -6.958   0.000  0.00  0.00    +0.147 C 
BRANCH  24  25
ATOM     25  N   UNL     1       1.232  -7.783   0.000  0.00  0.00    -0.203 NA
ATOM     26  C   UNL     1       1.946  -8.196   0.000  0.00  0.00    +0.241 C 
ATOM     27  O   UNL     1       2.661  -7.783   0.000  0.00  0.00    -0.273 OA
BRANCH  26  28
ATOM     28  C   UNL     1       1.946  -9.021   0.000  0.00  0.00    +0.078 C 
ATOM     29  C   UNL     1       2.359  -9.735   0.000  0.00  0.00    +0.010 C 
ATOM     30  C   UNL     1       1.534  -9.735   0.000  0.00  0.00    +0.010 C 
ENDBRANCH  26  28
ENDBRANCH  24  25
ENDBRANCH  23  24
ENDBRANCH   6   5
TORSDOF 6
