MODEL 1
REMARK VINA RESULT:      -9.8      0.000      0.000
REMARK  Name = 
REMARK  9 active torsions:
REMARK  status: ('A' for Active; 'I' for Inactive)
REMARK    1  A    between atoms: O_2  and  C_3
REMARK    2  A    between atoms: C_5  and  O_6
REMARK    3  A    between atoms: C_9  and  N_10
REMARK    4  A    between atoms: C_11  and  O_13
REMARK    5  A    between atoms: O_13  and  C_14
REMARK    6  A    between atoms: C_19  and  C_20
REMARK    7  A    between atoms: C_20  and  C_21
REMARK    8  A    between atoms: C_27  and  C_28
REMARK    9  A    between atoms: C_35  and  C_37
REMARK                            x       y       z     vdW  Elec       q    Type
REMARK                         _______ _______ _______ _____ _____    ______ ____
ROOT
ATOM     14  C   UNL     1      -1.391   2.992  24.483  0.00  0.00    +0.173 C 
ATOM     15  C   UNL     1      -2.022   2.501  24.276  0.00  0.00    +0.044 C 
ATOM     16  C   UNL     1      -2.790   2.700  24.500  0.00  0.00    +0.004 C 
ATOM     17  C   UNL     1      -2.928   3.388  24.932  0.00  0.00    +0.003 C 
ATOM     18  C   UNL     1      -3.557   2.899  24.725  0.00  0.00    +0.000 C 
ATOM     19  C   UNL     1      -3.696   3.588  25.157  0.00  0.00    +0.040 C 
ATOM     30  C   UNL     1      -3.834   4.276  25.589  0.00  0.00    +0.152 C 
ATOM     31  O   UNL     1      -4.603   4.476  25.814  0.00  0.00    -0.223 OA
ATOM     32  C   UNL     1      -3.203   4.767  25.797  0.00  0.00    +0.033 C 
ATOM     33  C   UNL     1      -2.435   4.568  25.572  0.00  0.00    +0.003 C 
ATOM     34  C   UNL     1      -2.297   3.879  25.140  0.00  0.00    +0.006 C 
ATOM     35  C   UNL     1      -1.529   3.680  24.915  0.00  0.00    +0.068 C 
ATOM     36  C   UNL     1      -1.218   4.353  25.276  0.00  0.00    +0.006 C 
ENDROOT
BRANCH  35  37
ATOM     37  C   UNL     1      -0.727   3.872  24.920  0.00  0.00    +0.185 C 
ATOM     38  O   UNL     1      -0.491   4.658  25.012  0.00  0.00    -0.220 OA
ENDBRANCH  35  37
BRANCH  14  13
ATOM     13  O   UNL     1      -0.622   2.792  24.258  0.00  0.00    -0.437 OA
BRANCH  13  11
ATOM     10  N   UNL     1       0.050   1.532  24.325  0.00  0.00    -0.142 NA
ATOM     11  C   UNL     1      -0.465   2.048  23.937  0.00  0.00    +0.425 C 
ATOM     12  O   UNL     1      -0.822   1.820  23.230  0.00  0.00    -0.224 OA
BRANCH  10   9
ATOM      3  C   UNL     1       0.935  -0.037  23.093  0.00  0.00    +0.143 A 
ATOM      4  C   UNL     1       0.522  -0.698  23.363  0.00  0.00    +0.074 A 
ATOM      5  C   UNL     1      -0.048  -0.616  23.955  0.00  0.00    +0.143 A 
ATOM      8  C   UNL     1      -0.205   0.128  24.275  0.00  0.00    +0.054 A 
ATOM      9  C   UNL     1       0.208   0.789  24.004  0.00  0.00    +0.083 A 
ATOM     39  C   UNL     1       0.777   0.707  23.414  0.00  0.00    +0.054 A 
BRANCH   3   2
ATOM      1  C   UNL     1       2.302  -0.003  22.679  0.00  0.00    +0.252 C 
ATOM      2  O   UNL     1       1.504  -0.120  22.503  0.00  0.00    -0.471 OA
ENDBRANCH   3   2
BRANCH   5   6
ATOM      6  O   UNL     1      -0.460  -1.276  24.225  0.00  0.00    -0.471 OA
ATOM      7  C   UNL     1      -0.522  -1.422  25.034  0.00  0.00    +0.252 C 
ENDBRANCH   5   6
ENDBRANCH  10   9
ENDBRANCH  13  11
ENDBRANCH  14  13
BRANCH  19  20
ATOM     20  C   UNL     1      -4.327   3.098  24.950  0.00  0.00    +0.088 C 
BRANCH  20  21
ATOM     21  C   UNL     1      -4.840   2.817  25.531  0.00  0.00    +0.226 C 
ATOM     22  O   UNL     1      -4.704   3.000  26.324  0.00  0.00    -0.275 OA
ATOM     23  N   UNL     1      -5.489   2.354  25.320  0.00  0.00    -0.279 N 
ATOM     24  C   UNL     1      -5.694   2.128  24.554  0.00  0.00    +0.093 C 
ATOM     25  C   UNL     1      -6.379   1.670  24.599  0.00  0.00    +0.023 C 
ATOM     26  C   UNL     1      -6.597   1.613  25.392  0.00  0.00    +0.024 C 
ATOM     27  C   UNL     1      -6.047   2.037  25.839  0.00  0.00    +0.108 C 
BRANCH  27  28
ATOM     28  C   UNL     1      -6.053   2.126  26.658  0.00  0.00    +0.202 C 
ATOM     29  O   UNL     1      -6.655   1.780  27.107  0.00  0.00    -0.219 OA
ENDBRANCH  27  28
ENDBRANCH  20  21
ENDBRANCH  19  20
TORSDOF 9
ENDMDL
MODEL 2
REMARK VINA RESULT:      -9.6      2.119      4.291
REMARK  Name = 
REMARK  9 active torsions:
REMARK  status: ('A' for Active; 'I' for Inactive)
REMARK    1  A    between atoms: O_2  and  C_3
REMARK    2  A    between atoms: C_5  and  O_6
REMARK    3  A    between atoms: C_9  and  N_10
REMARK    4  A    between atoms: C_11  and  O_13
REMARK    5  A    between atoms: O_13  and  C_14
REMARK    6  A    between atoms: C_19  and  C_20
REMARK    7  A    between atoms: C_20  and  C_21
REMARK    8  A    between atoms: C_27  and  C_28
REMARK    9  A    between atoms: C_35  and  C_37
REMARK                            x       y       z     vdW  Elec       q    Type
REMARK                         _______ _______ _______ _____ _____    ______ ____
ROOT
ATOM     14  C   UNL     1      -4.450   1.178  24.781  0.00  0.00    +0.173 C 
ATOM     15  C   UNL     1      -3.629   1.248  24.838  0.00  0.00    +0.044 C 
ATOM     16  C   UNL     1      -3.293   1.948  25.115  0.00  0.00    +0.004 C 
ATOM     17  C   UNL     1      -3.776   2.579  25.335  0.00  0.00    +0.003 C 
ATOM     18  C   UNL     1      -2.957   2.648  25.392  0.00  0.00    +0.000 C 
ATOM     19  C   UNL     1      -3.441   3.280  25.612  0.00  0.00    +0.040 C 
ATOM     30  C   UNL     1      -3.924   3.910  25.832  0.00  0.00    +0.152 C 
ATOM     31  O   UNL     1      -3.588   4.611  26.109  0.00  0.00    -0.223 OA
ATOM     32  C   UNL     1      -4.745   3.840  25.775  0.00  0.00    +0.033 C 
ATOM     33  C   UNL     1      -5.081   3.140  25.498  0.00  0.00    +0.003 C 
ATOM     34  C   UNL     1      -4.598   2.509  25.278  0.00  0.00    +0.006 C 
ATOM     35  C   UNL     1      -4.933   1.809  25.001  0.00  0.00    +0.068 C 
ATOM     36  C   UNL     1      -5.697   2.108  25.086  0.00  0.00    +0.006 C 
ENDROOT
BRANCH  35  37
ATOM     37  C   UNL     1      -5.617   1.387  24.817  0.00  0.00    +0.185 C 
ATOM     38  O   UNL     1      -6.355   1.753  24.867  0.00  0.00    -0.220 OA
ENDBRANCH  35  37
BRANCH  14  13
ATOM     13  O   UNL     1      -4.786   0.477  24.504  0.00  0.00    -0.437 OA
BRANCH  13  11
ATOM     10  N   UNL     1      -4.241  -0.770  24.941  0.00  0.00    -0.142 NA
ATOM     11  C   UNL     1      -4.310  -0.183  24.365  0.00  0.00    +0.425 C 
ATOM     12  O   UNL     1      -3.904  -0.256  23.651  0.00  0.00    -0.224 OA
BRANCH  10   9
ATOM      3  C   UNL     1      -2.493  -2.076  24.875  0.00  0.00    +0.143 A 
ATOM      4  C   UNL     1      -2.815  -2.749  24.524  0.00  0.00    +0.074 A 
ATOM      5  C   UNL     1      -3.613  -2.763  24.312  0.00  0.00    +0.143 A 
ATOM      8  C   UNL     1      -4.088  -2.103  24.451  0.00  0.00    +0.054 A 
ATOM      9  C   UNL     1      -3.766  -1.430  24.802  0.00  0.00    +0.083 A 
ATOM     39  C   UNL     1      -2.969  -1.416  25.014  0.00  0.00    +0.054 A 
BRANCH   3   2
ATOM      1  C   UNL     1      -1.130  -1.799  24.547  0.00  0.00    +0.252 C 
ATOM      2  O   UNL     1      -1.697  -2.062  25.086  0.00  0.00    -0.471 OA
ENDBRANCH   3   2
BRANCH   5   6
ATOM      6  O   UNL     1      -3.935  -3.436  23.962  0.00  0.00    -0.471 OA
ATOM      7  C   UNL     1      -4.365  -3.371  23.261  0.00  0.00    +0.252 C 
ENDBRANCH   5   6
ENDBRANCH  10   9
ENDBRANCH  13  11
ENDBRANCH  14  13
BRANCH  19  20
ATOM     20  C   UNL     1      -2.621   3.349  25.669  0.00  0.00    +0.088 C 
BRANCH  20  21
ATOM     21  C   UNL     1      -2.236   3.994  25.327  0.00  0.00    +0.226 C 
ATOM     22  O   UNL     1      -2.677   4.610  24.999  0.00  0.00    -0.275 OA
ATOM     23  N   UNL     1      -1.413   4.023  25.312  0.00  0.00    -0.279 N 
ATOM     24  C   UNL     1      -0.902   3.451  25.616  0.00  0.00    +0.093 C 
ATOM     25  C   UNL     1      -0.128   3.704  25.482  0.00  0.00    +0.023 C 
ATOM     26  C   UNL     1      -0.160   4.432  25.095  0.00  0.00    +0.024 C 
ATOM     27  C   UNL     1      -0.955   4.629  24.990  0.00  0.00    +0.108 C 
BRANCH  27  28
ATOM     28  C   UNL     1      -1.240   5.312  24.627  0.00  0.00    +0.202 C 
ATOM     29  O   UNL     1      -0.744   5.964  24.525  0.00  0.00    -0.219 OA
ENDBRANCH  27  28
ENDBRANCH  20  21
ENDBRANCH  19  20
TORSDOF 9
ENDMDL
MODEL 3
REMARK VINA RESULT:      -8.7      1.864      3.593
REMARK  Name = 
REMARK  9 active torsions:
REMARK  status: ('A' for Active; 'I' for Inactive)
REMARK    1  A    between atoms: O_2  and  C_3
REMARK    2  A    between atoms: C_5  and  O_6
REMARK    3  A    between atoms: C_9  and  N_10
REMARK    4  A    between atoms: C_11  and  O_13
REMARK    5  A    between atoms: O_13  and  C_14
REMARK    6  A    between atoms: C_19  and  C_20
REMARK    7  A    between atoms: C_20  and  C_21
REMARK    8  A    between atoms: C_27  and  C_28
REMARK    9  A    between atoms: C_35  and  C_37
REMARK                            x       y       z     vdW  Elec       q    Type
REMARK                         _______ _______ _______ _____ _____    ______ ____
ROOT
ATOM     14  C   UNL     1      -1.838  -0.936  24.411  0.00  0.00    +0.173 C 
ATOM     15  C   UNL     1      -1.939  -0.117  24.451  0.00  0.00    +0.044 C 
ATOM     16  C   UNL     1      -2.698   0.204  24.454  0.00  0.00    +0.004 C 
ATOM     17  C   UNL     1      -3.356  -0.291  24.417  0.00  0.00    +0.003 C 
ATOM     18  C   UNL     1      -3.457   0.526  24.457  0.00  0.00    +0.000 C 
ATOM     19  C   UNL     1      -4.116   0.030  24.420  0.00  0.00    +0.040 C 
ATOM     30  C   UNL     1      -4.774  -0.465  24.384  0.00  0.00    +0.152 C 
ATOM     31  O   UNL     1      -5.534  -0.144  24.387  0.00  0.00    -0.223 OA
ATOM     32  C   UNL     1      -4.672  -1.284  24.344  0.00  0.00    +0.033 C 
ATOM     33  C   UNL     1      -3.913  -1.605  24.340  0.00  0.00    +0.003 C 
ATOM     34  C   UNL     1      -3.255  -1.110  24.377  0.00  0.00    +0.006 C 
ATOM     35  C   UNL     1      -2.495  -1.431  24.374  0.00  0.00    +0.068 C 
ATOM     36  C   UNL     1      -2.790  -2.200  24.330  0.00  0.00    +0.006 C 
ENDROOT
BRANCH  35  37
ATOM     37  C   UNL     1      -2.022  -2.106  24.348  0.00  0.00    +0.185 C 
ATOM     38  O   UNL     1      -2.367  -2.854  24.387  0.00  0.00    -0.220 OA
ENDBRANCH  35  37
BRANCH  14  13
ATOM     13  O   UNL     1      -1.077  -1.257  24.408  0.00  0.00    -0.437 OA
BRANCH  13  11
ATOM     10  N   UNL     1      -0.176  -0.511  23.586  0.00  0.00    -0.142 NA
ATOM     11  C   UNL     1      -0.420  -0.764  24.334  0.00  0.00    +0.425 C 
ATOM     12  O   UNL     1      -0.007  -0.523  25.005  0.00  0.00    -0.224 OA
BRANCH  10   9
ATOM      3  C   UNL     1       1.800   0.220  23.017  0.00  0.00    +0.143 A 
ATOM      4  C   UNL     1       1.795   0.969  23.364  0.00  0.00    +0.074 A 
ATOM      5  C   UNL     1       1.132   1.225  23.785  0.00  0.00    +0.143 A 
ATOM      8  C   UNL     1       0.475   0.731  23.859  0.00  0.00    +0.054 A 
ATOM      9  C   UNL     1       0.480  -0.018  23.512  0.00  0.00    +0.083 A 
ATOM     39  C   UNL     1       1.142  -0.273  23.091  0.00  0.00    +0.054 A 
BRANCH   3   2
ATOM      1  C   UNL     1       3.135   0.440  22.559  0.00  0.00    +0.252 C 
ATOM      2  O   UNL     1       2.461  -0.035  22.596  0.00  0.00    -0.471 OA
ENDBRANCH   3   2
BRANCH   5   6
ATOM      6  O   UNL     1       1.127   1.972  24.131  0.00  0.00    -0.471 OA
ATOM      7  C   UNL     1       0.526   2.507  23.950  0.00  0.00    +0.252 C 
ENDBRANCH   5   6
ENDBRANCH  10   9
ENDBRANCH  13  11
ENDBRANCH  14  13
BRANCH  19  20
ATOM     20  C   UNL     1      -4.218   0.848  24.460  0.00  0.00    +0.088 C 
BRANCH  20  21
ATOM     21  C   UNL     1      -4.717   1.175  25.030  0.00  0.00    +0.226 C 
ATOM     22  O   UNL     1      -5.063   0.690  25.601  0.00  0.00    -0.275 OA
ATOM     23  N   UNL     1      -4.870   1.984  25.029  0.00  0.00    -0.279 N 
ATOM     24  C   UNL     1      -4.565   2.535  24.495  0.00  0.00    +0.093 C 
ATOM     25  C   UNL     1      -4.861   3.278  24.698  0.00  0.00    +0.023 C 
ATOM     26  C   UNL     1      -5.349   3.187  25.357  0.00  0.00    +0.024 C 
ATOM     27  C   UNL     1      -5.355   2.387  25.561  0.00  0.00    +0.108 C 
BRANCH  27  28
ATOM     28  C   UNL     1      -5.771   2.050  26.188  0.00  0.00    +0.202 C 
ATOM     29  O   UNL     1      -6.154   2.534  26.737  0.00  0.00    -0.219 OA
ENDBRANCH  27  28
ENDBRANCH  20  21
ENDBRANCH  19  20
TORSDOF 9
ENDMDL
MODEL 4
REMARK VINA RESULT:      -8.5      1.752      6.424
REMARK  Name = 
REMARK  9 active torsions:
REMARK  status: ('A' for Active; 'I' for Inactive)
REMARK    1  A    between atoms: O_2  and  C_3
REMARK    2  A    between atoms: C_5  and  O_6
REMARK    3  A    between atoms: C_9  and  N_10
REMARK    4  A    between atoms: C_11  and  O_13
REMARK    5  A    between atoms: O_13  and  C_14
REMARK    6  A    between atoms: C_19  and  C_20
REMARK    7  A    between atoms: C_20  and  C_21
REMARK    8  A    between atoms: C_27  and  C_28
REMARK    9  A    between atoms: C_35  and  C_37
REMARK                            x       y       z     vdW  Elec       q    Type
REMARK                         _______ _______ _______ _____ _____    ______ ____
ROOT
ATOM     14  C   UNL     1      -3.451   0.157  24.543  0.00  0.00    +0.173 C 
ATOM     15  C   UNL     1      -2.803   0.661  24.451  0.00  0.00    +0.044 C 
ATOM     16  C   UNL     1      -2.039   0.352  24.438  0.00  0.00    +0.004 C 
ATOM     17  C   UNL     1      -1.921  -0.460  24.517  0.00  0.00    +0.003 C 
ATOM     18  C   UNL     1      -1.275   0.043  24.425  0.00  0.00    +0.000 C 
ATOM     19  C   UNL     1      -1.157  -0.770  24.504  0.00  0.00    +0.040 C 
ATOM     30  C   UNL     1      -1.039  -1.582  24.583  0.00  0.00    +0.152 C 
ATOM     31  O   UNL     1      -0.274  -1.892  24.570  0.00  0.00    -0.223 OA
ATOM     32  C   UNL     1      -1.687  -2.086  24.675  0.00  0.00    +0.033 C 
ATOM     33  C   UNL     1      -2.451  -1.777  24.688  0.00  0.00    +0.003 C 
ATOM     34  C   UNL     1      -2.569  -0.964  24.609  0.00  0.00    +0.006 C 
ATOM     35  C   UNL     1      -3.333  -0.655  24.622  0.00  0.00    +0.068 C 
ATOM     36  C   UNL     1      -3.665  -1.403  24.721  0.00  0.00    +0.006 C 
ENDROOT
BRANCH  35  37
ATOM     37  C   UNL     1      -4.143  -0.795  24.685  0.00  0.00    +0.185 C 
ATOM     38  O   UNL     1      -4.463  -1.501  24.401  0.00  0.00    -0.220 OA
ENDBRANCH  35  37
BRANCH  14  13
ATOM     13  O   UNL     1      -4.216   0.467  24.556  0.00  0.00    -0.437 OA
BRANCH  13  11
ATOM     10  N   UNL     1      -4.453   1.614  25.375  0.00  0.00    -0.142 NA
ATOM     11  C   UNL     1      -4.331   1.281  24.630  0.00  0.00    +0.425 C 
ATOM     12  O   UNL     1      -4.325   1.761  23.959  0.00  0.00    -0.224 OA
BRANCH  10   9
ATOM      3  C   UNL     1      -5.447   3.544  25.603  0.00  0.00    +0.143 A 
ATOM      4  C   UNL     1      -4.799   4.055  25.597  0.00  0.00    +0.074 A 
ATOM      5  C   UNL     1      -4.035   3.752  25.517  0.00  0.00    +0.143 A 
ATOM      8  C   UNL     1      -3.920   2.938  25.443  0.00  0.00    +0.054 A 
ATOM      9  C   UNL     1      -4.568   2.427  25.449  0.00  0.00    +0.083 A 
ATOM     39  C   UNL     1      -5.331   2.730  25.529  0.00  0.00    +0.054 A 
BRANCH   3   2
ATOM      1  C   UNL     1      -6.359   4.640  25.511  0.00  0.00    +0.252 C 
ATOM      2  O   UNL     1      -6.209   3.847  25.683  0.00  0.00    -0.471 OA
ENDBRANCH   3   2
BRANCH   5   6
ATOM      6  O   UNL     1      -3.388   4.262  25.511  0.00  0.00    -0.471 OA
ATOM      7  C   UNL     1      -2.805   4.196  26.092  0.00  0.00    +0.252 C 
ENDBRANCH   5   6
ENDBRANCH  10   9
ENDBRANCH  13  11
ENDBRANCH  14  13
BRANCH  19  20
ATOM     20  C   UNL     1      -0.510  -0.267  24.412  0.00  0.00    +0.088 C 
BRANCH  20  21
ATOM     21  C   UNL     1      -0.006  -0.355  23.765  0.00  0.00    +0.226 C 
ATOM     22  O   UNL     1      -0.117  -0.982  23.239  0.00  0.00    -0.275 OA
ATOM     23  N   UNL     1       0.607   0.182  23.643  0.00  0.00    -0.279 N 
ATOM     24  C   UNL     1       0.784   0.832  24.118  0.00  0.00    +0.093 C 
ATOM     25  C   UNL     1       1.439   1.216  23.793  0.00  0.00    +0.023 C 
ATOM     26  C   UNL     1       1.665   0.803  23.115  0.00  0.00    +0.024 C 
ATOM     27  C   UNL     1       1.151   0.163  23.022  0.00  0.00    +0.108 C 
BRANCH  27  28
ATOM     28  C   UNL     1       1.177  -0.395  22.417  0.00  0.00    +0.202 C 
ATOM     29  O   UNL     1       1.729  -0.317  21.807  0.00  0.00    -0.219 OA
ENDBRANCH  27  28
ENDBRANCH  20  21
ENDBRANCH  19  20
TORSDOF 9
ENDMDL
MODEL 5
REMARK VINA RESULT:      -8.2      1.379      2.136
REMARK  Name = 
REMARK  9 active torsions:
REMARK  status: ('A' for Active; 'I' for Inactive)
REMARK    1  A    between atoms: O_2  and  C_3
REMARK    2  A    between atoms: C_5  and  O_6
REMARK    3  A    between atoms: C_9  and  N_10
REMARK    4  A    between atoms: C_11  and  O_13
REMARK    5  A    between atoms: O_13  and  C_14
REMARK    6  A    between atoms: C_19  and  C_20
REMARK    7  A    between atoms: C_20  and  C_21
REMARK    8  A    between atoms: C_27  and  C_28
REMARK    9  A    between atoms: C_35  and  C_37
REMARK                            x       y       z     vdW  Elec       q    Type
REMARK                         _______ _______ _______ _____ _____    ______ ____
ROOT
ATOM     14  C   UNL     1      -1.079   1.658  25.099  0.00  0.00    +0.173 C 
ATOM     15  C   UNL     1      -1.839   1.458  24.843  0.00  0.00    +0.044 C 
ATOM     16  C   UNL     1      -2.436   2.026  24.842  0.00  0.00    +0.004 C 
ATOM     17  C   UNL     1      -2.276   2.794  25.097  0.00  0.00    +0.003 C 
ATOM     18  C   UNL     1      -3.034   2.594  24.841  0.00  0.00    +0.000 C 
ATOM     19  C   UNL     1      -2.874   3.363  25.096  0.00  0.00    +0.040 C 
ATOM     30  C   UNL     1      -2.714   4.130  25.351  0.00  0.00    +0.152 C 
ATOM     31  O   UNL     1      -3.312   4.699  25.351  0.00  0.00    -0.223 OA
ATOM     32  C   UNL     1      -1.955   4.330  25.608  0.00  0.00    +0.033 C 
ATOM     33  C   UNL     1      -1.357   3.762  25.609  0.00  0.00    +0.003 C 
ATOM     34  C   UNL     1      -1.517   2.994  25.353  0.00  0.00    +0.006 C 
ATOM     35  C   UNL     1      -0.919   2.426  25.354  0.00  0.00    +0.068 C 
ATOM     36  C   UNL     1      -0.369   2.964  25.649  0.00  0.00    +0.006 C 
ENDROOT
BRANCH  35  37
ATOM     37  C   UNL     1      -0.132   2.240  25.511  0.00  0.00    +0.185 C 
ATOM     38  O   UNL     1       0.320   2.733  25.996  0.00  0.00    -0.220 OA
ENDBRANCH  35  37
BRANCH  14  13
ATOM     13  O   UNL     1      -0.481   1.090  25.100  0.00  0.00    -0.437 OA
BRANCH  13  11
ATOM     10  N   UNL     1      -0.921  -0.232  25.420  0.00  0.00    -0.142 NA
ATOM     11  C   UNL     1      -0.647   0.316  24.866  0.00  0.00    +0.425 C 
ATOM     12  O   UNL     1      -0.538   0.089  24.081  0.00  0.00    -0.224 OA
BRANCH  10   9
ATOM      3  C   UNL     1      -2.005  -1.977  24.682  0.00  0.00    +0.143 A 
ATOM      4  C   UNL     1      -1.416  -2.554  24.721  0.00  0.00    +0.074 A 
ATOM      5  C   UNL     1      -0.662  -2.357  24.993  0.00  0.00    +0.143 A 
ATOM      8  C   UNL     1      -0.498  -1.583  25.226  0.00  0.00    +0.054 A 
ATOM      9  C   UNL     1      -1.086  -1.006  25.187  0.00  0.00    +0.083 A 
ATOM     39  C   UNL     1      -1.839  -1.203  24.916  0.00  0.00    +0.054 A 
BRANCH   3   2
ATOM      1  C   UNL     1      -3.333  -2.435  24.941  0.00  0.00    +0.252 C 
ATOM      2  O   UNL     1      -2.758  -2.174  24.411  0.00  0.00    -0.471 OA
ENDBRANCH   3   2
BRANCH   5   6
ATOM      6  O   UNL     1      -0.074  -2.933  25.032  0.00  0.00    -0.471 OA
ATOM      7  C   UNL     1       0.469  -2.927  25.653  0.00  0.00    +0.252 C 
ENDBRANCH   5   6
ENDBRANCH  10   9
ENDBRANCH  13  11
ENDBRANCH  14  13
BRANCH  19  20
ATOM     20  C   UNL     1      -3.632   3.163  24.840  0.00  0.00    +0.088 C 
BRANCH  20  21
ATOM     21  C   UNL     1      -4.254   3.124  25.381  0.00  0.00    +0.226 C 
ATOM     22  O   UNL     1      -4.168   3.454  26.133  0.00  0.00    -0.275 OA
ATOM     23  N   UNL     1      -4.961   2.755  25.171  0.00  0.00    -0.279 N 
ATOM     24  C   UNL     1      -5.127   2.403  24.445  0.00  0.00    +0.093 C 
ATOM     25  C   UNL     1      -5.895   2.104  24.476  0.00  0.00    +0.023 C 
ATOM     26  C   UNL     1      -6.204   2.272  25.222  0.00  0.00    +0.024 C 
ATOM     27  C   UNL     1      -5.627   2.675  25.652  0.00  0.00    +0.108 C 
BRANCH  27  28
ATOM     28  C   UNL     1      -5.702   2.948  26.426  0.00  0.00    +0.202 C 
ATOM     29  O   UNL     1      -6.280   2.629  26.923  0.00  0.00    -0.219 OA
ENDBRANCH  27  28
ENDBRANCH  20  21
ENDBRANCH  19  20
TORSDOF 9
ENDMDL
MODEL 6
REMARK VINA RESULT:      -7.9      1.306      5.533
REMARK  Name = 
REMARK  9 active torsions:
REMARK  status: ('A' for Active; 'I' for Inactive)
REMARK    1  A    between atoms: O_2  and  C_3
REMARK    2  A    between atoms: C_5  and  O_6
REMARK    3  A    between atoms: C_9  and  N_10
REMARK    4  A    between atoms: C_11  and  O_13
REMARK    5  A    between atoms: O_13  and  C_14
REMARK    6  A    between atoms: C_19  and  C_20
REMARK    7  A    between atoms: C_20  and  C_21
REMARK    8  A    between atoms: C_27  and  C_28
REMARK    9  A    between atoms: C_35  and  C_37
REMARK                            x       y       z     vdW  Elec       q    Type
REMARK                         _______ _______ _______ _____ _____    ______ ____
ROOT
ATOM     14  C   UNL     1      -1.937   2.845  24.791  0.00  0.00    +0.173 C 
ATOM     15  C   UNL     1      -2.308   2.107  24.790  0.00  0.00    +0.044 C 
ATOM     16  C   UNL     1      -1.888   1.435  24.564  0.00  0.00    +0.004 C 
ATOM     17  C   UNL     1      -1.097   1.499  24.339  0.00  0.00    +0.003 C 
ATOM     18  C   UNL     1      -1.468   0.763  24.338  0.00  0.00    +0.000 C 
ATOM     19  C   UNL     1      -0.676   0.826  24.113  0.00  0.00    +0.040 C 
ATOM     30  C   UNL     1       0.114   0.890  23.889  0.00  0.00    +0.152 C 
ATOM     31  O   UNL     1       0.536   0.218  23.663  0.00  0.00    -0.223 OA
ATOM     32  C   UNL     1       0.486   1.628  23.890  0.00  0.00    +0.033 C 
ATOM     33  C   UNL     1       0.065   2.300  24.116  0.00  0.00    +0.003 C 
ATOM     34  C   UNL     1      -0.726   2.237  24.341  0.00  0.00    +0.006 C 
ATOM     35  C   UNL     1      -1.146   2.909  24.567  0.00  0.00    +0.068 C 
ATOM     36  C   UNL     1      -0.491   3.395  24.446  0.00  0.00    +0.006 C 
ENDROOT
BRANCH  35  37
ATOM     37  C   UNL     1      -1.147   3.724  24.690  0.00  0.00    +0.185 C 
ATOM     38  O   UNL     1      -0.459   4.162  24.564  0.00  0.00    -0.220 OA
ENDBRANCH  35  37
BRANCH  14  13
ATOM     13  O   UNL     1      -2.358   3.518  25.017  0.00  0.00    -0.437 OA
BRANCH  13  11
ATOM     10  N   UNL     1      -3.774   3.515  24.818  0.00  0.00    -0.142 NA
ATOM     11  C   UNL     1      -3.122   3.445  25.321  0.00  0.00    +0.425 C 
ATOM     12  O   UNL     1      -3.235   3.303  26.125  0.00  0.00    -0.224 OA
BRANCH  10   9
ATOM      3  C   UNL     1      -5.653   2.626  25.482  0.00  0.00    +0.143 A 
ATOM      4  C   UNL     1      -6.065   3.297  25.727  0.00  0.00    +0.074 A 
ATOM      5  C   UNL     1      -5.713   4.042  25.669  0.00  0.00    +0.143 A 
ATOM      8  C   UNL     1      -4.949   4.114  25.366  0.00  0.00    +0.054 A 
ATOM      9  C   UNL     1      -4.537   3.442  25.121  0.00  0.00    +0.083 A 
ATOM     39  C   UNL     1      -4.889   2.699  25.179  0.00  0.00    +0.054 A 
BRANCH   3   2
ATOM      1  C   UNL     1      -6.310   1.516  24.867  0.00  0.00    +0.252 C 
ATOM      2  O   UNL     1      -6.005   1.883  25.540  0.00  0.00    -0.471 OA
ENDBRANCH   3   2
BRANCH   5   6
ATOM      6  O   UNL     1      -6.125   4.713  25.913  0.00  0.00    -0.471 OA
ATOM      7  C   UNL     1      -6.313   5.303  25.369  0.00  0.00    +0.252 C 
ENDBRANCH   5   6
ENDBRANCH  10   9
ENDBRANCH  13  11
ENDBRANCH  14  13
BRANCH  19  20
ATOM     20  C   UNL     1      -1.047   0.089  24.112  0.00  0.00    +0.088 C 
BRANCH  20  21
ATOM     21  C   UNL     1      -0.743  -0.527  24.567  0.00  0.00    +0.226 C 
ATOM     22  O   UNL     1      -0.082  -0.399  25.046  0.00  0.00    -0.275 OA
ATOM     23  N   UNL     1      -1.098  -1.270  24.546  0.00  0.00    -0.279 N 
ATOM     24  C   UNL     1      -1.757  -1.480  24.097  0.00  0.00    +0.093 C 
ATOM     25  C   UNL     1      -1.923  -2.275  24.243  0.00  0.00    +0.023 C 
ATOM     26  C   UNL     1      -1.366  -2.557  24.783  0.00  0.00    +0.024 C 
ATOM     27  C   UNL     1      -0.856  -1.936  24.970  0.00  0.00    +0.108 C 
BRANCH  27  28
ATOM     28  C   UNL     1      -0.216  -1.974  25.489  0.00  0.00    +0.202 C 
ATOM     29  O   UNL     1       0.050  -2.706  25.763  0.00  0.00    -0.219 OA
ENDBRANCH  27  28
ENDBRANCH  20  21
ENDBRANCH  19  20
TORSDOF 9
ENDMDL
MODEL 7
REMARK VINA RESULT:      -7.8      1.884      5.186
REMARK  Name = 
REMARK  9 active torsions:
REMARK  status: ('A' for Active; 'I' for Inactive)
REMARK    1  A    between atoms: O_2  and  C_3
REMARK    2  A    between atoms: C_5  and  O_6
REMARK    3  A    between atoms: C_9  and  N_10
REMARK    4  A    between atoms: C_11  and  O_13
REMARK    5  A    between atoms: O_13  and  C_14
REMARK    6  A    between atoms: C_19  and  C_20
REMARK    7  A    between atoms: C_20  and  C_21
REMARK    8  A    between atoms: C_27  and  C_28
REMARK    9  A    between atoms: C_35  and  C_37
REMARK                            x       y       z     vdW  Elec       q    Type
REMARK                         _______ _______ _______ _____ _____    ______ ____
ROOT
ATOM     14  C   UNL     1      -0.277   1.496  24.999  0.00  0.00    +0.173 C 
ATOM     15  C   UNL     1      -0.908   1.161  25.412  0.00  0.00    +0.044 C 
ATOM     16  C   UNL     1      -1.135   0.383  25.258  0.00  0.00    +0.004 C 
ATOM     17  C   UNL     1      -0.731  -0.060  24.692  0.00  0.00    +0.003 C 
ATOM     18  C   UNL     1      -1.361  -0.394  25.104  0.00  0.00    +0.000 C 
ATOM     19  C   UNL     1      -0.957  -0.838  24.538  0.00  0.00    +0.040 C 
ATOM     30  C   UNL     1      -0.553  -1.281  23.972  0.00  0.00    +0.152 C 
ATOM     31  O   UNL     1      -0.779  -2.059  23.818  0.00  0.00    -0.223 OA
ATOM     32  C   UNL     1       0.079  -0.945  23.559  0.00  0.00    +0.033 C 
ATOM     33  C   UNL     1       0.305  -0.168  23.713  0.00  0.00    +0.003 C 
ATOM     34  C   UNL     1      -0.099   0.276  24.279  0.00  0.00    +0.006 C 
ATOM     35  C   UNL     1       0.127   1.054  24.433  0.00  0.00    +0.068 C 
ATOM     36  C   UNL     1       0.732   1.019  23.874  0.00  0.00    +0.006 C 
ENDROOT
BRANCH  35  37
ATOM     37  C   UNL     1       0.636   1.680  24.264  0.00  0.00    +0.185 C 
ATOM     38  O   UNL     1       1.357   1.537  23.889  0.00  0.00    -0.220 OA
ENDBRANCH  35  37
BRANCH  14  13
ATOM     13  O   UNL     1      -0.051   2.275  25.153  0.00  0.00    -0.437 OA
BRANCH  13  11
ATOM     10  N   UNL     1      -1.091   3.223  24.903  0.00  0.00    -0.142 NA
ATOM     11  C   UNL     1      -0.604   2.819  25.434  0.00  0.00    +0.425 C 
ATOM     12  O   UNL     1      -0.672   2.959  26.243  0.00  0.00    -0.224 OA
BRANCH  10   9
ATOM      3  C   UNL     1      -2.916   4.046  25.772  0.00  0.00    +0.143 A 
ATOM      4  C   UNL     1      -2.752   4.854  25.742  0.00  0.00    +0.074 A 
ATOM      5  C   UNL     1      -2.034   5.118  25.432  0.00  0.00    +0.143 A 
ATOM      8  C   UNL     1      -1.481   4.574  25.152  0.00  0.00    +0.054 A 
ATOM      9  C   UNL     1      -1.645   3.766  25.182  0.00  0.00    +0.083 A 
ATOM     39  C   UNL     1      -2.362   3.502  25.492  0.00  0.00    +0.054 A 
BRANCH   3   2
ATOM      1  C   UNL     1      -4.260   3.602  25.577  0.00  0.00    +0.252 C 
ATOM      2  O   UNL     1      -3.633   3.782  26.082  0.00  0.00    -0.471 OA
ENDBRANCH   3   2
BRANCH   5   6
ATOM      6  O   UNL     1      -1.870   5.925  25.402  0.00  0.00    -0.471 OA
ATOM      7  C   UNL     1      -1.389   6.227  24.804  0.00  0.00    +0.252 C 
ENDBRANCH   5   6
ENDBRANCH  10   9
ENDBRANCH  13  11
ENDBRANCH  14  13
BRANCH  19  20
ATOM     20  C   UNL     1      -1.587  -1.173  24.950  0.00  0.00    +0.088 C 
BRANCH  20  21
ATOM     21  C   UNL     1      -2.276  -1.388  24.549  0.00  0.00    +0.226 C 
ATOM     22  O   UNL     1      -2.454  -1.041  23.822  0.00  0.00    -0.275 OA
ATOM     23  N   UNL     1      -2.785  -1.948  24.875  0.00  0.00    -0.279 N 
ATOM     24  C   UNL     1      -2.680  -2.340  25.593  0.00  0.00    +0.093 C 
ATOM     25  C   UNL     1      -3.320  -2.850  25.701  0.00  0.00    +0.023 C 
ATOM     26  C   UNL     1      -3.820  -2.773  25.049  0.00  0.00    +0.024 C 
ATOM     27  C   UNL     1      -3.490  -2.216  24.538  0.00  0.00    +0.108 C 
BRANCH  27  28
ATOM     28  C   UNL     1      -3.807  -1.970  23.818  0.00  0.00    +0.202 C 
ATOM     29  O   UNL     1      -4.522  -2.288  23.552  0.00  0.00    -0.219 OA
ENDBRANCH  27  28
ENDBRANCH  20  21
ENDBRANCH  19  20
TORSDOF 9
ENDMDL
