REMARK  Name = 
REMARK  7 active torsions:
REMARK  status: ('A' for Active; 'I' for Inactive)
REMARK    1  A    between atoms: N_2  and  C_3
REMARK    2  A    between atoms: N_2  and  C_25
REMARK    3  A    between atoms: C_3  and  C_4
REMARK    4  A    between atoms: N_6  and  C_7
REMARK    5  A    between atoms: C_7  and  C_8
REMARK    6  A    between atoms: C_15  and  C_16
REMARK    7  A    between atoms: C_25  and  C_26
REMARK                            x       y       z     vdW  Elec       q    Type
REMARK                         _______ _______ _______ _____ _____    ______ ____
ROOT
ATOM      7  C   UNL     1       2.324  -2.754   0.000  0.00  0.00    +0.145 C 
ENDROOT
BRANCH   7   8
ATOM      8  C   UNL     1       1.814  -2.106   0.000  0.00  0.00    +0.082 C 
ATOM      9  C   UNL     1       1.661  -1.343   0.000  0.00  0.00    +0.019 C 
ATOM     10  C   UNL     1       0.923  -1.010   0.000  0.00  0.00    +0.013 C 
ATOM     11  C   UNL     1       0.961  -0.114   0.000  0.00  0.00    +0.018 C 
ATOM     12  C   UNL     1       1.205  -0.720   0.000  0.00  0.00    +0.072 C 
ATOM     13  N   UNL     1       1.065  -1.759   0.000  0.00  0.00    -0.272 NA
ATOM     14  C   UNL     1       0.226  -2.118   0.000  0.00  0.00    +0.081 C 
ATOM     15  C   UNL     1       0.119  -1.362   0.000  0.00  0.00    +0.093 C 
BRANCH  15  16
ATOM     16  C   UNL     1      -0.602  -0.960   0.000  0.00  0.00    +0.227 C 
ATOM     17  O   UNL     1      -0.614  -0.136   0.000  0.00  0.00    -0.275 OA
ATOM     18  N   UNL     1      -1.310  -1.384   0.000  0.00  0.00    -0.280 N 
ATOM     19  C   UNL     1      -1.384  -2.205   0.000  0.00  0.00    +0.093 C 
ATOM     20  C   UNL     1      -2.188  -2.389   0.000  0.00  0.00    +0.023 C 
ATOM     21  C   UNL     1      -2.611  -1.681   0.000  0.00  0.00    +0.023 C 
ATOM     22  C   UNL     1      -2.068  -1.059   0.000  0.00  0.00    +0.093 C 
ENDBRANCH  15  16
ENDBRANCH   7   8
BRANCH   7   6
ATOM      4  C   UNL     1       4.456  -2.862   0.000  0.00  0.00    +0.117 A 
ATOM      5  C   UNL     1       3.716  -3.227   0.000  0.00  0.00    +0.115 A 
ATOM      6  N   UNL     1       3.141  -2.636   0.000  0.00  0.00    -0.229 N 
ATOM     23  N   UNL     1       3.525  -1.906   0.000  0.00  0.00    -0.064 NA
ATOM     24  N   UNL     1       4.338  -2.046   0.000  0.00  0.00    -0.132 NA
BRANCH   4   3
ATOM      3  C   UNL     1       5.186  -3.247   0.000  0.00  0.00    +0.122 C 
BRANCH   3   2
ATOM      1  C   UNL     1       4.520  -4.511   0.000  0.00  0.00    +0.090 C 
ATOM      2  N   UNL     1       5.218  -4.071   0.000  0.00  0.00    -0.263 NA
BRANCH   2  25
ATOM     25  C   UNL     1       5.948  -4.456   0.000  0.00  0.00    +0.099 C 
BRANCH  25  26
ATOM     26  C   UNL     1       6.646  -4.016   0.000  0.00  0.00    -0.006 A 
ATOM     27  C   UNL     1       6.614  -3.191   0.000  0.00  0.00    -0.003 A 
ATOM     28  C   UNL     1       7.312  -2.752   0.000  0.00  0.00    -0.000 A 
ATOM     29  C   UNL     1       8.042  -3.136   0.000  0.00  0.00    -0.000 A 
ATOM     30  C   UNL     1       8.074  -3.960   0.000  0.00  0.00    -0.000 A 
ATOM     31  C   UNL     1       7.376  -4.400   0.000  0.00  0.00    -0.003 A 
ENDBRANCH  25  26
ENDBRANCH   2  25
ENDBRANCH   3   2
ENDBRANCH   4   3
ENDBRANCH   7   6
TORSDOF 7
