MODEL 1
REMARK VINA RESULT:     -13.9      0.000      0.000
REMARK  Name = 
REMARK  4 active torsions:
REMARK  status: ('A' for Active; 'I' for Inactive)
REMARK    1  A    between atoms: C_2  and  C_3
REMARK    2  A    between atoms: C_6  and  C_7
REMARK    3  A    between atoms: C_7  and  N_8
REMARK    4  A    between atoms: C_15  and  C_22
REMARK                            x       y       z     vdW  Elec       q    Type
REMARK                         _______ _______ _______ _____ _____    ______ ____
ROOT
ATOM      8  N   UNL     1      -2.071   1.877  25.018  0.00  0.00    -0.266 NA
ATOM      9  C   UNL     1      -1.313   1.529  24.979  0.00  0.00    +0.074 C 
ATOM     10  C   UNL     1      -1.571   0.585  24.838  0.00  0.00    +0.039 C 
ATOM     11  C   UNL     1      -1.616  -0.220  24.720  0.00  0.00    +0.011 C 
ATOM     12  C   UNL     1      -2.060   0.320  24.792  0.00  0.00    +0.054 C 
ATOM     13  C   UNL     1      -1.794   1.227  24.928  0.00  0.00    +0.078 C 
ATOM     14  C   UNL     1      -2.957   0.519  24.808  0.00  0.00    +0.041 A 
ATOM     15  C   UNL     1      -3.694   0.155  24.745  0.00  0.00    +0.012 A 
ATOM     16  C   UNL     1      -4.382   0.607  24.801  0.00  0.00    +0.006 A 
ATOM     17  C   UNL     1      -4.333   1.422  24.920  0.00  0.00    +0.061 A 
ATOM     18  C   UNL     1      -3.595   1.785  24.983  0.00  0.00    +0.261 A 
ATOM     19  O   UNL     1      -3.546   2.600  25.102  0.00  0.00    -0.267 OA
ATOM     20  N   UNL     1      -2.907   1.334  24.928  0.00  0.00    -0.299 N 
ATOM     21  C   UNL     1      -2.506   0.802  24.856  0.00  0.00    +0.110 C 
ENDROOT
BRANCH  15  22
ATOM     22  C   UNL     1      -3.744  -0.660  24.626  0.00  0.00    +0.001 A 
ATOM     23  C   UNL     1      -3.876  -0.959  23.869  0.00  0.00    +0.001 A 
ATOM     24  C   UNL     1      -3.926  -1.774  23.750  0.00  0.00    +0.011 A 
ATOM     25  C   UNL     1      -3.843  -2.290  24.388  0.00  0.00    +0.058 A 
ATOM     26 CL   UNL     1      -3.892  -3.104  24.269  0.00  0.00    -0.082 Cl
ATOM     27  C   UNL     1      -3.710  -1.991  25.145  0.00  0.00    +0.011 A 
ATOM     28  C   UNL     1      -3.661  -1.176  25.264  0.00  0.00    +0.001 A 
ENDBRANCH  15  22
BRANCH   8   7
ATOM      7  C   UNL     1      -2.645   2.465  25.096  0.00  0.00    +0.138 C 
BRANCH   7   6
ATOM      3  C   UNL     1      -1.917   4.472  25.097  0.00  0.00    +0.156 A 
ATOM      4  C   UNL     1      -2.226   4.415  25.859  0.00  0.00    +0.038 A 
ATOM      5  C   UNL     1      -2.536   3.656  25.952  0.00  0.00    +0.037 A 
ATOM      6  C   UNL     1      -2.419   3.244  25.246  0.00  0.00    +0.139 A 
ATOM     29  O   UNL     1      -2.036   3.749  24.717  0.00  0.00    -0.458 OA
BRANCH   3   2
ATOM      1  O   UNL     1      -0.797   5.357  25.018  0.00  0.00    -0.212 OA
ATOM      2  C   UNL     1      -1.552   5.137  24.770  0.00  0.00    +0.246 C 
ENDBRANCH   3   2
ENDBRANCH   7   6
ENDBRANCH   8   7
TORSDOF 4
ENDMDL
MODEL 2
REMARK VINA RESULT:     -13.4      2.303      4.917
REMARK  Name = 
REMARK  4 active torsions:
REMARK  status: ('A' for Active; 'I' for Inactive)
REMARK    1  A    between atoms: C_2  and  C_3
REMARK    2  A    between atoms: C_6  and  C_7
REMARK    3  A    between atoms: C_7  and  N_8
REMARK    4  A    between atoms: C_15  and  C_22
REMARK                            x       y       z     vdW  Elec       q    Type
REMARK                         _______ _______ _______ _____ _____    ______ ____
ROOT
ATOM      8  N   UNL     1      -3.260   0.693  24.682  0.00  0.00    -0.266 NA
ATOM      9  C   UNL     1      -3.919   1.081  24.346  0.00  0.00    +0.074 C 
ATOM     10  C   UNL     1      -3.589   2.013  24.366  0.00  0.00    +0.039 C 
ATOM     11  C   UNL     1      -3.467   2.816  24.312  0.00  0.00    +0.011 C 
ATOM     12  C   UNL     1      -3.116   2.253  24.538  0.00  0.00    +0.054 C 
ATOM     13  C   UNL     1      -3.449   1.358  24.513  0.00  0.00    +0.078 C 
ATOM     14  C   UNL     1      -2.316   2.007  24.917  0.00  0.00    +0.041 A 
ATOM     15  C   UNL     1      -1.605   2.332  25.182  0.00  0.00    +0.012 A 
ATOM     16  C   UNL     1      -1.021   1.843  25.499  0.00  0.00    +0.006 A 
ATOM     17  C   UNL     1      -1.148   1.030  25.552  0.00  0.00    +0.061 A 
ATOM     18  C   UNL     1      -1.858   0.704  25.288  0.00  0.00    +0.261 A 
ATOM     19  O   UNL     1      -1.984  -0.109  25.341  0.00  0.00    -0.267 OA
ATOM     20  N   UNL     1      -2.442   1.193  24.970  0.00  0.00    -0.299 N 
ATOM     21  C   UNL     1      -2.756   1.746  24.761  0.00  0.00    +0.110 C 
ENDROOT
BRANCH  15  22
ATOM     22  C   UNL     1      -1.479   3.145  25.129  0.00  0.00    +0.001 A 
ATOM     23  C   UNL     1      -1.799   3.650  25.697  0.00  0.00    +0.001 A 
ATOM     24  C   UNL     1      -1.672   4.464  25.644  0.00  0.00    +0.011 A 
ATOM     25  C   UNL     1      -1.227   4.773  25.022  0.00  0.00    +0.058 A 
ATOM     26 CL   UNL     1      -1.100   5.586  24.969  0.00  0.00    -0.082 Cl
ATOM     27  C   UNL     1      -0.907   4.268  24.454  0.00  0.00    +0.011 A 
ATOM     28  C   UNL     1      -1.033   3.454  24.507  0.00  0.00    +0.001 A 
ENDBRANCH  15  22
BRANCH   8   7
ATOM      7  C   UNL     1      -2.794   0.073  24.966  0.00  0.00    +0.138 C 
BRANCH   7   6
ATOM      3  C   UNL     1      -3.464  -1.913  24.564  0.00  0.00    +0.156 A 
ATOM      4  C   UNL     1      -3.620  -1.854  25.371  0.00  0.00    +0.038 A 
ATOM      5  C   UNL     1      -3.389  -1.102  25.621  0.00  0.00    +0.037 A 
ATOM      6  C   UNL     1      -3.089  -0.697  24.966  0.00  0.00    +0.139 A 
ATOM     29  O   UNL     1      -3.135  -1.199  24.313  0.00  0.00    -0.458 OA
BRANCH   3   2
ATOM      1  O   UNL     1      -4.350  -2.675  23.741  0.00  0.00    -0.212 OA
ATOM      2  C   UNL     1      -3.610  -2.573  24.089  0.00  0.00    +0.246 C 
ENDBRANCH   3   2
ENDBRANCH   7   6
ENDBRANCH   8   7
TORSDOF 4
ENDMDL
MODEL 3
REMARK VINA RESULT:     -11.6      2.377      3.905
REMARK  Name = 
REMARK  4 active torsions:
REMARK  status: ('A' for Active; 'I' for Inactive)
REMARK    1  A    between atoms: C_2  and  C_3
REMARK    2  A    between atoms: C_6  and  C_7
REMARK    3  A    between atoms: C_7  and  N_8
REMARK    4  A    between atoms: C_15  and  C_22
REMARK                            x       y       z     vdW  Elec       q    Type
REMARK                         _______ _______ _______ _____ _____    ______ ____
ROOT
ATOM      8  N   UNL     1      -1.279   1.440  24.694  0.00  0.00    -0.266 NA
ATOM      9  C   UNL     1      -0.898   2.046  25.124  0.00  0.00    +0.074 C 
ATOM     10  C   UNL     1      -1.679   2.614  25.336  0.00  0.00    +0.039 C 
ATOM     11  C   UNL     1      -2.207   3.180  25.589  0.00  0.00    +0.011 C 
ATOM     12  C   UNL     1      -2.224   2.581  25.224  0.00  0.00    +0.054 C 
ATOM     13  C   UNL     1      -1.460   2.042  25.028  0.00  0.00    +0.078 C 
ATOM     14  C   UNL     1      -2.806   2.019  24.787  0.00  0.00    +0.041 A 
ATOM     15  C   UNL     1      -3.606   1.942  24.606  0.00  0.00    +0.012 A 
ATOM     16  C   UNL     1      -3.869   1.292  24.170  0.00  0.00    +0.006 A 
ATOM     17  C   UNL     1      -3.331   0.721  23.915  0.00  0.00    +0.061 A 
ATOM     18  C   UNL     1      -2.530   0.799  24.096  0.00  0.00    +0.261 A 
ATOM     19  O   UNL     1      -1.992   0.227  23.842  0.00  0.00    -0.267 OA
ATOM     20  N   UNL     1      -2.267   1.448  24.533  0.00  0.00    -0.299 N 
ATOM     21  C   UNL     1      -2.279   2.021  24.877  0.00  0.00    +0.110 C 
ENDROOT
BRANCH  15  22
ATOM     22  C   UNL     1      -4.144   2.513  24.860  0.00  0.00    +0.001 A 
ATOM     23  C   UNL     1      -4.247   3.206  24.425  0.00  0.00    +0.001 A 
ATOM     24  C   UNL     1      -4.785   3.777  24.680  0.00  0.00    +0.011 A 
ATOM     25  C   UNL     1      -5.220   3.656  25.370  0.00  0.00    +0.058 A 
ATOM     26 CL   UNL     1      -5.758   4.227  25.624  0.00  0.00    -0.082 Cl
ATOM     27  C   UNL     1      -5.118   2.963  25.805  0.00  0.00    +0.011 A 
ATOM     28  C   UNL     1      -4.580   2.391  25.550  0.00  0.00    +0.001 A 
ENDBRANCH  15  22
BRANCH   8   7
ATOM      7  C   UNL     1      -1.368   0.744  24.259  0.00  0.00    +0.138 C 
BRANCH   7   6
ATOM      3  C   UNL     1       0.394  -0.113  23.413  0.00  0.00    +0.156 A 
ATOM      4  C   UNL     1       0.239  -0.641  24.027  0.00  0.00    +0.038 A 
ATOM      5  C   UNL     1      -0.439  -0.385  24.419  0.00  0.00    +0.037 A 
ATOM      6  C   UNL     1      -0.705   0.303  24.046  0.00  0.00    +0.139 A 
ATOM     29  O   UNL     1      -0.190   0.470  23.424  0.00  0.00    -0.458 OA
BRANCH   3   2
ATOM      1  O   UNL     1       1.700   0.292  22.999  0.00  0.00    -0.212 OA
ATOM      2  C   UNL     1       1.022  -0.161  22.880  0.00  0.00    +0.246 C 
ENDBRANCH   3   2
ENDBRANCH   7   6
ENDBRANCH   8   7
TORSDOF 4
ENDMDL
