REMARK  Name = 
REMARK  5 active torsions:
REMARK  status: ('A' for Active; 'I' for Inactive)
REMARK    1  A    between atoms: C_2  and  C_28
REMARK    2  A    between atoms: N_3  and  C_4
REMARK    3  A    between atoms: C_4  and  C_5
REMARK    4  A    between atoms: C_12  and  C_13
REMARK    5  A    between atoms: C_13  and  N_14
REMARK                            x       y       z     vdW  Elec       q    Type
REMARK                         _______ _______ _______ _____ _____    ______ ____
ROOT
ATOM      5  C   UNL     1       0.465  -5.199   0.000  0.00  0.00    +0.079 C 
ATOM      6  C   UNL     1       1.025  -4.658   0.000  0.00  0.00    +0.018 C 
ATOM      7  C   UNL     1       0.906  -3.857   0.000  0.00  0.00    +0.005 C 
ATOM      8  C   UNL     1       1.681  -3.405   0.000  0.00  0.00    +0.017 C 
ATOM      9  C   UNL     1       1.302  -3.938   0.000  0.00  0.00    +0.072 C 
ATOM     10  N   UNL     1       0.353  -4.381   0.000  0.00  0.00    -0.272 NA
ATOM     11  C   UNL     1      -0.402  -3.868   0.000  0.00  0.00    +0.073 C 
ATOM     12  C   UNL     1       0.176  -3.370   0.000  0.00  0.00    +0.032 C 
ENDROOT
BRANCH   5   4
ATOM      4  C   UNL     1       0.195  -5.978   0.000  0.00  0.00    +0.131 C 
BRANCH   4   3
ATOM      1  O   UNL     1      -0.346  -7.537   0.000  0.00  0.00    -0.265 OA
ATOM      2  C   UNL     1      -0.886  -6.913   0.000  0.00  0.00    +0.300 C 
ATOM      3  N   UNL     1      -0.616  -6.134   0.000  0.00  0.00    -0.198 NA
BRANCH   2  28
ATOM     28  C   UNL     1      -1.696  -7.069   0.000  0.00  0.00    +0.200 A 
ATOM     29  C   UNL     1      -2.046  -7.816   0.000  0.00  0.00    +0.046 A 
ATOM     30  C   UNL     1      -2.865  -7.714   0.000  0.00  0.00    +0.044 A 
ATOM     31  C   UNL     1      -3.021  -6.904   0.000  0.00  0.00    +0.180 A 
ATOM     32  O   UNL     1      -2.298  -6.505   0.000  0.00  0.00    -0.446 OA
ENDBRANCH   2  28
ENDBRANCH   4   3
ENDBRANCH   5   4
BRANCH  12  13
ATOM     13  C   UNL     1       0.125  -2.547   0.000  0.00  0.00    +0.073 C 
BRANCH  13  14
ATOM     14  N   UNL     1       0.813  -2.091   0.000  0.00  0.00    -0.272 NA
ATOM     15  C   UNL     1       1.629  -1.912   0.000  0.00  0.00    +0.074 C 
ATOM     16  C   UNL     1       1.582  -0.925   0.000  0.00  0.00    +0.039 C 
ATOM     17  C   UNL     1       1.713  -0.121   0.000  0.00  0.00    +0.011 C 
ATOM     18  C   UNL     1       1.163  -0.557   0.000  0.00  0.00    +0.054 C 
ATOM     19  C   UNL     1       1.225  -1.510   0.000  0.00  0.00    +0.078 C 
ATOM     20  C   UNL     1       0.244  -0.558   0.000  0.00  0.00    +0.041 A 
ATOM     21  C   UNL     1      -0.397  -0.039   0.000  0.00  0.00    +0.013 A 
ATOM     22  C   UNL     1      -1.167  -0.335   0.000  0.00  0.00    +0.006 A 
ATOM     23  C   UNL     1      -1.296  -1.150   0.000  0.00  0.00    +0.061 A 
ATOM     24  C   UNL     1      -0.655  -1.669   0.000  0.00  0.00    +0.261 A 
ATOM     25  O   UNL     1      -0.784  -2.484   0.000  0.00  0.00    -0.267 OA
ATOM     26  N   UNL     1       0.115  -1.373   0.000  0.00  0.00    -0.299 N 
ATOM     27  C   UNL     1       0.622  -0.936   0.000  0.00  0.00    +0.110 C 
ENDBRANCH  13  14
ENDBRANCH  12  13
TORSDOF 5
