REMARK  Name = 
REMARK  5 active torsions:
REMARK  status: ('A' for Active; 'I' for Inactive)
REMARK    1  A    between atoms: C_2  and  C_3
REMARK    2  A    between atoms: C_3  and  C_4
REMARK    3  A    between atoms: C_9  and  C_10
REMARK    4  A    between atoms: C_10  and  C_11
REMARK    5  A    between atoms: C_14  and  C_16
REMARK                            x       y       z     vdW  Elec       q    Type
REMARK                         _______ _______ _______ _____ _____    ______ ____
ROOT
ATOM      4  C   UNL     1      -0.608  -2.949   0.000  0.00  0.00    +0.012 C 
ATOM      5  C   UNL     1       0.107  -2.537   0.000  0.00  0.00    +0.019 C 
ATOM      6  C   UNL     1       0.821  -2.949   0.000  0.00  0.00    +0.089 C 
ATOM      7  N   UNL     1       0.821  -3.774   0.000  0.00  0.00    -0.218 NA
ATOM      8  C   UNL     1       0.107  -4.187   0.000  0.00  0.00    +0.089 C 
ATOM      9  C   UNL     1      -0.608  -3.774   0.000  0.00  0.00    +0.024 C 
ENDROOT
BRANCH   4   3
ATOM      3  C   UNL     1      -1.322  -2.537   0.000  0.00  0.00    +0.085 C 
BRANCH   3   2
ATOM      1  O   UNL     1      -2.037  -3.774   0.000  0.00  0.00    -0.275 OA
ATOM      2  C   UNL     1      -2.037  -2.949   0.000  0.00  0.00    +0.226 C 
ATOM     22  N   UNL     1      -2.751  -2.537   0.000  0.00  0.00    -0.276 N 
ATOM     23  C   UNL     1      -3.466  -2.949   0.000  0.00  0.00    +0.115 C 
ATOM     24  C   UNL     1      -4.180  -2.537   0.000  0.00  0.00    +0.114 C 
ATOM     25  N   UNL     1      -4.180  -1.712   0.000  0.00  0.00    -0.290 N 
ATOM     26  C   UNL     1      -3.466  -1.299   0.000  0.00  0.00    +0.114 C 
ATOM     27  C   UNL     1      -2.751  -1.712   0.000  0.00  0.00    +0.115 C 
ATOM     28  C   UNL     1      -4.895  -1.299   0.000  0.00  0.00    +0.132 A 
ATOM     29  N   UNL     1      -5.609  -1.712   0.000  0.00  0.00    -0.229 NA
ATOM     30  C   UNL     1      -6.324  -1.299   0.000  0.00  0.00    +0.100 A 
ATOM     31  C   UNL     1      -6.324  -0.474   0.000  0.00  0.00    +0.021 A 
ATOM     32  C   UNL     1      -5.609  -0.062   0.000  0.00  0.00    +0.004 A 
ATOM     33  C   UNL     1      -4.895  -0.474   0.000  0.00  0.00    +0.034 A 
ENDBRANCH   3   2
ENDBRANCH   4   3
BRANCH   9  10
ATOM     10  C   UNL     1      -1.322  -4.187   0.000  0.00  0.00    +0.051 C 
BRANCH  10  11
ATOM     11  C   UNL     1      -1.322  -5.012   0.000  0.00  0.00    +0.101 A 
ATOM     12  N   UNL     1      -0.655  -5.497   0.000  0.00  0.00    -0.081 NA
ATOM     13  O   UNL     1      -0.910  -6.281   0.000  0.00  0.00    -0.354 OA
ATOM     14  C   UNL     1      -1.735  -6.281   0.000  0.00  0.00    +0.177 A 
ATOM     15  C   UNL     1      -1.990  -5.497   0.000  0.00  0.00    +0.058 A 
BRANCH  14  16
ATOM     16  C   UNL     1      -2.220  -6.949   0.000  0.00  0.00    +0.037 A 
ATOM     17  C   UNL     1      -1.884  -7.702   0.000  0.00  0.00    +0.003 A 
ATOM     18  C   UNL     1      -2.369  -8.370   0.000  0.00  0.00    +0.000 A 
ATOM     19  C   UNL     1      -3.189  -8.284   0.000  0.00  0.00    +0.000 A 
ATOM     20  C   UNL     1      -3.525  -7.530   0.000  0.00  0.00    +0.000 A 
ATOM     21  C   UNL     1      -3.040  -6.862   0.000  0.00  0.00    +0.003 A 
ENDBRANCH  14  16
ENDBRANCH  10  11
ENDBRANCH   9  10
TORSDOF 5
