REMARK  Name = 
REMARK  6 active torsions:
REMARK  status: ('A' for Active; 'I' for Inactive)
REMARK    1  A    between atoms: C_4  and  C_20
REMARK    2  A    between atoms: C_5  and  N_6
REMARK    3  A    between atoms: N_6  and  S_7
REMARK    4  A    between atoms: S_7  and  C_10
REMARK    5  A    between atoms: C_14  and  C_16
REMARK    6  A    between atoms: C_23  and  C_26
REMARK                            x       y       z     vdW  Elec       q    Type
REMARK                         _______ _______ _______ _____ _____    ______ ____
ROOT
ATOM      1  O   UNL     1       0.715  -0.412   0.000  0.00  0.00    -0.220 OA
ATOM      2  C   UNL     1       0.715  -1.238   0.000  0.00  0.00    +0.184 C 
ATOM      3  C   UNL     1       1.382  -1.722   0.000  0.00  0.00    +0.041 C 
ATOM      4  C   UNL     1       1.127  -2.507   0.000  0.00  0.00    +0.045 C 
ATOM      5  C   UNL     1       0.302  -2.507   0.000  0.00  0.00    +0.135 C 
ATOM     18  C   UNL     1       0.047  -1.722   0.000  0.00  0.00    +0.200 C 
ATOM     19  O   UNL     1      -0.738  -1.468   0.000  0.00  0.00    -0.219 OA
ENDROOT
BRANCH   4  20
ATOM     20  C   UNL     1       1.612  -3.175   0.000  0.00  0.00    -0.021 A 
ATOM     21  C   UNL     1       2.432  -3.088   0.000  0.00  0.00    -0.004 A 
ATOM     22  C   UNL     1       2.917  -3.756   0.000  0.00  0.00    +0.004 A 
ATOM     23  C   UNL     1       2.582  -4.509   0.000  0.00  0.00    +0.071 A 
ATOM     24  C   UNL     1       1.761  -4.596   0.000  0.00  0.00    +0.004 A 
ATOM     25  C   UNL     1       1.276  -3.928   0.000  0.00  0.00    -0.004 A 
BRANCH  23  26
ATOM     26  C   UNL     1       3.067  -5.177   0.000  0.00  0.00    +0.419 C 
ATOM     27  F   UNL     1       3.552  -5.844   0.000  0.00  0.00    -0.166 F 
ATOM     28  F   UNL     1       2.399  -5.662   0.000  0.00  0.00    -0.166 F 
ATOM     29  F   UNL     1       3.734  -4.692   0.000  0.00  0.00    -0.166 F 
ENDBRANCH  23  26
ENDBRANCH   4  20
BRANCH   5   6
ATOM      6  N   UNL     1      -0.183  -3.175   0.000  0.00  0.00    -0.076 NA
BRANCH   6   7
ATOM      7  S   UNL     1      -1.003  -3.088   0.000  0.00  0.00    +0.077 S 
ATOM      8  O   UNL     1      -1.090  -3.909   0.000  0.00  0.00    -0.152 OA
ATOM      9  O   UNL     1      -0.917  -2.268   0.000  0.00  0.00    -0.152 OA
BRANCH   7  10
ATOM     10  C   UNL     1      -1.824  -3.002   0.000  0.00  0.00    +0.124 A 
ATOM     11  C   UNL     1      -2.309  -3.670   0.000  0.00  0.00    +0.020 A 
ATOM     12  C   UNL     1      -3.129  -3.583   0.000  0.00  0.00    +0.002 A 
ATOM     13  C   UNL     1      -3.465  -2.829   0.000  0.00  0.00    +0.010 A 
ATOM     14  C   UNL     1      -2.980  -2.162   0.000  0.00  0.00    +0.070 A 
ATOM     15  C   UNL     1      -2.159  -2.248   0.000  0.00  0.00    +0.030 A 
BRANCH  14  16
ATOM     16  C   UNL     1      -3.316  -1.408   0.000  0.00  0.00    +0.100 C 
ATOM     17  N   UNL     1      -3.651  -0.655   0.000  0.00  0.00    -0.191 NA
ENDBRANCH  14  16
ENDBRANCH   7  10
ENDBRANCH   6   7
ENDBRANCH   5   6
TORSDOF 6
