MODEL 1
REMARK VINA RESULT:     -12.0      0.000      0.000
REMARK  Name = 
REMARK  7 active torsions:
REMARK  status: ('A' for Active; 'I' for Inactive)
REMARK    1  A    between atoms: N_4  and  C_24
REMARK    2  A    between atoms: C_7  and  C_8
REMARK    3  A    between atoms: C_10  and  N_11
REMARK    4  A    between atoms: C_12  and  C_14
REMARK    5  A    between atoms: C_14  and  C_15
REMARK    6  A    between atoms: C_15  and  C_18
REMARK    7  A    between atoms: C_18  and  C_19
REMARK                            x       y       z     vdW  Elec       q    Type
REMARK                         _______ _______ _______ _____ _____    ______ ____
ROOT
ATOM      8  C   UNL     1      -4.093   2.481  24.959  0.00  0.00    +0.048 C 
ATOM      9  C   UNL     1      -4.055   1.710  25.248  0.00  0.00    +0.035 C 
ATOM     10  C   UNL     1      -4.622   1.262  24.853  0.00  0.00    +0.118 C 
ATOM     22  C   UNL     1      -5.012   1.756  24.319  0.00  0.00    -0.009 C 
ATOM     23  C   UNL     1      -4.685   2.510  24.385  0.00  0.00    -0.025 C 
ENDROOT
BRANCH   8   7
ATOM      1  C   UNL     1      -4.497   3.665  26.249  0.00  0.00    +0.054 C 
ATOM      2  C   UNL     1      -3.807   3.659  25.794  0.00  0.00    +0.077 A 
ATOM      3  N   UNL     1      -3.184   4.195  25.852  0.00  0.00    -0.170 NA
ATOM      4  N   UNL     1      -2.613   3.983  25.295  0.00  0.00    -0.234 N 
ATOM      5  C   UNL     1      -2.884   3.315  24.893  0.00  0.00    +0.058 A 
ATOM      6  C   UNL     1      -2.486   2.918  24.289  0.00  0.00    +0.052 C 
ATOM      7  C   UNL     1      -3.623   3.115  25.202  0.00  0.00    +0.010 A 
BRANCH   4  24
ATOM     24  C   UNL     1      -1.896   4.370  25.163  0.00  0.00    +0.082 A 
ATOM     25  C   UNL     1      -1.188   3.951  25.208  0.00  0.00    +0.019 A 
ATOM     26  C   UNL     1      -0.471   4.338  25.076  0.00  0.00    +0.002 A 
ATOM     27  C   UNL     1      -0.463   5.143  24.899  0.00  0.00    +0.000 A 
ATOM     28  C   UNL     1      -1.173   5.563  24.854  0.00  0.00    +0.002 A 
ATOM     29  C   UNL     1      -1.890   5.176  24.986  0.00  0.00    +0.019 A 
ENDBRANCH   4  24
ENDBRANCH   8   7
BRANCH  10  11
ATOM     11  N   UNL     1      -4.775   0.459  24.969  0.00  0.00    -0.203 NA
ATOM     12  C   UNL     1      -4.363  -0.108  24.534  0.00  0.00    +0.242 C 
ATOM     13  O   UNL     1      -3.797   0.127  23.982  0.00  0.00    -0.273 OA
BRANCH  12  14
ATOM     14  C   UNL     1      -4.516  -0.910  24.652  0.00  0.00    +0.087 C 
BRANCH  14  15
ATOM     15  C   UNL     1      -3.919  -1.466  24.531  0.00  0.00    +0.019 C 
ATOM     16  C   UNL     1      -3.647  -1.341  25.300  0.00  0.00    +0.001 C 
ATOM     17  C   UNL     1      -4.190  -1.591  23.762  0.00  0.00    +0.001 C 
BRANCH  15  18
ATOM     18  C   UNL     1      -3.322  -2.022  24.411  0.00  0.00    +0.115 C 
BRANCH  18  19
ATOM     19  C   UNL     1      -3.449  -2.813  24.608  0.00  0.00    +0.365 C 
ATOM     20  O   UNL     1      -3.722  -3.342  24.037  0.00  0.00    -0.246 OA
ATOM     21  O   UNL     1      -3.302  -3.075  25.376  0.00  0.00    -0.246 OA
ENDBRANCH  18  19
ENDBRANCH  15  18
ENDBRANCH  14  15
ENDBRANCH  12  14
ENDBRANCH  10  11
TORSDOF 7
ENDMDL
MODEL 2
REMARK VINA RESULT:     -10.6      1.898      2.622
REMARK  Name = 
REMARK  7 active torsions:
REMARK  status: ('A' for Active; 'I' for Inactive)
REMARK    1  A    between atoms: N_4  and  C_24
REMARK    2  A    between atoms: C_7  and  C_8
REMARK    3  A    between atoms: C_10  and  N_11
REMARK    4  A    between atoms: C_12  and  C_14
REMARK    5  A    between atoms: C_14  and  C_15
REMARK    6  A    between atoms: C_15  and  C_18
REMARK    7  A    between atoms: C_18  and  C_19
REMARK                            x       y       z     vdW  Elec       q    Type
REMARK                         _______ _______ _______ _____ _____    ______ ____
ROOT
ATOM      8  C   UNL     1      -0.631   1.421  25.151  0.00  0.00    +0.048 C 
ATOM      9  C   UNL     1      -1.063   0.809  25.494  0.00  0.00    +0.035 C 
ATOM     10  C   UNL     1      -0.899   0.117  25.079  0.00  0.00    +0.118 C 
ATOM     22  C   UNL     1      -0.364   0.301  24.478  0.00  0.00    -0.009 C 
ATOM     23  C   UNL     1      -0.199   1.107  24.522  0.00  0.00    -0.025 C 
ENDROOT
BRANCH   8   7
ATOM      1  C   UNL     1       0.250   2.093  26.566  0.00  0.00    +0.054 C 
ATOM      2  C   UNL     1      -0.225   2.520  26.042  0.00  0.00    +0.077 A 
ATOM      3  N   UNL     1      -0.379   3.329  26.077  0.00  0.00    -0.170 NA
ATOM      4  N   UNL     1      -0.878   3.521  25.449  0.00  0.00    -0.234 N 
ATOM      5  C   UNL     1      -1.033   2.830  25.026  0.00  0.00    +0.058 A 
ATOM      6  C   UNL     1      -1.509   2.769  24.354  0.00  0.00    +0.052 C 
ATOM      7  C   UNL     1      -0.629   2.210  25.393  0.00  0.00    +0.010 A 
BRANCH   4  24
ATOM     24  C   UNL     1      -1.172   4.272  25.274  0.00  0.00    +0.082 A 
ATOM     25  C   UNL     1      -0.705   4.809  24.856  0.00  0.00    +0.019 A 
ATOM     26  C   UNL     1      -0.998   5.561  24.682  0.00  0.00    +0.002 A 
ATOM     27  C   UNL     1      -1.756   5.774  24.925  0.00  0.00    +0.000 A 
ATOM     28  C   UNL     1      -2.223   5.237  25.343  0.00  0.00    +0.002 A 
ATOM     29  C   UNL     1      -1.930   4.486  25.518  0.00  0.00    +0.019 A 
ENDBRANCH   4  24
ENDBRANCH   8   7
BRANCH  10  11
ATOM     11  N   UNL     1      -1.213  -0.630  25.236  0.00  0.00    -0.203 NA
ATOM     12  C   UNL     1      -1.952  -0.839  24.935  0.00  0.00    +0.242 C 
ATOM     13  O   UNL     1      -2.379  -0.301  24.477  0.00  0.00    -0.273 OA
BRANCH  12  14
ATOM     14  C   UNL     1      -2.266  -1.586  25.092  0.00  0.00    +0.087 C 
BRANCH  14  15
ATOM     15  C   UNL     1      -3.026  -1.777  24.834  0.00  0.00    +0.019 C 
ATOM     16  C   UNL     1      -2.716  -2.042  24.117  0.00  0.00    +0.001 C 
ATOM     17  C   UNL     1      -3.336  -1.512  25.552  0.00  0.00    +0.001 C 
BRANCH  15  18
ATOM     18  C   UNL     1      -3.786  -1.968  24.577  0.00  0.00    +0.115 C 
BRANCH  18  19
ATOM     19  C   UNL     1      -3.954  -2.734  24.319  0.00  0.00    +0.365 C 
ATOM     20  O   UNL     1      -3.758  -3.380  24.793  0.00  0.00    -0.246 OA
ATOM     21  O   UNL     1      -4.319  -2.852  23.589  0.00  0.00    -0.246 OA
ENDBRANCH  18  19
ENDBRANCH  15  18
ENDBRANCH  14  15
ENDBRANCH  12  14
ENDBRANCH  10  11
TORSDOF 7
ENDMDL
MODEL 3
REMARK VINA RESULT:     -10.0      2.667      6.282
REMARK  Name = 
REMARK  7 active torsions:
REMARK  status: ('A' for Active; 'I' for Inactive)
REMARK    1  A    between atoms: N_4  and  C_24
REMARK    2  A    between atoms: C_7  and  C_8
REMARK    3  A    between atoms: C_10  and  N_11
REMARK    4  A    between atoms: C_12  and  C_14
REMARK    5  A    between atoms: C_14  and  C_15
REMARK    6  A    between atoms: C_15  and  C_18
REMARK    7  A    between atoms: C_18  and  C_19
REMARK                            x       y       z     vdW  Elec       q    Type
REMARK                         _______ _______ _______ _____ _____    ______ ____
ROOT
ATOM      8  C   UNL     1      -0.929  -0.017  24.808  0.00  0.00    +0.048 C 
ATOM      9  C   UNL     1      -1.085   0.642  25.278  0.00  0.00    +0.035 C 
ATOM     10  C   UNL     1      -0.522   1.218  25.105  0.00  0.00    +0.118 C 
ATOM     22  C   UNL     1      -0.017   0.915  24.527  0.00  0.00    -0.009 C 
ATOM     23  C   UNL     1      -0.268   0.153  24.343  0.00  0.00    -0.025 C 
ENDROOT
BRANCH   8   7
ATOM      1  C   UNL     1      -0.371  -1.599  25.450  0.00  0.00    +0.054 C 
ATOM      2  C   UNL     1      -1.102  -1.449  25.096  0.00  0.00    +0.077 A 
ATOM      3  N   UNL     1      -1.703  -2.000  24.976  0.00  0.00    -0.170 NA
ATOM      4  N   UNL     1      -2.332  -1.614  24.607  0.00  0.00    -0.234 N 
ATOM      5  C   UNL     1      -2.118  -0.824  24.499  0.00  0.00    +0.058 A 
ATOM      6  C   UNL     1      -2.584  -0.239  24.149  0.00  0.00    +0.052 C 
ATOM      7  C   UNL     1      -1.357  -0.722  24.802  0.00  0.00    +0.010 A 
BRANCH   4  24
ATOM     24  C   UNL     1      -3.049  -1.957  24.384  0.00  0.00    +0.082 A 
ATOM     25  C   UNL     1      -3.650  -1.487  24.070  0.00  0.00    +0.019 A 
ATOM     26  C   UNL     1      -4.367  -1.830  23.847  0.00  0.00    +0.002 A 
ATOM     27  C   UNL     1      -4.482  -2.641  23.938  0.00  0.00    +0.000 A 
ATOM     28  C   UNL     1      -3.880  -3.111  24.253  0.00  0.00    +0.002 A 
ATOM     29  C   UNL     1      -3.163  -2.768  24.476  0.00  0.00    +0.019 A 
ENDBRANCH   4  24
ENDBRANCH   8   7
BRANCH  10  11
ATOM     11  N   UNL     1      -0.471   1.966  25.449  0.00  0.00    -0.203 NA
ATOM     12  C   UNL     1      -0.738   2.629  25.038  0.00  0.00    +0.242 C 
ATOM     13  O   UNL     1      -1.058   2.545  24.282  0.00  0.00    -0.273 OA
BRANCH  12  14
ATOM     14  C   UNL     1      -0.687   3.378  25.382  0.00  0.00    +0.087 C 
BRANCH  14  15
ATOM     15  C   UNL     1      -1.146   3.998  25.091  0.00  0.00    +0.019 C 
ATOM     16  C   UNL     1      -1.756   3.789  25.606  0.00  0.00    +0.001 C 
ATOM     17  C   UNL     1      -0.536   4.208  24.577  0.00  0.00    +0.001 C 
BRANCH  15  18
ATOM     18  C   UNL     1      -1.604   4.619  24.800  0.00  0.00    +0.115 C 
BRANCH  18  19
ATOM     19  C   UNL     1      -1.602   5.349  25.185  0.00  0.00    +0.365 C 
ATOM     20  O   UNL     1      -1.025   5.910  25.002  0.00  0.00    -0.246 OA
ATOM     21  O   UNL     1      -2.178   5.519  25.751  0.00  0.00    -0.246 OA
ENDBRANCH  18  19
ENDBRANCH  15  18
ENDBRANCH  14  15
ENDBRANCH  12  14
ENDBRANCH  10  11
TORSDOF 7
ENDMDL
MODEL 4
REMARK VINA RESULT:      -9.8      1.947      5.696
REMARK  Name = 
REMARK  7 active torsions:
REMARK  status: ('A' for Active; 'I' for Inactive)
REMARK    1  A    between atoms: N_4  and  C_24
REMARK    2  A    between atoms: C_7  and  C_8
REMARK    3  A    between atoms: C_10  and  N_11
REMARK    4  A    between atoms: C_12  and  C_14
REMARK    5  A    between atoms: C_14  and  C_15
REMARK    6  A    between atoms: C_15  and  C_18
REMARK    7  A    between atoms: C_18  and  C_19
REMARK                            x       y       z     vdW  Elec       q    Type
REMARK                         _______ _______ _______ _____ _____    ______ ____
ROOT
ATOM      8  C   UNL     1      -4.146   1.575  24.501  0.00  0.00    +0.048 C 
ATOM      9  C   UNL     1      -3.792   2.090  25.038  0.00  0.00    +0.035 C 
ATOM     10  C   UNL     1      -3.698   2.820  24.668  0.00  0.00    +0.118 C 
ATOM     22  C   UNL     1      -3.995   2.756  23.900  0.00  0.00    -0.009 C 
ATOM     23  C   UNL     1      -4.271   1.987  23.797  0.00  0.00    -0.025 C 
ENDROOT
BRANCH   8   7
ATOM      1  C   UNL     1      -5.615   0.983  25.348  0.00  0.00    +0.054 C 
ATOM      2  C   UNL     1      -5.015   0.512  25.030  0.00  0.00    +0.077 A 
ATOM      3  N   UNL     1      -4.986  -0.311  25.045  0.00  0.00    -0.170 NA
ATOM      4  N   UNL     1      -4.293  -0.549  24.666  0.00  0.00    -0.234 N 
ATOM      5  C   UNL     1      -3.894   0.129  24.416  0.00  0.00    +0.058 A 
ATOM      6  C   UNL     1      -3.174   0.147  24.012  0.00  0.00    +0.052 C 
ATOM      7  C   UNL     1      -4.341   0.785  24.641  0.00  0.00    +0.010 A 
BRANCH   4  24
ATOM     24  C   UNL     1      -4.042  -1.328  24.555  0.00  0.00    +0.082 A 
ATOM     25  C   UNL     1      -3.546  -1.683  25.110  0.00  0.00    +0.019 A 
ATOM     26  C   UNL     1      -3.295  -2.461  25.000  0.00  0.00    +0.002 A 
ATOM     27  C   UNL     1      -3.541  -2.884  24.336  0.00  0.00    +0.000 A 
ATOM     28  C   UNL     1      -4.038  -2.528  23.781  0.00  0.00    +0.002 A 
ATOM     29  C   UNL     1      -4.288  -1.749  23.891  0.00  0.00    +0.019 A 
ENDBRANCH   4  24
ENDBRANCH   8   7
BRANCH  10  11
ATOM     11  N   UNL     1      -3.367   3.497  25.004  0.00  0.00    -0.203 NA
ATOM     12  C   UNL     1      -2.549   3.552  25.100  0.00  0.00    +0.242 C 
ATOM     13  O   UNL     1      -2.062   2.932  24.860  0.00  0.00    -0.273 OA
BRANCH  12  14
ATOM     14  C   UNL     1      -2.218   4.230  25.436  0.00  0.00    +0.087 C 
BRANCH  14  15
ATOM     15  C   UNL     1      -1.443   4.444  25.254  0.00  0.00    +0.019 C 
ATOM     16  C   UNL     1      -1.163   3.907  25.814  0.00  0.00    +0.001 C 
ATOM     17  C   UNL     1      -1.723   4.981  24.694  0.00  0.00    +0.001 C 
BRANCH  15  18
ATOM     18  C   UNL     1      -0.667   4.659  25.072  0.00  0.00    +0.115 C 
BRANCH  18  19
ATOM     19  C   UNL     1      -0.521   5.339  24.628  0.00  0.00    +0.365 C 
ATOM     20  O   UNL     1      -0.739   6.078  24.922  0.00  0.00    -0.246 OA
ATOM     21  O   UNL     1      -0.156   5.279  23.891  0.00  0.00    -0.246 OA
ENDBRANCH  18  19
ENDBRANCH  15  18
ENDBRANCH  14  15
ENDBRANCH  12  14
ENDBRANCH  10  11
TORSDOF 7
ENDMDL
