REMARK  Name = 
REMARK  7 active torsions:
REMARK  status: ('A' for Active; 'I' for Inactive)
REMARK    1  A    between atoms: C_7  and  C_8
REMARK    2  A    between atoms: N_10  and  C_11
REMARK    3  A    between atoms: C_14  and  C_17
REMARK    4  A    between atoms: C_17  and  C_19
REMARK    5  A    between atoms: N_25  and  C_26
REMARK    6  A    between atoms: C_26  and  C_27
REMARK    7  A    between atoms: C_30  and  C_33
REMARK                            x       y       z     vdW  Elec       q    Type
REMARK                         _______ _______ _______ _____ _____    ______ ____
ROOT
ATOM     17  C   UNL     1      -9.384   0.053   0.000  0.00  0.00    +0.195 C 
ATOM     18  O   UNL     1      -9.555   0.860   0.000  0.00  0.00    -0.216 OA
ENDROOT
BRANCH  17  19
ATOM     19  C   UNL     1      -9.997  -0.499   0.000  0.00  0.00    +0.140 C 
ATOM     20  C   UNL     1     -10.781  -0.244   0.000  0.00  0.00    +0.165 C 
ATOM     21  O   UNL     1     -11.395  -0.796   0.000  0.00  0.00    -0.343 OA
ATOM     22  C   UNL     1     -11.223  -1.603   0.000  0.00  0.00    +0.227 C 
ATOM     23  C   UNL     1     -10.438  -1.858   0.000  0.00  0.00    +0.256 C 
ATOM     24  O   UNL     1     -10.267  -2.665   0.000  0.00  0.00    -0.272 OA
ATOM     25  N   UNL     1      -9.825  -1.306   0.000  0.00  0.00    -0.270 N 
BRANCH  25  26
ATOM     26  C   UNL     1      -9.041  -1.561   0.000  0.00  0.00    +0.120 C 
BRANCH  26  27
ATOM     27  C   UNL     1      -8.869  -2.368   0.000  0.00  0.00    -0.002 A 
ATOM     28  C   UNL     1      -8.085  -2.623   0.000  0.00  0.00    -0.003 A 
ATOM     29  C   UNL     1      -7.913  -3.430   0.000  0.00  0.00    +0.004 A 
ATOM     30  C   UNL     1      -8.526  -3.982   0.000  0.00  0.00    +0.071 A 
ATOM     31  C   UNL     1      -9.311  -3.727   0.000  0.00  0.00    +0.004 A 
ATOM     32  C   UNL     1      -9.482  -2.920   0.000  0.00  0.00    -0.003 A 
BRANCH  30  33
ATOM     33  C   UNL     1      -8.355  -4.789   0.000  0.00  0.00    +0.419 C 
ATOM     34  F   UNL     1      -8.183  -5.596   0.000  0.00  0.00    -0.166 F 
ATOM     35  F   UNL     1      -9.162  -4.960   0.000  0.00  0.00    -0.166 F 
ATOM     36  F   UNL     1      -7.548  -4.617   0.000  0.00  0.00    -0.166 F 
ENDBRANCH  30  33
ENDBRANCH  26  27
ENDBRANCH  25  26
ENDBRANCH  17  19
BRANCH  17  14
ATOM     11  C   UNL     1      -7.030  -0.712   0.000  0.00  0.00    +0.074 A 
ATOM     12  C   UNL     1      -7.643  -1.264   0.000  0.00  0.00    +0.016 A 
ATOM     13  C   UNL     1      -8.428  -1.009   0.000  0.00  0.00    -0.000 A 
ATOM     14  C   UNL     1      -8.599  -0.202   0.000  0.00  0.00    +0.010 A 
ATOM     15  C   UNL     1      -7.986   0.350   0.000  0.00  0.00    -0.000 A 
ATOM     16  C   UNL     1      -7.201   0.095   0.000  0.00  0.00    +0.016 A 
BRANCH  11  10
ATOM      8  C   UNL     1      -5.632  -0.415   0.000  0.00  0.00    +0.286 C 
ATOM      9  O   UNL     1      -5.804   0.392   0.000  0.00  0.00    -0.266 OA
ATOM     10  N   UNL     1      -6.245  -0.967   0.000  0.00  0.00    -0.174 NA
BRANCH   8   7
ATOM      1  C   UNL     1      -4.180   0.640   0.000  0.00  0.00    +0.154 C 
ATOM      2  N   UNL     1      -4.180  -0.185   0.000  0.00  0.00    -0.245 N 
ATOM      3  N   UNL     1      -3.513  -0.670   0.000  0.00  0.00    -0.173 NA
ATOM      4  C   UNL     1      -3.768  -1.454   0.000  0.00  0.00    +0.081 A 
ATOM      5  C   UNL     1      -3.283  -2.122   0.000  0.00  0.00    +0.054 C 
ATOM      6  C   UNL     1      -4.593  -1.454   0.000  0.00  0.00    +0.040 A 
ATOM      7  C   UNL     1      -4.848  -0.670   0.000  0.00  0.00    +0.134 A 
ENDBRANCH   8   7
ENDBRANCH  11  10
ENDBRANCH  17  14
TORSDOF 7
