MODEL 1
REMARK VINA RESULT:     -11.6      0.000      0.000
REMARK  Name = 
REMARK  6 active torsions:
REMARK  status: ('A' for Active; 'I' for Inactive)
REMARK    1  A    between atoms: C_5  and  N_8
REMARK    2  A    between atoms: N_8  and  C_9
REMARK    3  A    between atoms: C_9  and  C_10
REMARK    4  A    between atoms: C_12  and  C_13
REMARK    5  A    between atoms: C_13  and  C_14
REMARK    6  A    between atoms: C_17  and  C_19
REMARK                            x       y       z     vdW  Elec       q    Type
REMARK                         _______ _______ _______ _____ _____    ______ ____
ROOT
ATOM     10  C   UNL     1      -5.070   1.653  25.184  0.00  0.00    +0.163 C 
ATOM     11  O   UNL     1      -4.506   2.198  24.927  0.00  0.00    -0.354 OA
ATOM     12  C   UNL     1      -4.629   3.005  25.046  0.00  0.00    +0.121 C 
ATOM     25  C   UNL     1      -5.315   3.267  25.422  0.00  0.00    +0.033 C 
ATOM     26  C   UNL     1      -5.878   2.723  25.679  0.00  0.00    +0.038 C 
ATOM     27  C   UNL     1      -5.756   1.915  25.560  0.00  0.00    +0.180 C 
ATOM     28  O   UNL     1      -6.320   1.370  25.818  0.00  0.00    -0.220 OA
ENDROOT
BRANCH  10   9
ATOM      9  C   UNL     1      -4.948   0.846  25.066  0.00  0.00    +0.121 C 
BRANCH   9   8
ATOM      8  N   UNL     1      -4.224   0.576  24.775  0.00  0.00    -0.217 NA
BRANCH   8   5
ATOM      1  C   UNL     1      -3.589  -2.661  24.672  0.00  0.00    +0.090 C 
ATOM      2  N   UNL     1      -3.748  -1.852  24.697  0.00  0.00    -0.271 NA
ATOM      3  C   UNL     1      -4.126  -1.485  24.063  0.00  0.00    +0.074 C 
ATOM      4  C   UNL     1      -4.285  -0.676  24.088  0.00  0.00    +0.035 C 
ATOM      5  C   UNL     1      -4.065  -0.233  24.749  0.00  0.00    +0.076 C 
ATOM      6  C   UNL     1      -3.686  -0.600  25.384  0.00  0.00    +0.035 C 
ATOM      7  C   UNL     1      -3.527  -1.408  25.358  0.00  0.00    +0.074 C 
ENDBRANCH   8   5
ENDBRANCH   9   8
ENDBRANCH  10   9
BRANCH  12  13
ATOM     13  C   UNL     1      -4.066   3.549  24.789  0.00  0.00    +0.079 C 
BRANCH  13  14
ATOM     14  C   UNL     1      -3.360   3.642  25.208  0.00  0.00    +0.103 A 
ATOM     15  N   UNL     1      -3.250   4.118  25.872  0.00  0.00    -0.081 NA
ATOM     16  O   UNL     1      -2.463   4.045  26.111  0.00  0.00    -0.354 OA
ATOM     17  C   UNL     1      -2.087   3.524  25.593  0.00  0.00    +0.177 A 
ATOM     18  C   UNL     1      -2.642   3.275  25.035  0.00  0.00    +0.058 A 
BRANCH  17  19
ATOM     19  C   UNL     1      -1.296   3.293  25.627  0.00  0.00    +0.037 A 
ATOM     20  C   UNL     1      -1.065   2.689  26.139  0.00  0.00    +0.003 A 
ATOM     21  C   UNL     1      -0.273   2.458  26.174  0.00  0.00    +0.000 A 
ATOM     22  C   UNL     1       0.286   2.832  25.696  0.00  0.00    +0.000 A 
ATOM     23  C   UNL     1       0.055   3.435  25.184  0.00  0.00    +0.000 A 
ATOM     24  C   UNL     1      -0.737   3.667  25.150  0.00  0.00    +0.003 A 
ENDBRANCH  17  19
ENDBRANCH  13  14
ENDBRANCH  12  13
TORSDOF 6
ENDMDL
MODEL 2
REMARK VINA RESULT:     -11.3      1.459      4.375
REMARK  Name = 
REMARK  6 active torsions:
REMARK  status: ('A' for Active; 'I' for Inactive)
REMARK    1  A    between atoms: C_5  and  N_8
REMARK    2  A    between atoms: N_8  and  C_9
REMARK    3  A    between atoms: C_9  and  C_10
REMARK    4  A    between atoms: C_12  and  C_13
REMARK    5  A    between atoms: C_13  and  C_14
REMARK    6  A    between atoms: C_17  and  C_19
REMARK                            x       y       z     vdW  Elec       q    Type
REMARK                         _______ _______ _______ _____ _____    ______ ____
ROOT
ATOM     10  C   UNL     1      -2.861   3.058  25.106  0.00  0.00    +0.163 C 
ATOM     11  O   UNL     1      -3.327   2.474  24.756  0.00  0.00    -0.354 OA
ATOM     12  C   UNL     1      -4.147   2.498  24.836  0.00  0.00    +0.121 C 
ATOM     25  C   UNL     1      -4.502   3.105  25.268  0.00  0.00    +0.033 C 
ATOM     26  C   UNL     1      -4.037   3.689  25.618  0.00  0.00    +0.038 C 
ATOM     27  C   UNL     1      -3.216   3.665  25.538  0.00  0.00    +0.180 C 
ATOM     28  O   UNL     1      -2.751   4.249  25.888  0.00  0.00    -0.220 OA
ENDROOT
BRANCH  10   9
ATOM      9  C   UNL     1      -2.041   3.035  25.026  0.00  0.00    +0.121 C 
BRANCH   9   8
ATOM      8  N   UNL     1      -1.612   2.407  25.345  0.00  0.00    -0.217 NA
BRANCH   8   5
ATOM      1  C   UNL     1       1.147   1.365  23.863  0.00  0.00    +0.090 C 
ATOM      2  N   UNL     1       0.457   1.626  24.234  0.00  0.00    -0.271 NA
ATOM      3  C   UNL     1       0.350   2.429  24.388  0.00  0.00    +0.074 C 
ATOM      4  C   UNL     1      -0.340   2.690  24.758  0.00  0.00    +0.035 C 
ATOM      5  C   UNL     1      -0.923   2.147  24.975  0.00  0.00    +0.076 C 
ATOM      6  C   UNL     1      -0.814   1.343  24.821  0.00  0.00    +0.035 C 
ATOM      7  C   UNL     1      -0.125   1.083  24.451  0.00  0.00    +0.074 C 
ENDBRANCH   8   5
ENDBRANCH   9   8
ENDBRANCH  10   9
BRANCH  12  13
ATOM     13  C   UNL     1      -4.613   1.914  24.486  0.00  0.00    +0.079 C 
BRANCH  13  14
ATOM     14  C   UNL     1      -4.587   1.139  24.771  0.00  0.00    +0.103 A 
ATOM     15  N   UNL     1      -4.907   0.875  25.483  0.00  0.00    -0.081 NA
ATOM     16  O   UNL     1      -4.755   0.066  25.545  0.00  0.00    -0.354 OA
ATOM     17  C   UNL     1      -4.341  -0.168  24.871  0.00  0.00    +0.177 A 
ATOM     18  C   UNL     1      -4.237   0.496  24.392  0.00  0.00    +0.058 A 
BRANCH  17  19
ATOM     19  C   UNL     1      -4.077  -0.933  24.705  0.00  0.00    +0.037 A 
ATOM     20  C   UNL     1      -3.539  -1.301  25.209  0.00  0.00    +0.003 A 
ATOM     21  C   UNL     1      -3.275  -2.066  25.043  0.00  0.00    +0.000 A 
ATOM     22  C   UNL     1      -3.551  -2.460  24.373  0.00  0.00    +0.000 A 
ATOM     23  C   UNL     1      -4.089  -2.091  23.869  0.00  0.00    +0.000 A 
ATOM     24  C   UNL     1      -4.353  -1.327  24.035  0.00  0.00    +0.003 A 
ENDBRANCH  17  19
ENDBRANCH  13  14
ENDBRANCH  12  13
TORSDOF 6
ENDMDL
MODEL 3
REMARK VINA RESULT:     -11.2      1.398      4.328
REMARK  Name = 
REMARK  6 active torsions:
REMARK  status: ('A' for Active; 'I' for Inactive)
REMARK    1  A    between atoms: C_5  and  N_8
REMARK    2  A    between atoms: N_8  and  C_9
REMARK    3  A    between atoms: C_9  and  C_10
REMARK    4  A    between atoms: C_12  and  C_13
REMARK    5  A    between atoms: C_13  and  C_14
REMARK    6  A    between atoms: C_17  and  C_19
REMARK                            x       y       z     vdW  Elec       q    Type
REMARK                         _______ _______ _______ _____ _____    ______ ____
ROOT
ATOM     10  C   UNL     1      -4.485   2.662  25.110  0.00  0.00    +0.163 C 
ATOM     11  O   UNL     1      -4.308   1.929  24.776  0.00  0.00    -0.354 OA
ATOM     12  C   UNL     1      -4.884   1.340  24.744  0.00  0.00    +0.121 C 
ATOM     25  C   UNL     1      -5.639   1.484  25.045  0.00  0.00    +0.033 C 
ATOM     26  C   UNL     1      -5.817   2.217  25.379  0.00  0.00    +0.038 C 
ATOM     27  C   UNL     1      -5.239   2.807  25.411  0.00  0.00    +0.180 C 
ATOM     28  O   UNL     1      -5.417   3.540  25.745  0.00  0.00    -0.220 OA
ENDROOT
BRANCH  10   9
ATOM      9  C   UNL     1      -3.909   3.251  25.143  0.00  0.00    +0.121 C 
BRANCH   9   8
ATOM      8  N   UNL     1      -3.177   3.094  25.490  0.00  0.00    -0.217 NA
BRANCH   8   5
ATOM      1  C   UNL     1      -0.587   5.032  24.835  0.00  0.00    +0.090 C 
ATOM      2  N   UNL     1      -1.234   4.547  24.999  0.00  0.00    -0.271 NA
ATOM      3  C   UNL     1      -1.217   3.750  24.788  0.00  0.00    +0.074 C 
ATOM      4  C   UNL     1      -1.864   3.265  24.951  0.00  0.00    +0.035 C 
ATOM      5  C   UNL     1      -2.530   3.578  25.327  0.00  0.00    +0.076 C 
ATOM      6  C   UNL     1      -2.547   4.376  25.537  0.00  0.00    +0.035 C 
ATOM      7  C   UNL     1      -1.900   4.860  25.374  0.00  0.00    +0.074 C 
ENDBRANCH   8   5
ENDBRANCH   9   8
ENDBRANCH  10   9
BRANCH  12  13
ATOM     13  C   UNL     1      -4.707   0.607  24.410  0.00  0.00    +0.079 C 
BRANCH  13  14
ATOM     14  C   UNL     1      -4.197   0.088  24.801  0.00  0.00    +0.103 A 
ATOM     15  N   UNL     1      -4.344  -0.283  25.522  0.00  0.00    -0.081 NA
ATOM     16  O   UNL     1      -3.690  -0.751  25.706  0.00  0.00    -0.354 OA
ATOM     17  C   UNL     1      -3.139  -0.669  25.098  0.00  0.00    +0.177 A 
ATOM     18  C   UNL     1      -3.453  -0.150  24.538  0.00  0.00    +0.058 A 
BRANCH  17  19
ATOM     19  C   UNL     1      -2.403  -1.040  25.056  0.00  0.00    +0.037 A 
ATOM     20  C   UNL     1      -1.741  -0.682  25.394  0.00  0.00    +0.003 A 
ATOM     21  C   UNL     1      -1.005  -1.054  25.352  0.00  0.00    +0.000 A 
ATOM     22  C   UNL     1      -0.933  -1.783  24.973  0.00  0.00    +0.000 A 
ATOM     23  C   UNL     1      -1.595  -2.140  24.636  0.00  0.00    +0.000 A 
ATOM     24  C   UNL     1      -2.331  -1.769  24.677  0.00  0.00    +0.003 A 
ENDBRANCH  17  19
ENDBRANCH  13  14
ENDBRANCH  12  13
TORSDOF 6
ENDMDL
MODEL 4
REMARK VINA RESULT:     -11.2      1.790      5.101
REMARK  Name = 
REMARK  6 active torsions:
REMARK  status: ('A' for Active; 'I' for Inactive)
REMARK    1  A    between atoms: C_5  and  N_8
REMARK    2  A    between atoms: N_8  and  C_9
REMARK    3  A    between atoms: C_9  and  C_10
REMARK    4  A    between atoms: C_12  and  C_13
REMARK    5  A    between atoms: C_13  and  C_14
REMARK    6  A    between atoms: C_17  and  C_19
REMARK                            x       y       z     vdW  Elec       q    Type
REMARK                         _______ _______ _______ _____ _____    ______ ____
ROOT
ATOM     10  C   UNL     1      -1.539   2.228  25.025  0.00  0.00    +0.163 C 
ATOM     11  O   UNL     1      -1.591   1.464  25.331  0.00  0.00    -0.354 OA
ATOM     12  C   UNL     1      -0.932   0.968  25.318  0.00  0.00    +0.121 C 
ATOM     25  C   UNL     1      -0.221   1.237  24.999  0.00  0.00    +0.033 C 
ATOM     26  C   UNL     1      -0.168   2.000  24.692  0.00  0.00    +0.038 C 
ATOM     27  C   UNL     1      -0.828   2.497  24.705  0.00  0.00    +0.180 C 
ATOM     28  O   UNL     1      -0.775   3.261  24.399  0.00  0.00    -0.220 OA
ENDROOT
BRANCH  10   9
ATOM      9  C   UNL     1      -2.198   2.724  25.038  0.00  0.00    +0.121 C 
BRANCH   9   8
ATOM      8  N   UNL     1      -2.880   2.516  24.623  0.00  0.00    -0.217 NA
BRANCH   8   5
ATOM      1  C   UNL     1      -5.825   3.619  25.622  0.00  0.00    +0.090 C 
ATOM      2  N   UNL     1      -5.089   3.342  25.372  0.00  0.00    -0.271 NA
ATOM      3  C   UNL     1      -5.016   2.579  25.069  0.00  0.00    +0.074 C 
ATOM      4  C   UNL     1      -4.279   2.303  24.819  0.00  0.00    +0.035 C 
ATOM      5  C   UNL     1      -3.616   2.791  24.873  0.00  0.00    +0.076 C 
ATOM      6  C   UNL     1      -3.690   3.555  25.176  0.00  0.00    +0.035 C 
ATOM      7  C   UNL     1      -4.425   3.831  25.426  0.00  0.00    +0.074 C 
ENDBRANCH   8   5
ENDBRANCH   9   8
ENDBRANCH  10   9
BRANCH  12  13
ATOM     13  C   UNL     1      -0.984   0.204  25.624  0.00  0.00    +0.079 C 
BRANCH  13  14
ATOM     14  C   UNL     1      -1.300  -0.404  25.164  0.00  0.00    +0.103 A 
ATOM     15  N   UNL     1      -0.886  -0.866  24.622  0.00  0.00    -0.081 NA
ATOM     16  O   UNL     1      -1.416  -1.405  24.289  0.00  0.00    -0.354 OA
ATOM     17  C   UNL     1      -2.157  -1.274  24.625  0.00  0.00    +0.177 A 
ATOM     18  C   UNL     1      -2.086  -0.655  25.167  0.00  0.00    +0.058 A 
BRANCH  17  19
ATOM     19  C   UNL     1      -2.849  -1.689  24.451  0.00  0.00    +0.037 A 
ATOM     20  C   UNL     1      -3.486  -1.300  24.100  0.00  0.00    +0.003 A 
ATOM     21  C   UNL     1      -4.177  -1.715  23.925  0.00  0.00    +0.000 A 
ATOM     22  C   UNL     1      -4.231  -2.520  24.102  0.00  0.00    +0.000 A 
ATOM     23  C   UNL     1      -3.594  -2.908  24.453  0.00  0.00    +0.000 A 
ATOM     24  C   UNL     1      -2.902  -2.493  24.628  0.00  0.00    +0.003 A 
ENDBRANCH  17  19
ENDBRANCH  13  14
ENDBRANCH  12  13
TORSDOF 6
ENDMDL
MODEL 5
REMARK VINA RESULT:     -11.0      1.705      3.911
REMARK  Name = 
REMARK  6 active torsions:
REMARK  status: ('A' for Active; 'I' for Inactive)
REMARK    1  A    between atoms: C_5  and  N_8
REMARK    2  A    between atoms: N_8  and  C_9
REMARK    3  A    between atoms: C_9  and  C_10
REMARK    4  A    between atoms: C_12  and  C_13
REMARK    5  A    between atoms: C_13  and  C_14
REMARK    6  A    between atoms: C_17  and  C_19
REMARK                            x       y       z     vdW  Elec       q    Type
REMARK                         _______ _______ _______ _____ _____    ______ ____
ROOT
ATOM     10  C   UNL     1      -0.642   1.933  24.921  0.00  0.00    +0.163 C 
ATOM     11  O   UNL     1      -1.265   2.321  25.299  0.00  0.00    -0.354 OA
ATOM     12  C   UNL     1      -1.279   3.145  25.334  0.00  0.00    +0.121 C 
ATOM     25  C   UNL     1      -0.669   3.582  24.991  0.00  0.00    +0.033 C 
ATOM     26  C   UNL     1      -0.046   3.195  24.613  0.00  0.00    +0.038 C 
ATOM     27  C   UNL     1      -0.033   2.371  24.578  0.00  0.00    +0.180 C 
ATOM     28  O   UNL     1       0.591   1.984  24.201  0.00  0.00    -0.220 OA
ENDROOT
BRANCH  10   9
ATOM      9  C   UNL     1      -0.629   1.110  24.886  0.00  0.00    +0.121 C 
BRANCH   9   8
ATOM      8  N   UNL     1      -1.134   0.668  25.366  0.00  0.00    -0.217 NA
BRANCH   8   5
ATOM      1  C   UNL     1      -1.799  -2.476  24.612  0.00  0.00    +0.090 C 
ATOM      2  N   UNL     1      -1.634  -1.689  24.800  0.00  0.00    -0.271 NA
ATOM      3  C   UNL     1      -2.198  -1.104  24.664  0.00  0.00    +0.074 C 
ATOM      4  C   UNL     1      -2.032  -0.318  24.853  0.00  0.00    +0.035 C 
ATOM      5  C   UNL     1      -1.300  -0.118  25.178  0.00  0.00    +0.076 C 
ATOM      6  C   UNL     1      -0.735  -0.704  25.314  0.00  0.00    +0.035 C 
ATOM      7  C   UNL     1      -0.901  -1.489  25.126  0.00  0.00    +0.074 C 
ENDBRANCH   8   5
ENDBRANCH   9   8
ENDBRANCH  10   9
BRANCH  12  13
ATOM     13  C   UNL     1      -1.901   3.531  25.711  0.00  0.00    +0.079 C 
BRANCH  13  14
ATOM     14  C   UNL     1      -2.658   3.517  25.380  0.00  0.00    +0.103 A 
ATOM     15  N   UNL     1      -2.919   3.979  24.750  0.00  0.00    -0.081 NA
ATOM     16  O   UNL     1      -3.708   3.785  24.602  0.00  0.00    -0.354 OA
ATOM     17  C   UNL     1      -3.933   3.203  25.141  0.00  0.00    +0.177 A 
ATOM     18  C   UNL     1      -3.283   3.037  25.623  0.00  0.00    +0.058 A 
BRANCH  17  19
ATOM     19  C   UNL     1      -4.677   2.849  25.191  0.00  0.00    +0.037 A 
ATOM     20  C   UNL     1      -5.249   3.161  25.696  0.00  0.00    +0.003 A 
ATOM     21  C   UNL     1      -5.993   2.807  25.745  0.00  0.00    +0.000 A 
ATOM     22  C   UNL     1      -6.163   2.140  25.289  0.00  0.00    +0.000 A 
ATOM     23  C   UNL     1      -5.591   1.829  24.784  0.00  0.00    +0.000 A 
ATOM     24  C   UNL     1      -4.847   2.183  24.735  0.00  0.00    +0.003 A 
ENDBRANCH  17  19
ENDBRANCH  13  14
ENDBRANCH  12  13
TORSDOF 6
ENDMDL
MODEL 6
REMARK VINA RESULT:      -8.5     16.017     18.997
REMARK  Name = 
REMARK  6 active torsions:
REMARK  status: ('A' for Active; 'I' for Inactive)
REMARK    1  A    between atoms: C_5  and  N_8
REMARK    2  A    between atoms: N_8  and  C_9
REMARK    3  A    between atoms: C_9  and  C_10
REMARK    4  A    between atoms: C_12  and  C_13
REMARK    5  A    between atoms: C_13  and  C_14
REMARK    6  A    between atoms: C_17  and  C_19
REMARK                            x       y       z     vdW  Elec       q    Type
REMARK                         _______ _______ _______ _____ _____    ______ ____
ROOT
ATOM     10  C   UNL     1      14.102   7.841  18.073  0.00  0.00    +0.163 C 
ATOM     11  O   UNL     1      13.556   8.310  18.477  0.00  0.00    -0.354 OA
ATOM     12  C   UNL     1      12.906   8.624  18.078  0.00  0.00    +0.121 C 
ATOM     25  C   UNL     1      12.801   8.468  17.275  0.00  0.00    +0.033 C 
ATOM     26  C   UNL     1      13.346   7.999  16.870  0.00  0.00    +0.038 C 
ATOM     27  C   UNL     1      13.997   7.686  17.270  0.00  0.00    +0.180 C 
ATOM     28  O   UNL     1      14.542   7.217  16.866  0.00  0.00    -0.220 OA
ENDROOT
BRANCH  10   9
ATOM      9  C   UNL     1      14.752   7.528  18.472  0.00  0.00    +0.121 C 
BRANCH   9   8
ATOM      8  N   UNL     1      14.639   7.007  19.102  0.00  0.00    -0.217 NA
BRANCH   8   5
ATOM      1  C   UNL     1      17.078   6.461  21.256  0.00  0.00    +0.090 C 
ATOM      2  N   UNL     1      16.468   6.597  20.717  0.00  0.00    -0.271 NA
ATOM      3  C   UNL     1      16.577   6.423  19.919  0.00  0.00    +0.074 C 
ATOM      4  C   UNL     1      15.967   6.559  19.379  0.00  0.00    +0.035 C 
ATOM      5  C   UNL     1      15.248   6.870  19.640  0.00  0.00    +0.076 C 
ATOM      6  C   UNL     1      15.140   7.045  20.439  0.00  0.00    +0.035 C 
ATOM      7  C   UNL     1      15.749   6.908  20.978  0.00  0.00    +0.074 C 
ENDBRANCH   8   5
ENDBRANCH   9   8
ENDBRANCH  10   9
BRANCH  12  13
ATOM     13  C   UNL     1      12.361   9.092  18.481  0.00  0.00    +0.079 C 
BRANCH  13  14
ATOM     14  C   UNL     1      11.800   8.740  18.976  0.00  0.00    +0.103 A 
ATOM     15  N   UNL     1      11.122   8.341  18.731  0.00  0.00    -0.081 NA
ATOM     16  O   UNL     1      10.723   8.081  19.405  0.00  0.00    -0.354 OA
ATOM     17  C   UNL     1      11.155   8.320  20.066  0.00  0.00    +0.177 A 
ATOM     18  C   UNL     1      11.822   8.728  19.800  0.00  0.00    +0.058 A 
BRANCH  17  19
ATOM     19  C   UNL     1      10.956   8.176  20.854  0.00  0.00    +0.037 A 
ATOM     20  C   UNL     1      10.959   7.405  21.145  0.00  0.00    +0.003 A 
ATOM     21  C   UNL     1      10.760   7.261  21.933  0.00  0.00    +0.000 A 
ATOM     22  C   UNL     1      10.558   7.890  22.428  0.00  0.00    +0.000 A 
ATOM     23  C   UNL     1      10.555   8.660  22.136  0.00  0.00    +0.000 A 
ATOM     24  C   UNL     1      10.754   8.804  21.348  0.00  0.00    +0.003 A 
ENDBRANCH  17  19
ENDBRANCH  13  14
ENDBRANCH  12  13
TORSDOF 6
ENDMDL
