MODEL 1
REMARK VINA RESULT:     -10.9      0.000      0.000
REMARK  Name = 
REMARK  7 active torsions:
REMARK  status: ('A' for Active; 'I' for Inactive)
REMARK    1  A    between atoms: O_2  and  C_3
REMARK    2  A    between atoms: C_8  and  C_10
REMARK    3  A    between atoms: N_12  and  C_13
REMARK    4  A    between atoms: C_13  and  C_14
REMARK    5  A    between atoms: C_16  and  C_17
REMARK    6  A    between atoms: C_21  and  N_22
REMARK    7  A    between atoms: N_25  and  C_28
REMARK                            x       y       z     vdW  Elec       q    Type
REMARK                         _______ _______ _______ _____ _____    ______ ____
ROOT
ATOM     14  C   UNL     1      -4.553   1.634  25.025  0.00  0.00    +0.154 C 
ATOM     15  O   UNL     1      -5.336   1.389  25.110  0.00  0.00    -0.350 OA
ATOM     16  C   UNL     1      -5.797   2.055  25.265  0.00  0.00    +0.180 C 
ATOM     19  C   UNL     1      -5.299   2.713  25.276  0.00  0.00    +0.198 C 
ATOM     20  O   UNL     1      -5.529   3.493  25.411  0.00  0.00    -0.219 OA
ATOM     21  C   UNL     1      -4.530   2.453  25.127  0.00  0.00    +0.120 C 
ENDROOT
BRANCH  21  22
ATOM     22  N   UNL     1      -3.856   2.928  25.088  0.00  0.00    -0.267 NA
ATOM     23  C   UNL     1      -3.612   3.238  24.363  0.00  0.00    +0.094 C 
ATOM     24  C   UNL     1      -2.939   3.712  24.325  0.00  0.00    +0.108 C 
ATOM     25  N   UNL     1      -2.510   3.877  25.010  0.00  0.00    -0.305 N 
ATOM     26  C   UNL     1      -2.754   3.567  25.734  0.00  0.00    +0.108 C 
ATOM     27  C   UNL     1      -3.428   3.092  25.774  0.00  0.00    +0.094 C 
BRANCH  25  28
ATOM     28  C   UNL     1      -1.837   4.352  24.971  0.00  0.00    +0.048 A 
ATOM     29  C   UNL     1      -1.904   5.170  25.052  0.00  0.00    +0.015 A 
ATOM     30  C   UNL     1      -1.230   5.645  25.014  0.00  0.00    +0.001 A 
ATOM     31  C   UNL     1      -0.489   5.302  24.894  0.00  0.00    +0.000 A 
ATOM     32  C   UNL     1      -0.422   4.484  24.813  0.00  0.00    +0.001 A 
ATOM     33  C   UNL     1      -1.096   4.009  24.852  0.00  0.00    +0.015 A 
ENDBRANCH  25  28
ENDBRANCH  21  22
BRANCH  16  17
ATOM     17  C   UNL     1      -6.613   2.063  25.387  0.00  0.00    +0.214 C 
ATOM     18  O   UNL     1      -7.112   1.670  24.860  0.00  0.00    -0.218 OA
ENDBRANCH  16  17
BRANCH  14  13
ATOM     13  C   UNL     1      -3.908   1.147  24.866  0.00  0.00    +0.146 C 
BRANCH  13  12
ATOM     10  C   UNL     1      -3.346  -0.160  24.733  0.00  0.00    +0.266 C 
ATOM     11  O   UNL     1      -2.612   0.173  24.559  0.00  0.00    -0.268 OA
ATOM     12  N   UNL     1      -3.994   0.327  24.887  0.00  0.00    -0.199 NA
BRANCH  10   8
ATOM      3  C   UNL     1      -3.936  -2.186  24.177  0.00  0.00    +0.139 A 
ATOM      4  C   UNL     1      -3.607  -2.620  24.795  0.00  0.00    +0.038 A 
ATOM      5  C   UNL     1      -3.189  -2.234  25.394  0.00  0.00    +0.015 A 
ATOM      6  C   UNL     1      -3.103  -1.414  25.373  0.00  0.00    +0.062 A 
ATOM      7 CL   UNL     1      -2.686  -1.028  25.972  0.00  0.00    -0.082 Cl
ATOM      8  C   UNL     1      -3.432  -0.980  24.754  0.00  0.00    +0.069 A 
ATOM      9  C   UNL     1      -3.850  -1.366  24.155  0.00  0.00    +0.042 A 
BRANCH   3   2
ATOM      1  C   UNL     1      -4.303  -3.392  23.503  0.00  0.00    +0.252 C 
ATOM      2  O   UNL     1      -4.353  -2.572  23.578  0.00  0.00    -0.471 OA
ENDBRANCH   3   2
ENDBRANCH  10   8
ENDBRANCH  13  12
ENDBRANCH  14  13
TORSDOF 7
ENDMDL
MODEL 2
REMARK VINA RESULT:     -10.5      1.454      5.342
REMARK  Name = 
REMARK  7 active torsions:
REMARK  status: ('A' for Active; 'I' for Inactive)
REMARK    1  A    between atoms: O_2  and  C_3
REMARK    2  A    between atoms: C_8  and  C_10
REMARK    3  A    between atoms: N_12  and  C_13
REMARK    4  A    between atoms: C_13  and  C_14
REMARK    5  A    between atoms: C_16  and  C_17
REMARK    6  A    between atoms: C_21  and  N_22
REMARK    7  A    between atoms: N_25  and  C_28
REMARK                            x       y       z     vdW  Elec       q    Type
REMARK                         _______ _______ _______ _____ _____    ______ ____
ROOT
ATOM     14  C   UNL     1      -3.975   2.201  25.179  0.00  0.00    +0.154 C 
ATOM     15  O   UNL     1      -4.393   2.902  25.300  0.00  0.00    -0.350 OA
ATOM     16  C   UNL     1      -5.199   2.730  25.252  0.00  0.00    +0.180 C 
ATOM     19  C   UNL     1      -5.279   1.923  25.101  0.00  0.00    +0.198 C 
ATOM     20  O   UNL     1      -5.990   1.515  25.012  0.00  0.00    -0.219 OA
ATOM     21  C   UNL     1      -4.523   1.596  25.056  0.00  0.00    +0.120 C 
ENDROOT
BRANCH  21  22
ATOM     22  N   UNL     1      -4.346   0.803  24.912  0.00  0.00    -0.267 NA
ATOM     23  C   UNL     1      -4.182   0.549  24.144  0.00  0.00    +0.094 C 
ATOM     24  C   UNL     1      -4.005  -0.243  24.001  0.00  0.00    +0.108 C 
ATOM     25  N   UNL     1      -3.991  -0.783  24.625  0.00  0.00    -0.305 N 
ATOM     26  C   UNL     1      -4.155  -0.529  25.393  0.00  0.00    +0.108 C 
ATOM     27  C   UNL     1      -4.332   0.264  25.537  0.00  0.00    +0.094 C 
BRANCH  25  28
ATOM     28  C   UNL     1      -3.814  -1.575  24.482  0.00  0.00    +0.048 A 
ATOM     29  C   UNL     1      -3.161  -1.924  24.847  0.00  0.00    +0.015 A 
ATOM     30  C   UNL     1      -2.984  -2.717  24.704  0.00  0.00    +0.001 A 
ATOM     31  C   UNL     1      -3.459  -3.162  24.197  0.00  0.00    +0.000 A 
ATOM     32  C   UNL     1      -4.112  -2.813  23.833  0.00  0.00    +0.001 A 
ATOM     33  C   UNL     1      -4.290  -2.020  23.976  0.00  0.00    +0.015 A 
ENDBRANCH  25  28
ENDBRANCH  21  22
BRANCH  16  17
ATOM     17  C   UNL     1      -5.815   3.271  25.340  0.00  0.00    +0.214 C 
ATOM     18  O   UNL     1      -5.694   3.969  25.764  0.00  0.00    -0.218 OA
ENDBRANCH  16  17
BRANCH  14  13
ATOM     13  C   UNL     1      -3.155   2.119  25.180  0.00  0.00    +0.146 C 
BRANCH  13  12
ATOM     10  C   UNL     1      -1.870   2.744  25.170  0.00  0.00    +0.266 C 
ATOM     11  O   UNL     1      -1.544   2.081  25.535  0.00  0.00    -0.268 OA
ATOM     12  N   UNL     1      -2.676   2.764  24.992  0.00  0.00    -0.199 NA
BRANCH  10   8
ATOM      3  C   UNL     1      -1.112   4.788  25.063  0.00  0.00    +0.139 A 
ATOM      4  C   UNL     1      -0.434   4.680  24.607  0.00  0.00    +0.038 A 
ATOM      5  C   UNL     1      -0.234   3.925  24.338  0.00  0.00    +0.015 A 
ATOM      6  C   UNL     1      -0.712   3.280  24.526  0.00  0.00    +0.062 A 
ATOM      7 CL   UNL     1      -0.513   2.526  24.257  0.00  0.00    -0.082 Cl
ATOM      8  C   UNL     1      -1.391   3.389  24.982  0.00  0.00    +0.069 A 
ATOM      9  C   UNL     1      -1.591   4.144  25.251  0.00  0.00    +0.042 A 
BRANCH   3   2
ATOM      1  C   UNL     1      -1.662   6.084  24.817  0.00  0.00    +0.252 C 
ATOM      2  O   UNL     1      -1.312   5.543  25.331  0.00  0.00    -0.471 OA
ENDBRANCH   3   2
ENDBRANCH  10   8
ENDBRANCH  13  12
ENDBRANCH  14  13
TORSDOF 7
ENDMDL
MODEL 3
REMARK VINA RESULT:     -10.0      2.147      3.607
REMARK  Name = 
REMARK  7 active torsions:
REMARK  status: ('A' for Active; 'I' for Inactive)
REMARK    1  A    between atoms: O_2  and  C_3
REMARK    2  A    between atoms: C_8  and  C_10
REMARK    3  A    between atoms: N_12  and  C_13
REMARK    4  A    between atoms: C_13  and  C_14
REMARK    5  A    between atoms: C_16  and  C_17
REMARK    6  A    between atoms: C_21  and  N_22
REMARK    7  A    between atoms: N_25  and  C_28
REMARK                            x       y       z     vdW  Elec       q    Type
REMARK                         _______ _______ _______ _____ _____    ______ ____
ROOT
ATOM     14  C   UNL     1      -0.693   0.370  24.335  0.00  0.00    +0.154 C 
ATOM     15  O   UNL     1      -0.233  -0.248  24.041  0.00  0.00    -0.350 OA
ATOM     16  C   UNL     1       0.449   0.078  23.708  0.00  0.00    +0.180 C 
ATOM     19  C   UNL     1       0.409   0.898  23.796  0.00  0.00    +0.198 C 
ATOM     20  O   UNL     1       0.974   1.441  23.542  0.00  0.00    -0.219 OA
ATOM     21  C   UNL     1      -0.297   1.078  24.184  0.00  0.00    +0.120 C 
ENDROOT
BRANCH  21  22
ATOM     22  N   UNL     1      -0.561   1.834  24.385  0.00  0.00    -0.267 NA
ATOM     23  C   UNL     1      -1.024   2.264  23.854  0.00  0.00    +0.094 C 
ATOM     24  C   UNL     1      -1.286   3.019  24.055  0.00  0.00    +0.108 C 
ATOM     25  N   UNL     1      -1.087   3.345  24.786  0.00  0.00    -0.305 N 
ATOM     26  C   UNL     1      -0.624   2.915  25.317  0.00  0.00    +0.108 C 
ATOM     27  C   UNL     1      -0.361   2.159  25.116  0.00  0.00    +0.094 C 
BRANCH  25  28
ATOM     28  C   UNL     1      -1.350   4.100  24.988  0.00  0.00    +0.048 A 
ATOM     29  C   UNL     1      -2.068   4.195  25.383  0.00  0.00    +0.015 A 
ATOM     30  C   UNL     1      -2.331   4.951  25.584  0.00  0.00    +0.001 A 
ATOM     31  C   UNL     1      -1.877   5.612  25.391  0.00  0.00    +0.000 A 
ATOM     32  C   UNL     1      -1.159   5.517  24.996  0.00  0.00    +0.001 A 
ATOM     33  C   UNL     1      -0.895   4.761  24.794  0.00  0.00    +0.015 A 
ENDBRANCH  25  28
ENDBRANCH  21  22
BRANCH  16  17
ATOM     17  C   UNL     1       1.061  -0.342  23.349  0.00  0.00    +0.214 C 
ATOM     18  O   UNL     1       0.956  -0.662  22.596  0.00  0.00    -0.218 OA
ENDBRANCH  16  17
BRANCH  14  13
ATOM     13  C   UNL     1      -1.421   0.294  24.713  0.00  0.00    +0.146 C 
BRANCH  13  12
ATOM     10  C   UNL     1      -2.675  -0.376  24.860  0.00  0.00    +0.266 C 
ATOM     11  O   UNL     1      -2.854   0.100  25.509  0.00  0.00    -0.268 OA
ATOM     12  N   UNL     1      -1.959  -0.279  24.462  0.00  0.00    -0.199 NA
BRANCH  10   8
ATOM      3  C   UNL     1      -3.647  -2.310  24.580  0.00  0.00    +0.139 A 
ATOM      4  C   UNL     1      -4.287  -2.096  24.106  0.00  0.00    +0.038 A 
ATOM      5  C   UNL     1      -4.389  -1.308  23.883  0.00  0.00    +0.015 A 
ATOM      6  C   UNL     1      -3.853  -0.735  24.134  0.00  0.00    +0.062 A 
ATOM      7 CL   UNL     1      -3.955   0.052  23.911  0.00  0.00    -0.082 Cl
ATOM      8  C   UNL     1      -3.212  -0.949  24.609  0.00  0.00    +0.069 A 
ATOM      9  C   UNL     1      -3.110  -1.737  24.832  0.00  0.00    +0.042 A 
BRANCH   3   2
ATOM      1  C   UNL     1      -3.329  -3.662  24.242  0.00  0.00    +0.252 C 
ATOM      2  O   UNL     1      -3.545  -3.098  24.804  0.00  0.00    -0.471 OA
ENDBRANCH   3   2
ENDBRANCH  10   8
ENDBRANCH  13  12
ENDBRANCH  14  13
TORSDOF 7
ENDMDL
MODEL 4
REMARK VINA RESULT:      -9.2      2.134      5.555
REMARK  Name = 
REMARK  7 active torsions:
REMARK  status: ('A' for Active; 'I' for Inactive)
REMARK    1  A    between atoms: O_2  and  C_3
REMARK    2  A    between atoms: C_8  and  C_10
REMARK    3  A    between atoms: N_12  and  C_13
REMARK    4  A    between atoms: C_13  and  C_14
REMARK    5  A    between atoms: C_16  and  C_17
REMARK    6  A    between atoms: C_21  and  N_22
REMARK    7  A    between atoms: N_25  and  C_28
REMARK                            x       y       z     vdW  Elec       q    Type
REMARK                         _______ _______ _______ _____ _____    ______ ____
ROOT
ATOM     14  C   UNL     1      -1.775   1.759  24.911  0.00  0.00    +0.154 C 
ATOM     15  O   UNL     1      -1.202   2.290  25.175  0.00  0.00    -0.350 OA
ATOM     16  C   UNL     1      -0.601   1.856  25.538  0.00  0.00    +0.180 C 
ATOM     19  C   UNL     1      -0.803   1.057  25.498  0.00  0.00    +0.198 C 
ATOM     20  O   UNL     1      -0.357   0.430  25.794  0.00  0.00    -0.219 OA
ATOM     21  C   UNL     1      -1.529   0.997  25.110  0.00  0.00    +0.120 C 
ENDROOT
BRANCH  21  22
ATOM     22  N   UNL     1      -1.936   0.297  24.950  0.00  0.00    -0.267 NA
ATOM     23  C   UNL     1      -1.859  -0.065  24.212  0.00  0.00    +0.094 C 
ATOM     24  C   UNL     1      -2.267  -0.764  24.053  0.00  0.00    +0.108 C 
ATOM     25  N   UNL     1      -2.750  -1.102  24.630  0.00  0.00    -0.305 N 
ATOM     26  C   UNL     1      -2.826  -0.739  25.367  0.00  0.00    +0.108 C 
ATOM     27  C   UNL     1      -2.419  -0.040  25.528  0.00  0.00    +0.094 C 
BRANCH  25  28
ATOM     28  C   UNL     1      -3.157  -1.800  24.470  0.00  0.00    +0.048 A 
ATOM     29  C   UNL     1      -3.859  -1.779  24.037  0.00  0.00    +0.015 A 
ATOM     30  C   UNL     1      -4.266  -2.479  23.877  0.00  0.00    +0.001 A 
ATOM     31  C   UNL     1      -3.972  -3.200  24.151  0.00  0.00    +0.000 A 
ATOM     32  C   UNL     1      -3.271  -3.221  24.584  0.00  0.00    +0.001 A 
ATOM     33  C   UNL     1      -2.863  -2.521  24.744  0.00  0.00    +0.015 A 
ENDBRANCH  25  28
ENDBRANCH  21  22
BRANCH  16  17
ATOM     17  C   UNL     1       0.082   2.168  25.881  0.00  0.00    +0.214 C 
ATOM     18  O   UNL     1       0.047   2.884  26.290  0.00  0.00    -0.218 OA
ENDBRANCH  16  17
BRANCH  14  13
ATOM     13  C   UNL     1      -2.472   1.954  24.517  0.00  0.00    +0.146 C 
BRANCH  13  12
ATOM     10  C   UNL     1      -3.711   2.667  24.486  0.00  0.00    +0.266 C 
ATOM     11  O   UNL     1      -3.767   2.534  23.675  0.00  0.00    -0.268 OA
ATOM     12  N   UNL     1      -3.063   2.377  24.907  0.00  0.00    -0.199 NA
BRANCH  10   8
ATOM      3  C   UNL     1      -5.403   3.122  25.787  0.00  0.00    +0.139 A 
ATOM      4  C   UNL     1      -5.483   3.933  25.661  0.00  0.00    +0.038 A 
ATOM      5  C   UNL     1      -4.971   4.323  25.143  0.00  0.00    +0.015 A 
ATOM      6  C   UNL     1      -4.381   3.900  24.752  0.00  0.00    +0.062 A 
ATOM      7 CL   UNL     1      -3.870   4.290  24.235  0.00  0.00    -0.082 Cl
ATOM      8  C   UNL     1      -4.301   3.089  24.878  0.00  0.00    +0.069 A 
ATOM      9  C   UNL     1      -4.813   2.699  25.396  0.00  0.00    +0.042 A 
BRANCH   3   2
ATOM      1  C   UNL     1      -6.320   2.059  26.056  0.00  0.00    +0.252 C 
ATOM      2  O   UNL     1      -5.915   2.733  26.304  0.00  0.00    -0.471 OA
ENDBRANCH   3   2
ENDBRANCH  10   8
ENDBRANCH  13  12
ENDBRANCH  14  13
TORSDOF 7
ENDMDL
MODEL 5
REMARK VINA RESULT:      -9.0      2.187      5.172
REMARK  Name = 
REMARK  7 active torsions:
REMARK  status: ('A' for Active; 'I' for Inactive)
REMARK    1  A    between atoms: O_2  and  C_3
REMARK    2  A    between atoms: C_8  and  C_10
REMARK    3  A    between atoms: N_12  and  C_13
REMARK    4  A    between atoms: C_13  and  C_14
REMARK    5  A    between atoms: C_16  and  C_17
REMARK    6  A    between atoms: C_21  and  N_22
REMARK    7  A    between atoms: N_25  and  C_28
REMARK                            x       y       z     vdW  Elec       q    Type
REMARK                         _______ _______ _______ _____ _____    ______ ____
ROOT
ATOM     14  C   UNL     1      -1.831   2.765  24.500  0.00  0.00    +0.154 C 
ATOM     15  O   UNL     1      -1.615   3.558  24.562  0.00  0.00    -0.350 OA
ATOM     16  C   UNL     1      -0.836   3.590  24.832  0.00  0.00    +0.180 C 
ATOM     19  C   UNL     1      -0.571   2.816  24.938  0.00  0.00    +0.198 C 
ATOM     20  O   UNL     1       0.177   2.591  25.202  0.00  0.00    -0.219 OA
ATOM     21  C   UNL     1      -1.186   2.306  24.732  0.00  0.00    +0.120 C 
ENDROOT
BRANCH  21  22
ATOM     22  N   UNL     1      -1.160   1.481  24.755  0.00  0.00    -0.267 NA
ATOM     23  C   UNL     1      -0.966   1.056  24.075  0.00  0.00    +0.094 C 
ATOM     24  C   UNL     1      -0.940   0.232  24.098  0.00  0.00    +0.108 C 
ATOM     25  N   UNL     1      -1.108  -0.167  24.800  0.00  0.00    -0.305 N 
ATOM     26  C   UNL     1      -1.303   0.259  25.480  0.00  0.00    +0.108 C 
ATOM     27  C   UNL     1      -1.329   1.083  25.458  0.00  0.00    +0.094 C 
BRANCH  25  28
ATOM     28  C   UNL     1      -1.083  -0.991  24.823  0.00  0.00    +0.048 A 
ATOM     29  C   UNL     1      -1.726  -1.431  24.552  0.00  0.00    +0.015 A 
ATOM     30  C   UNL     1      -1.700  -2.256  24.576  0.00  0.00    +0.001 A 
ATOM     31  C   UNL     1      -1.032  -2.640  24.870  0.00  0.00    +0.000 A 
ATOM     32  C   UNL     1      -0.389  -2.200  25.140  0.00  0.00    +0.001 A 
ATOM     33  C   UNL     1      -0.414  -1.375  25.117  0.00  0.00    +0.015 A 
ENDBRANCH  25  28
ENDBRANCH  21  22
BRANCH  16  17
ATOM     17  C   UNL     1      -0.400   4.276  24.973  0.00  0.00    +0.214 C 
ATOM     18  O   UNL     1      -0.769   5.013  24.943  0.00  0.00    -0.218 OA
ENDBRANCH  16  17
BRANCH  14  13
ATOM     13  C   UNL     1      -2.563   2.480  24.250  0.00  0.00    +0.146 C 
BRANCH  13  12
ATOM     10  C   UNL     1      -3.984   2.464  24.400  0.00  0.00    +0.266 C 
ATOM     11  O   UNL     1      -4.064   2.206  23.621  0.00  0.00    -0.268 OA
ATOM     12  N   UNL     1      -3.234   2.601  24.714  0.00  0.00    -0.199 NA
BRANCH  10   8
ATOM      3  C   UNL     1      -5.498   3.461  25.616  0.00  0.00    +0.139 A 
ATOM      4  C   UNL     1      -5.995   2.829  25.795  0.00  0.00    +0.038 A 
ATOM      5  C   UNL     1      -5.822   2.074  25.509  0.00  0.00    +0.015 A 
ATOM      6  C   UNL     1      -5.152   1.952  25.045  0.00  0.00    +0.062 A 
ATOM      7 CL   UNL     1      -4.980   1.198  24.759  0.00  0.00    -0.082 Cl
ATOM      8  C   UNL     1      -4.654   2.585  24.865  0.00  0.00    +0.069 A 
ATOM      9  C   UNL     1      -4.827   3.341  25.150  0.00  0.00    +0.042 A 
BRANCH   3   2
ATOM      1  C   UNL     1      -6.143   4.727  25.459  0.00  0.00    +0.252 C 
ATOM      2  O   UNL     1      -5.671   4.216  25.901  0.00  0.00    -0.471 OA
ENDBRANCH   3   2
ENDBRANCH  10   8
ENDBRANCH  13  12
ENDBRANCH  14  13
TORSDOF 7
ENDMDL
MODEL 6
REMARK VINA RESULT:      -8.8      2.124      3.670
REMARK  Name = 
REMARK  7 active torsions:
REMARK  status: ('A' for Active; 'I' for Inactive)
REMARK    1  A    between atoms: O_2  and  C_3
REMARK    2  A    between atoms: C_8  and  C_10
REMARK    3  A    between atoms: N_12  and  C_13
REMARK    4  A    between atoms: C_13  and  C_14
REMARK    5  A    between atoms: C_16  and  C_17
REMARK    6  A    between atoms: C_21  and  N_22
REMARK    7  A    between atoms: N_25  and  C_28
REMARK                            x       y       z     vdW  Elec       q    Type
REMARK                         _______ _______ _______ _____ _____    ______ ____
ROOT
ATOM     14  C   UNL     1      -0.893   1.370  24.941  0.00  0.00    +0.154 C 
ATOM     15  O   UNL     1      -0.109   1.346  24.687  0.00  0.00    -0.350 OA
ATOM     16  C   UNL     1       0.059   2.058  24.305  0.00  0.00    +0.180 C 
ATOM     19  C   UNL     1      -0.622   2.523  24.324  0.00  0.00    +0.198 C 
ATOM     20  O   UNL     1      -0.701   3.280  24.005  0.00  0.00    -0.219 OA
ATOM     21  C   UNL     1      -1.211   2.099  24.716  0.00  0.00    +0.120 C 
ENDROOT
BRANCH  21  22
ATOM     22  N   UNL     1      -1.981   2.357  24.860  0.00  0.00    -0.267 NA
ATOM     23  C   UNL     1      -2.573   2.220  24.300  0.00  0.00    +0.094 C 
ATOM     24  C   UNL     1      -3.342   2.478  24.443  0.00  0.00    +0.108 C 
ATOM     25  N   UNL     1      -3.522   2.872  25.145  0.00  0.00    -0.305 N 
ATOM     26  C   UNL     1      -2.931   3.008  25.704  0.00  0.00    +0.108 C 
ATOM     27  C   UNL     1      -2.160   2.750  25.562  0.00  0.00    +0.094 C 
BRANCH  25  28
ATOM     28  C   UNL     1      -4.292   3.130  25.288  0.00  0.00    +0.048 A 
ATOM     29  C   UNL     1      -4.889   2.581  25.437  0.00  0.00    +0.015 A 
ATOM     30  C   UNL     1      -5.660   2.839  25.581  0.00  0.00    +0.001 A 
ATOM     31  C   UNL     1      -5.833   3.646  25.575  0.00  0.00    +0.000 A 
ATOM     32  C   UNL     1      -5.236   4.195  25.427  0.00  0.00    +0.001 A 
ATOM     33  C   UNL     1      -4.465   3.937  25.283  0.00  0.00    +0.015 A 
ENDBRANCH  25  28
ENDBRANCH  21  22
BRANCH  16  17
ATOM     17  C   UNL     1       0.781   2.267  23.965  0.00  0.00    +0.214 C 
ATOM     18  O   UNL     1       1.396   1.718  23.934  0.00  0.00    -0.218 OA
ENDBRANCH  16  17
BRANCH  14  13
ATOM     13  C   UNL     1      -1.290   0.774  25.347  0.00  0.00    +0.146 C 
BRANCH  13  12
ATOM     10  C   UNL     1      -1.611  -0.616  25.443  0.00  0.00    +0.266 C 
ATOM     11  O   UNL     1      -1.672  -0.545  26.262  0.00  0.00    -0.268 OA
ATOM     12  N   UNL     1      -1.420   0.044  24.986  0.00  0.00    -0.199 NA
BRANCH  10   8
ATOM      3  C   UNL     1      -2.598  -2.233  24.360  0.00  0.00    +0.139 A 
ATOM      4  C   UNL     1      -2.002  -2.804  24.355  0.00  0.00    +0.038 A 
ATOM      5  C   UNL     1      -1.276  -2.645  24.714  0.00  0.00    +0.015 A 
ATOM      6  C   UNL     1      -1.146  -1.916  25.076  0.00  0.00    +0.062 A 
ATOM      7 CL   UNL     1      -0.420  -1.757  25.435  0.00  0.00    -0.082 Cl
ATOM      8  C   UNL     1      -1.741  -1.345  25.081  0.00  0.00    +0.069 A 
ATOM      9  C   UNL     1      -2.468  -1.504  24.722  0.00  0.00    +0.042 A 
BRANCH   3   2
ATOM      1  C   UNL     1      -3.871  -2.881  24.377  0.00  0.00    +0.252 C 
ATOM      2  O   UNL     1      -3.323  -2.392  24.001  0.00  0.00    -0.471 OA
ENDBRANCH   3   2
ENDBRANCH  10   8
ENDBRANCH  13  12
ENDBRANCH  14  13
TORSDOF 7
ENDMDL
MODEL 7
REMARK VINA RESULT:      -8.7      3.890      6.232
REMARK  Name = 
REMARK  7 active torsions:
REMARK  status: ('A' for Active; 'I' for Inactive)
REMARK    1  A    between atoms: O_2  and  C_3
REMARK    2  A    between atoms: C_8  and  C_10
REMARK    3  A    between atoms: N_12  and  C_13
REMARK    4  A    between atoms: C_13  and  C_14
REMARK    5  A    between atoms: C_16  and  C_17
REMARK    6  A    between atoms: C_21  and  N_22
REMARK    7  A    between atoms: N_25  and  C_28
REMARK                            x       y       z     vdW  Elec       q    Type
REMARK                         _______ _______ _______ _____ _____    ______ ____
ROOT
ATOM     14  C   UNL     1      -0.095   1.040  24.483  0.00  0.00    +0.154 C 
ATOM     15  O   UNL     1       0.300   1.705  24.769  0.00  0.00    -0.350 OA
ATOM     16  C   UNL     1      -0.186   2.070  25.327  0.00  0.00    +0.180 C 
ATOM     19  C   UNL     1      -0.882   1.631  25.386  0.00  0.00    +0.198 C 
ATOM     20  O   UNL     1      -1.521   1.798  25.879  0.00  0.00    -0.219 OA
ATOM     21  C   UNL     1      -0.826   0.994  24.864  0.00  0.00    +0.120 C 
ENDROOT
BRANCH  21  22
ATOM     22  N   UNL     1      -1.399   0.412  24.745  0.00  0.00    -0.267 NA
ATOM     23  C   UNL     1      -1.375  -0.287  25.184  0.00  0.00    +0.094 C 
ATOM     24  C   UNL     1      -1.949  -0.867  25.065  0.00  0.00    +0.108 C 
ATOM     25  N   UNL     1      -2.545  -0.750  24.507  0.00  0.00    -0.305 N 
ATOM     26  C   UNL     1      -2.569  -0.051  24.069  0.00  0.00    +0.108 C 
ATOM     27  C   UNL     1      -1.996   0.530  24.187  0.00  0.00    +0.094 C 
BRANCH  25  28
ATOM     28  C   UNL     1      -3.119  -1.330  24.388  0.00  0.00    +0.048 A 
ATOM     29  C   UNL     1      -3.839  -1.132  24.039  0.00  0.00    +0.015 A 
ATOM     30  C   UNL     1      -4.414  -1.713  23.919  0.00  0.00    +0.001 A 
ATOM     31  C   UNL     1      -4.267  -2.492  24.149  0.00  0.00    +0.000 A 
ATOM     32  C   UNL     1      -3.546  -2.690  24.497  0.00  0.00    +0.001 A 
ATOM     33  C   UNL     1      -2.972  -2.109  24.617  0.00  0.00    +0.015 A 
ENDBRANCH  25  28
ENDBRANCH  21  22
BRANCH  16  17
ATOM     17  C   UNL     1      -0.008   2.755  25.751  0.00  0.00    +0.214 C 
ATOM     18  O   UNL     1       0.666   2.781  26.227  0.00  0.00    -0.218 OA
ENDBRANCH  16  17
BRANCH  14  13
ATOM     13  C   UNL     1       0.190   0.514  23.916  0.00  0.00    +0.146 C 
BRANCH  13  12
ATOM     10  C   UNL     1       1.282   0.042  23.124  0.00  0.00    +0.266 C 
ATOM     11  O   UNL     1       0.897  -0.680  23.023  0.00  0.00    -0.268 OA
ATOM     12  N   UNL     1       0.928   0.639  23.570  0.00  0.00    -0.199 NA
BRANCH  10   8
ATOM      3  C   UNL     1       3.374   0.615  22.880  0.00  0.00    +0.139 A 
ATOM      4  C   UNL     1       3.497   0.420  22.088  0.00  0.00    +0.038 A 
ATOM      5  C   UNL     1       2.882   0.099  21.641  0.00  0.00    +0.015 A 
ATOM      6  C   UNL     1       2.144  -0.027  21.986  0.00  0.00    +0.062 A 
ATOM      7 CL   UNL     1       1.529  -0.348  21.540  0.00  0.00    -0.082 Cl
ATOM      8  C   UNL     1       2.020   0.168  22.779  0.00  0.00    +0.069 A 
ATOM      9  C   UNL     1       2.635   0.489  23.226  0.00  0.00    +0.042 A 
BRANCH   3   2
ATOM      1  C   UNL     1       4.753   0.633  23.255  0.00  0.00    +0.252 C 
ATOM      2  O   UNL     1       3.989   0.936  23.326  0.00  0.00    -0.471 OA
ENDBRANCH   3   2
ENDBRANCH  10   8
ENDBRANCH  13  12
ENDBRANCH  14  13
TORSDOF 7
ENDMDL
MODEL 8
REMARK VINA RESULT:      -8.7      2.686      6.250
REMARK  Name = 
REMARK  7 active torsions:
REMARK  status: ('A' for Active; 'I' for Inactive)
REMARK    1  A    between atoms: O_2  and  C_3
REMARK    2  A    between atoms: C_8  and  C_10
REMARK    3  A    between atoms: N_12  and  C_13
REMARK    4  A    between atoms: C_13  and  C_14
REMARK    5  A    between atoms: C_16  and  C_17
REMARK    6  A    between atoms: C_21  and  N_22
REMARK    7  A    between atoms: N_25  and  C_28
REMARK                            x       y       z     vdW  Elec       q    Type
REMARK                         _______ _______ _______ _____ _____    ______ ____
ROOT
ATOM     14  C   UNL     1       0.152   1.185  24.480  0.00  0.00    +0.154 C 
ATOM     15  O   UNL     1       0.822   1.517  24.133  0.00  0.00    -0.350 OA
ATOM     16  C   UNL     1       1.098   0.994  23.557  0.00  0.00    +0.180 C 
ATOM     19  C   UNL     1       0.597   0.338  23.548  0.00  0.00    +0.198 C 
ATOM     20  O   UNL     1       0.668  -0.319  23.056  0.00  0.00    -0.219 OA
ATOM     21  C   UNL     1       0.012   0.456  24.118  0.00  0.00    +0.120 C 
ENDROOT
BRANCH  21  22
ATOM     22  N   UNL     1      -0.604  -0.064  24.296  0.00  0.00    -0.267 NA
ATOM     23  C   UNL     1      -0.494  -0.654  24.863  0.00  0.00    +0.094 C 
ATOM     24  C   UNL     1      -1.110  -1.173  25.040  0.00  0.00    +0.108 C 
ATOM     25  N   UNL     1      -1.834  -1.103  24.651  0.00  0.00    -0.305 N 
ATOM     26  C   UNL     1      -1.943  -0.513  24.085  0.00  0.00    +0.108 C 
ATOM     27  C   UNL     1      -1.327   0.007  23.907  0.00  0.00    +0.094 C 
BRANCH  25  28
ATOM     28  C   UNL     1      -2.450  -1.622  24.828  0.00  0.00    +0.048 A 
ATOM     29  C   UNL     1      -3.012  -1.416  25.395  0.00  0.00    +0.015 A 
ATOM     30  C   UNL     1      -3.629  -1.936  25.573  0.00  0.00    +0.001 A 
ATOM     31  C   UNL     1      -3.682  -2.661  25.183  0.00  0.00    +0.000 A 
ATOM     32  C   UNL     1      -3.120  -2.867  24.616  0.00  0.00    +0.001 A 
ATOM     33  C   UNL     1      -2.503  -2.348  24.439  0.00  0.00    +0.015 A 
ENDBRANCH  25  28
ENDBRANCH  21  22
BRANCH  16  17
ATOM     17  C   UNL     1       1.758   1.107  23.075  0.00  0.00    +0.214 C 
ATOM     18  O   UNL     1       2.458   1.402  23.398  0.00  0.00    -0.218 OA
ENDBRANCH  16  17
BRANCH  14  13
ATOM     13  C   UNL     1      -0.299   1.521  25.082  0.00  0.00    +0.146 C 
BRANCH  13  12
ATOM     10  C   UNL     1      -0.962   2.695  25.556  0.00  0.00    +0.266 C 
ATOM     11  O   UNL     1      -0.732   2.514  26.326  0.00  0.00    -0.268 OA
ATOM     12  N   UNL     1      -0.746   2.199  24.933  0.00  0.00    -0.199 NA
BRANCH  10   8
ATOM      3  C   UNL     1      -2.678   4.000  25.212  0.00  0.00    +0.139 A 
ATOM      4  C   UNL     1      -2.303   4.727  25.108  0.00  0.00    +0.038 A 
ATOM      5  C   UNL     1      -1.480   4.777  25.154  0.00  0.00    +0.015 A 
ATOM      6  C   UNL     1      -1.034   4.100  25.303  0.00  0.00    +0.062 A 
ATOM      7 CL   UNL     1      -0.211   4.150  25.349  0.00  0.00    -0.082 Cl
ATOM      8  C   UNL     1      -1.409   3.372  25.407  0.00  0.00    +0.069 A 
ATOM      9  C   UNL     1      -2.232   3.322  25.361  0.00  0.00    +0.042 A 
BRANCH   3   2
ATOM      1  C   UNL     1      -3.871   3.910  24.430  0.00  0.00    +0.252 C 
ATOM      2  O   UNL     1      -3.500   3.950  25.166  0.00  0.00    -0.471 OA
ENDBRANCH   3   2
ENDBRANCH  10   8
ENDBRANCH  13  12
ENDBRANCH  14  13
TORSDOF 7
ENDMDL
