MODEL 1
REMARK VINA RESULT:      -7.3      0.000      0.000
REMARK  Name = 
REMARK  7 active torsions:
REMARK  status: ('A' for Active; 'I' for Inactive)
REMARK    1  A    between atoms: O_2  and  C_3
REMARK    2  A    between atoms: C_3  and  C_4
REMARK    3  A    between atoms: C_6  and  C_7
REMARK    4  A    between atoms: C_7  and  C_8
REMARK    5  A    between atoms: C_8  and  N_12
REMARK    6  A    between atoms: N_12  and  C_13
REMARK    7  A    between atoms: C_13  and  C_14
REMARK                            x       y       z     vdW  Elec       q    Type
REMARK                         _______ _______ _______ _____ _____    ______ ____
ROOT
ATOM      7  C   UNL     1      -4.393   2.026  24.516  0.00  0.00    +0.070 C 
ENDROOT
BRANCH   7   6
ATOM      4  C   UNL     1      -4.073  -0.084  24.588  0.00  0.00    +0.184 A 
ATOM      5  C   UNL     1      -4.022   0.640  24.195  0.00  0.00    +0.056 A 
ATOM      6  C   UNL     1      -4.334   1.221  24.690  0.00  0.00    +0.102 A 
ATOM     17  N   UNL     1      -4.579   0.857  25.389  0.00  0.00    -0.082 NA
ATOM     18  O   UNL     1      -4.417   0.050  25.326  0.00  0.00    -0.356 OA
BRANCH   4   3
ATOM      3  C   UNL     1      -3.823  -0.813  24.296  0.00  0.00    +0.209 C 
BRANCH   3   2
ATOM      1  C   UNL     1      -4.123  -2.147  23.876  0.00  0.00    +0.175 C 
ATOM      2  O   UNL     1      -4.376  -1.404  24.130  0.00  0.00    -0.343 OA
ENDBRANCH   3   2
ENDBRANCH   4   3
ENDBRANCH   7   6
BRANCH   7   8
ATOM      8  C   UNL     1      -4.741   2.540  25.058  0.00  0.00    +0.119 C 
ATOM      9  C   UNL     1      -5.088   3.056  25.601  0.00  0.00    +0.161 C 
ATOM     10  O   UNL     1      -5.836   2.788  25.375  0.00  0.00    -0.351 OA
ATOM     11  C   UNL     1      -5.487   2.273  24.833  0.00  0.00    +0.161 C 
BRANCH   8  12
ATOM     12  N   UNL     1      -3.994   2.808  25.284  0.00  0.00    -0.215 NA
BRANCH  12  13
ATOM     13  C   UNL     1      -3.828   3.616  25.283  0.00  0.00    +0.089 C 
BRANCH  13  14
ATOM     14  C   UNL     1      -3.075   3.884  25.488  0.00  0.00    +0.017 C 
ATOM     15  C   UNL     1      -2.877   3.994  26.280  0.00  0.00    +0.001 C 
ATOM     16  C   UNL     1      -2.519   4.042  24.898  0.00  0.00    +0.001 C 
ENDBRANCH  13  14
ENDBRANCH  12  13
ENDBRANCH   8  12
ENDBRANCH   7   8
TORSDOF 7
ENDMDL
MODEL 2
REMARK VINA RESULT:      -7.2      1.447      3.859
REMARK  Name = 
REMARK  7 active torsions:
REMARK  status: ('A' for Active; 'I' for Inactive)
REMARK    1  A    between atoms: O_2  and  C_3
REMARK    2  A    between atoms: C_3  and  C_4
REMARK    3  A    between atoms: C_6  and  C_7
REMARK    4  A    between atoms: C_7  and  C_8
REMARK    5  A    between atoms: C_8  and  N_12
REMARK    6  A    between atoms: N_12  and  C_13
REMARK    7  A    between atoms: C_13  and  C_14
REMARK                            x       y       z     vdW  Elec       q    Type
REMARK                         _______ _______ _______ _____ _____    ______ ____
ROOT
ATOM      7  C   UNL     1      -4.241   2.420  24.568  0.00  0.00    +0.070 C 
ENDROOT
BRANCH   7   6
ATOM      4  C   UNL     1      -2.717   3.690  25.359  0.00  0.00    +0.184 A 
ATOM      5  C   UNL     1      -2.975   3.127  24.814  0.00  0.00    +0.056 A 
ATOM      6  C   UNL     1      -3.765   2.955  24.978  0.00  0.00    +0.102 A 
ATOM     17  N   UNL     1      -3.996   3.413  25.625  0.00  0.00    -0.082 NA
ATOM     18  O   UNL     1      -3.348   3.867  25.860  0.00  0.00    -0.356 OA
BRANCH   4   3
ATOM      3  C   UNL     1      -1.962   4.019  25.397  0.00  0.00    +0.209 C 
BRANCH   3   2
ATOM      1  C   UNL     1      -1.078   5.087  25.048  0.00  0.00    +0.175 C 
ATOM      2  O   UNL     1      -1.843   4.806  25.179  0.00  0.00    -0.343 OA
ENDBRANCH   3   2
ENDBRANCH   4   3
ENDBRANCH   7   6
BRANCH   7   8
ATOM      8  C   UNL     1      -4.819   1.991  24.969  0.00  0.00    +0.119 C 
ATOM      9  C   UNL     1      -5.398   1.561  25.370  0.00  0.00    +0.161 C 
ATOM     10  O   UNL     1      -5.894   2.221  25.362  0.00  0.00    -0.351 OA
ATOM     11  C   UNL     1      -5.314   2.651  24.961  0.00  0.00    +0.161 C 
BRANCH   8  12
ATOM     12  N   UNL     1      -4.324   1.331  24.977  0.00  0.00    -0.215 NA
BRANCH  12  13
ATOM     13  C   UNL     1      -4.635   0.582  24.825  0.00  0.00    +0.089 C 
BRANCH  13  14
ATOM     14  C   UNL     1      -4.132  -0.070  24.765  0.00  0.00    +0.017 C 
ATOM     15  C   UNL     1      -3.891  -0.339  24.024  0.00  0.00    +0.001 C 
ATOM     16  C   UNL     1      -3.870  -0.452  25.448  0.00  0.00    +0.001 C 
ENDBRANCH  13  14
ENDBRANCH  12  13
ENDBRANCH   8  12
ENDBRANCH   7   8
TORSDOF 7
ENDMDL
MODEL 3
REMARK VINA RESULT:      -7.0      1.570      4.283
REMARK  Name = 
REMARK  7 active torsions:
REMARK  status: ('A' for Active; 'I' for Inactive)
REMARK    1  A    between atoms: O_2  and  C_3
REMARK    2  A    between atoms: C_3  and  C_4
REMARK    3  A    between atoms: C_6  and  C_7
REMARK    4  A    between atoms: C_7  and  C_8
REMARK    5  A    between atoms: C_8  and  N_12
REMARK    6  A    between atoms: N_12  and  C_13
REMARK    7  A    between atoms: C_13  and  C_14
REMARK                            x       y       z     vdW  Elec       q    Type
REMARK                         _______ _______ _______ _____ _____    ______ ____
ROOT
ATOM      7  C   UNL     1      -3.679   0.172  24.328  0.00  0.00    +0.070 C 
ENDROOT
BRANCH   7   6
ATOM      4  C   UNL     1      -4.914   1.788  24.979  0.00  0.00    +0.184 A 
ATOM      5  C   UNL     1      -4.358   1.470  24.458  0.00  0.00    +0.056 A 
ATOM      6  C   UNL     1      -4.202   0.695  24.694  0.00  0.00    +0.102 A 
ATOM     17  N   UNL     1      -4.662   0.534  25.361  0.00  0.00    -0.082 NA
ATOM     18  O   UNL     1      -5.101   1.210  25.536  0.00  0.00    -0.356 OA
BRANCH   4   3
ATOM      3  C   UNL     1      -5.227   2.551  24.948  0.00  0.00    +0.209 C 
BRANCH   3   2
ATOM      1  C   UNL     1      -5.421   3.833  25.548  0.00  0.00    +0.175 C 
ATOM      2  O   UNL     1      -5.151   3.056  25.596  0.00  0.00    -0.343 OA
ENDBRANCH   3   2
ENDBRANCH   4   3
ENDBRANCH   7   6
BRANCH   7   8
ATOM      8  C   UNL     1      -3.090  -0.198  24.770  0.00  0.00    +0.119 C 
ATOM      9  C   UNL     1      -2.499  -0.569  25.211  0.00  0.00    +0.161 C 
ATOM     10  O   UNL     1      -2.076   0.140  25.239  0.00  0.00    -0.351 OA
ATOM     11  C   UNL     1      -2.667   0.510  24.797  0.00  0.00    +0.161 C 
BRANCH   8  12
ATOM     12  N   UNL     1      -3.512  -0.906  24.742  0.00  0.00    -0.215 NA
BRANCH  12  13
ATOM     13  C   UNL     1      -3.171  -1.576  24.404  0.00  0.00    +0.089 C 
BRANCH  13  14
ATOM     14  C   UNL     1      -3.591  -2.286  24.378  0.00  0.00    +0.017 C 
ATOM     15  C   UNL     1      -4.120  -2.430  23.762  0.00  0.00    +0.001 C 
ATOM     16  C   UNL     1      -3.483  -2.851  24.969  0.00  0.00    +0.001 C 
ENDBRANCH  13  14
ENDBRANCH  12  13
ENDBRANCH   8  12
ENDBRANCH   7   8
TORSDOF 7
ENDMDL
MODEL 4
REMARK VINA RESULT:      -7.0      2.296      3.781
REMARK  Name = 
REMARK  7 active torsions:
REMARK  status: ('A' for Active; 'I' for Inactive)
REMARK    1  A    between atoms: O_2  and  C_3
REMARK    2  A    between atoms: C_3  and  C_4
REMARK    3  A    between atoms: C_6  and  C_7
REMARK    4  A    between atoms: C_7  and  C_8
REMARK    5  A    between atoms: C_8  and  N_12
REMARK    6  A    between atoms: N_12  and  C_13
REMARK    7  A    between atoms: C_13  and  C_14
REMARK                            x       y       z     vdW  Elec       q    Type
REMARK                         _______ _______ _______ _____ _____    ______ ____
ROOT
ATOM      7  C   UNL     1      -2.263   3.957  25.795  0.00  0.00    +0.070 C 
ENDROOT
BRANCH   7   6
ATOM      4  C   UNL     1      -4.223   3.406  25.152  0.00  0.00    +0.184 A 
ATOM      5  C   UNL     1      -3.651   3.474  25.743  0.00  0.00    +0.056 A 
ATOM      6  C   UNL     1      -2.971   3.795  25.404  0.00  0.00    +0.102 A 
ATOM     17  N   UNL     1      -3.122   3.925  24.602  0.00  0.00    -0.082 NA
ATOM     18  O   UNL     1      -3.896   3.685  24.448  0.00  0.00    -0.356 OA
BRANCH   4   3
ATOM      3  C   UNL     1      -4.987   3.112  25.248  0.00  0.00    +0.209 C 
BRANCH   3   2
ATOM      1  C   UNL     1      -5.924   2.040  25.120  0.00  0.00    +0.175 C 
ATOM      2  O   UNL     1      -5.179   2.360  24.967  0.00  0.00    -0.343 OA
ENDBRANCH   3   2
ENDBRANCH   4   3
ENDBRANCH   7   6
BRANCH   7   8
ATOM      8  C   UNL     1      -1.611   4.232  25.372  0.00  0.00    +0.119 C 
ATOM      9  C   UNL     1      -0.958   4.506  24.949  0.00  0.00    +0.161 C 
ATOM     10  O   UNL     1      -1.277   5.268  24.952  0.00  0.00    -0.351 OA
ATOM     11  C   UNL     1      -1.929   4.992  25.375  0.00  0.00    +0.161 C 
BRANCH   8  12
ATOM     12  N   UNL     1      -1.291   3.471  25.369  0.00  0.00    -0.215 NA
BRANCH  12  13
ATOM     13  C   UNL     1      -0.492   3.359  25.541  0.00  0.00    +0.089 C 
BRANCH  13  14
ATOM     14  C   UNL     1      -0.193   2.596  25.640  0.00  0.00    +0.017 C 
ATOM     15  C   UNL     1      -0.048   2.122  24.982  0.00  0.00    +0.001 C 
ATOM     16  C   UNL     1      -0.041   2.309  26.398  0.00  0.00    +0.001 C 
ENDBRANCH  13  14
ENDBRANCH  12  13
ENDBRANCH   8  12
ENDBRANCH   7   8
TORSDOF 7
ENDMDL
MODEL 5
REMARK VINA RESULT:      -6.8      1.357      1.789
REMARK  Name = 
REMARK  7 active torsions:
REMARK  status: ('A' for Active; 'I' for Inactive)
REMARK    1  A    between atoms: O_2  and  C_3
REMARK    2  A    between atoms: C_3  and  C_4
REMARK    3  A    between atoms: C_6  and  C_7
REMARK    4  A    between atoms: C_7  and  C_8
REMARK    5  A    between atoms: C_8  and  N_12
REMARK    6  A    between atoms: N_12  and  C_13
REMARK    7  A    between atoms: C_13  and  C_14
REMARK                            x       y       z     vdW  Elec       q    Type
REMARK                         _______ _______ _______ _____ _____    ______ ____
ROOT
ATOM      7  C   UNL     1      -3.977   1.237  24.286  0.00  0.00    +0.070 C 
ENDROOT
BRANCH   7   6
ATOM      4  C   UNL     1      -3.537  -0.752  24.922  0.00  0.00    +0.184 A 
ATOM      5  C   UNL     1      -4.024  -0.211  24.535  0.00  0.00    +0.056 A 
ATOM      6  C   UNL     1      -3.676   0.534  24.595  0.00  0.00    +0.102 A 
ATOM     17  N   UNL     1      -2.972   0.454  25.019  0.00  0.00    -0.082 NA
ATOM     18  O   UNL     1      -2.887  -0.342  25.221  0.00  0.00    -0.356 OA
BRANCH   4   3
ATOM      3  C   UNL     1      -3.674  -1.562  24.997  0.00  0.00    +0.209 C 
BRANCH   3   2
ATOM      1  C   UNL     1      -3.521  -2.895  24.505  0.00  0.00    +0.175 C 
ATOM      2  O   UNL     1      -3.386  -2.085  24.427  0.00  0.00    -0.343 OA
ENDBRANCH   3   2
ENDBRANCH   4   3
ENDBRANCH   7   6
BRANCH   7   8
ATOM      8  C   UNL     1      -3.465   1.843  24.062  0.00  0.00    +0.119 C 
ATOM      9  C   UNL     1      -2.952   2.449  23.838  0.00  0.00    +0.161 C 
ATOM     10  O   UNL     1      -2.735   2.018  23.168  0.00  0.00    -0.351 OA
ATOM     11  C   UNL     1      -3.248   1.412  23.393  0.00  0.00    +0.161 C 
BRANCH   8  12
ATOM     12  N   UNL     1      -3.681   2.274  24.731  0.00  0.00    -0.215 NA
BRANCH  12  13
ATOM     13  C   UNL     1      -3.961   3.046  24.650  0.00  0.00    +0.089 C 
BRANCH  13  14
ATOM     14  C   UNL     1      -4.226   3.461  25.313  0.00  0.00    +0.017 C 
ATOM     15  C   UNL     1      -3.685   3.826  25.815  0.00  0.00    +0.001 C 
ATOM     16  C   UNL     1      -5.035   3.509  25.471  0.00  0.00    +0.001 C 
ENDBRANCH  13  14
ENDBRANCH  12  13
ENDBRANCH   8  12
ENDBRANCH   7   8
TORSDOF 7
ENDMDL
