MODEL 1
REMARK VINA RESULT:     -10.7      0.000      0.000
REMARK  Name = 
REMARK  8 active torsions:
REMARK  status: ('A' for Active; 'I' for Inactive)
REMARK    1  A    between atoms: C_2  and  O_17
REMARK    2  A    between atoms: N_3  and  C_4
REMARK    3  A    between atoms: C_7  and  O_8
REMARK    4  A    between atoms: O_8  and  C_9
REMARK    5  A    between atoms: O_17  and  C_18
REMARK    6  A    between atoms: C_22  and  N_26
REMARK    7  A    between atoms: N_26  and  S_27
REMARK    8  A    between atoms: S_27  and  C_30
REMARK                            x       y       z     vdW  Elec       q    Type
REMARK                         _______ _______ _______ _____ _____    ______ ____
ROOT
ATOM     18  C   UNL     1      -0.347   0.243  24.270  0.00  0.00    +0.229 C 
ATOM     19  C   UNL     1      -0.234   1.060  24.280  0.00  0.00    +0.188 C 
ATOM     20  O   UNL     1       0.404   1.235  23.787  0.00  0.00    -0.348 OA
ATOM     21  C   UNL     1       0.683   0.527  23.471  0.00  0.00    +0.166 C 
ATOM     22  C   UNL     1       1.251   0.197  22.971  0.00  0.00    +0.157 C 
ATOM     23  C   UNL     1       1.137  -0.621  22.960  0.00  0.00    +0.164 C 
ATOM     24  O   UNL     1       0.500  -0.796  23.454  0.00  0.00    -0.348 OA
ATOM     25  C   UNL     1       0.219  -0.087  23.770  0.00  0.00    +0.186 C 
ENDROOT
BRANCH  18  17
ATOM     17  O   UNL     1      -0.927  -0.171  24.687  0.00  0.00    -0.432 OA
BRANCH  17   2
ATOM      1  O   UNL     1      -1.796   0.861  25.156  0.00  0.00    -0.224 OA
ATOM      2  C   UNL     1      -1.685   0.144  24.763  0.00  0.00    +0.425 C 
ATOM      3  N   UNL     1      -2.333  -0.257  24.447  0.00  0.00    -0.142 NA
BRANCH   3   4
ATOM      4  C   UNL     1      -3.091   0.058  24.523  0.00  0.00    +0.077 A 
ATOM      5  C   UNL     1      -3.396   0.548  23.934  0.00  0.00    +0.020 A 
ATOM      6  C   UNL     1      -4.154   0.863  24.010  0.00  0.00    +0.039 A 
ATOM      7  C   UNL     1      -4.608   0.687  24.676  0.00  0.00    +0.145 A 
ATOM     15  C   UNL     1      -4.304   0.197  25.266  0.00  0.00    +0.039 A 
ATOM     16  C   UNL     1      -3.545  -0.118  25.189  0.00  0.00    +0.020 A 
BRANCH   7   8
ATOM      8  O   UNL     1      -5.367   1.003  24.753  0.00  0.00    -0.453 OA
BRANCH   8   9
ATOM      9  C   UNL     1      -5.474   1.739  25.106  0.00  0.00    +0.145 A 
ATOM     10  C   UNL     1      -5.814   1.793  25.856  0.00  0.00    +0.037 A 
ATOM     11  C   UNL     1      -5.921   2.530  26.209  0.00  0.00    +0.003 A 
ATOM     12  C   UNL     1      -5.688   3.216  25.814  0.00  0.00    +0.000 A 
ATOM     13  C   UNL     1      -5.347   3.163  25.064  0.00  0.00    +0.003 A 
ATOM     14  C   UNL     1      -5.240   2.425  24.710  0.00  0.00    +0.037 A 
ENDBRANCH   8   9
ENDBRANCH   7   8
ENDBRANCH   3   4
ENDBRANCH  17   2
ENDBRANCH  18  17
BRANCH  22  26
ATOM     26  N   UNL     1       1.829   0.610  22.554  0.00  0.00    -0.074 NA
BRANCH  26  27
ATOM     27  S   UNL     1       2.626   0.511  22.745  0.00  0.00    +0.077 S 
ATOM     28  O   UNL     1       2.609   1.213  23.178  0.00  0.00    -0.152 OA
ATOM     29  O   UNL     1       2.643  -0.190  22.311  0.00  0.00    -0.152 OA
BRANCH  27  30
ATOM     30  C   UNL     1       3.423   0.413  22.935  0.00  0.00    +0.124 A 
ATOM     31  C   UNL     1       3.671  -0.264  23.336  0.00  0.00    +0.020 A 
ATOM     32  C   UNL     1       4.467  -0.362  23.526  0.00  0.00    +0.001 A 
ATOM     33  C   UNL     1       4.715  -1.039  23.927  0.00  0.00    +0.000 A 
ATOM     34  C   UNL     1       5.511  -1.138  24.117  0.00  0.00    +0.000 A 
ATOM     35  C   UNL     1       6.061  -0.558  23.906  0.00  0.00    +0.000 A 
ATOM     36  C   UNL     1       5.813   0.118  23.506  0.00  0.00    +0.000 A 
ATOM     37  C   UNL     1       5.016   0.217  23.315  0.00  0.00    +0.000 A 
ATOM     38  C   UNL     1       4.768   0.894  22.914  0.00  0.00    +0.001 A 
ATOM     39  C   UNL     1       3.972   0.992  22.724  0.00  0.00    +0.020 A 
ENDBRANCH  27  30
ENDBRANCH  26  27
ENDBRANCH  22  26
TORSDOF 8
ENDMDL
MODEL 2
REMARK VINA RESULT:     -10.2      1.676      8.055
REMARK  Name = 
REMARK  8 active torsions:
REMARK  status: ('A' for Active; 'I' for Inactive)
REMARK    1  A    between atoms: C_2  and  O_17
REMARK    2  A    between atoms: N_3  and  C_4
REMARK    3  A    between atoms: C_7  and  O_8
REMARK    4  A    between atoms: O_8  and  C_9
REMARK    5  A    between atoms: O_17  and  C_18
REMARK    6  A    between atoms: C_22  and  N_26
REMARK    7  A    between atoms: N_26  and  S_27
REMARK    8  A    between atoms: S_27  and  C_30
REMARK                            x       y       z     vdW  Elec       q    Type
REMARK                         _______ _______ _______ _____ _____    ______ ____
ROOT
ATOM     18  C   UNL     1      -0.404   0.770  23.934  0.00  0.00    +0.229 C 
ATOM     19  C   UNL     1      -0.213   0.821  24.735  0.00  0.00    +0.188 C 
ATOM     20  O   UNL     1      -0.667   1.425  25.067  0.00  0.00    -0.348 OA
ATOM     21  C   UNL     1      -1.138   1.746  24.472  0.00  0.00    +0.166 C 
ATOM     22  C   UNL     1      -1.710   2.318  24.309  0.00  0.00    +0.157 C 
ATOM     23  C   UNL     1      -1.901   2.267  23.507  0.00  0.00    +0.164 C 
ATOM     24  O   UNL     1      -1.447   1.664  23.176  0.00  0.00    -0.348 OA
ATOM     25  C   UNL     1      -0.976   1.342  23.771  0.00  0.00    +0.186 C 
ENDROOT
BRANCH  18  17
ATOM     17  O   UNL     1      -0.079   0.240  23.392  0.00  0.00    -0.432 OA
BRANCH  17   2
ATOM      1  O   UNL     1       1.140  -0.339  23.859  0.00  0.00    -0.224 OA
ATOM      2  C   UNL     1       0.739   0.156  23.335  0.00  0.00    +0.425 C 
ATOM      3  N   UNL     1       1.157   0.568  22.755  0.00  0.00    -0.142 NA
BRANCH   3   4
ATOM      4  C   UNL     1       1.975   0.484  22.698  0.00  0.00    +0.077 A 
ATOM      5  C   UNL     1       2.299  -0.198  22.365  0.00  0.00    +0.020 A 
ATOM      6  C   UNL     1       3.117  -0.281  22.308  0.00  0.00    +0.039 A 
ATOM      7  C   UNL     1       3.613   0.317  22.585  0.00  0.00    +0.145 A 
ATOM     15  C   UNL     1       3.291   1.000  22.918  0.00  0.00    +0.039 A 
ATOM     16  C   UNL     1       2.471   1.083  22.975  0.00  0.00    +0.020 A 
BRANCH   7   8
ATOM      8  O   UNL     1       4.432   0.234  22.528  0.00  0.00    -0.453 OA
BRANCH   8   9
ATOM      9  C   UNL     1       4.872   0.024  23.193  0.00  0.00    +0.145 A 
ATOM     10  C   UNL     1       5.297   0.599  23.605  0.00  0.00    +0.037 A 
ATOM     11  C   UNL     1       5.737   0.389  24.270  0.00  0.00    +0.003 A 
ATOM     12  C   UNL     1       5.754  -0.395  24.524  0.00  0.00    +0.000 A 
ATOM     13  C   UNL     1       5.329  -0.971  24.112  0.00  0.00    +0.003 A 
ATOM     14  C   UNL     1       4.888  -0.761  23.446  0.00  0.00    +0.037 A 
ENDBRANCH   8   9
ENDBRANCH   7   8
ENDBRANCH   3   4
ENDBRANCH  17   2
ENDBRANCH  18  17
BRANCH  22  26
ATOM     26  N   UNL     1      -2.034   2.848  24.851  0.00  0.00    -0.074 NA
BRANCH  26  27
ATOM     27  S   UNL     1      -2.849   2.858  24.983  0.00  0.00    +0.077 S 
ATOM     28  O   UNL     1      -2.743   2.413  25.670  0.00  0.00    -0.152 OA
ATOM     29  O   UNL     1      -2.955   3.302  24.296  0.00  0.00    -0.152 OA
BRANCH  27  30
ATOM     30  C   UNL     1      -3.663   2.867  25.116  0.00  0.00    +0.124 A 
ATOM     31  C   UNL     1      -4.107   2.181  25.007  0.00  0.00    +0.020 A 
ATOM     32  C   UNL     1      -4.921   2.191  25.140  0.00  0.00    +0.001 A 
ATOM     33  C   UNL     1      -5.366   1.505  25.031  0.00  0.00    +0.000 A 
ATOM     34  C   UNL     1      -6.180   1.515  25.164  0.00  0.00    +0.000 A 
ATOM     35  C   UNL     1      -6.550   2.212  25.405  0.00  0.00    +0.000 A 
ATOM     36  C   UNL     1      -6.106   2.898  25.513  0.00  0.00    +0.000 A 
ATOM     37  C   UNL     1      -5.292   2.889  25.381  0.00  0.00    +0.000 A 
ATOM     38  C   UNL     1      -4.848   3.575  25.489  0.00  0.00    +0.001 A 
ATOM     39  C   UNL     1      -4.034   3.565  25.357  0.00  0.00    +0.020 A 
ENDBRANCH  27  30
ENDBRANCH  26  27
ENDBRANCH  22  26
TORSDOF 8
ENDMDL
MODEL 3
REMARK VINA RESULT:      -9.3      2.007      7.462
REMARK  Name = 
REMARK  8 active torsions:
REMARK  status: ('A' for Active; 'I' for Inactive)
REMARK    1  A    between atoms: C_2  and  O_17
REMARK    2  A    between atoms: N_3  and  C_4
REMARK    3  A    between atoms: C_7  and  O_8
REMARK    4  A    between atoms: O_8  and  C_9
REMARK    5  A    between atoms: O_17  and  C_18
REMARK    6  A    between atoms: C_22  and  N_26
REMARK    7  A    between atoms: N_26  and  S_27
REMARK    8  A    between atoms: S_27  and  C_30
REMARK                            x       y       z     vdW  Elec       q    Type
REMARK                         _______ _______ _______ _____ _____    ______ ____
ROOT
ATOM     18  C   UNL     1      -0.303   1.952  24.598  0.00  0.00    +0.229 C 
ATOM     19  C   UNL     1      -0.275   1.640  25.360  0.00  0.00    +0.188 C 
ATOM     20  O   UNL     1      -1.031   1.370  25.553  0.00  0.00    -0.348 OA
ATOM     21  C   UNL     1      -1.524   1.516  24.909  0.00  0.00    +0.166 C 
ATOM     22  C   UNL     1      -2.297   1.439  24.629  0.00  0.00    +0.157 C 
ATOM     23  C   UNL     1      -2.325   1.752  23.866  0.00  0.00    +0.164 C 
ATOM     24  O   UNL     1      -1.569   2.022  23.674  0.00  0.00    -0.348 OA
ATOM     25  C   UNL     1      -1.074   1.876  24.318  0.00  0.00    +0.186 C 
ENDROOT
BRANCH  18  17
ATOM     17  O   UNL     1       0.332   2.284  24.187  0.00  0.00    -0.432 OA
BRANCH  17   2
ATOM      1  O   UNL     1       1.488   1.577  24.639  0.00  0.00    -0.224 OA
ATOM      2  C   UNL     1       1.000   1.829  24.023  0.00  0.00    +0.425 C 
ATOM      3  N   UNL     1       1.182   1.627  23.244  0.00  0.00    -0.142 NA
BRANCH   3   4
ATOM      4  C   UNL     1       1.850   1.173  23.081  0.00  0.00    +0.077 A 
ATOM      5  C   UNL     1       1.784   0.355  22.997  0.00  0.00    +0.020 A 
ATOM      6  C   UNL     1       2.452  -0.099  22.834  0.00  0.00    +0.039 A 
ATOM      7  C   UNL     1       3.188   0.264  22.753  0.00  0.00    +0.145 A 
ATOM     15  C   UNL     1       3.256   1.082  22.836  0.00  0.00    +0.039 A 
ATOM     16  C   UNL     1       2.586   1.537  23.000  0.00  0.00    +0.020 A 
BRANCH   7   8
ATOM      8  O   UNL     1       3.857  -0.190  22.589  0.00  0.00    -0.453 OA
BRANCH   8   9
ATOM      9  C   UNL     1       4.448  -0.274  23.158  0.00  0.00    +0.145 A 
ATOM     10  C   UNL     1       5.029   0.305  23.238  0.00  0.00    +0.037 A 
ATOM     11  C   UNL     1       5.620   0.221  23.807  0.00  0.00    +0.003 A 
ATOM     12  C   UNL     1       5.631  -0.442  24.297  0.00  0.00    +0.000 A 
ATOM     13  C   UNL     1       5.049  -1.023  24.217  0.00  0.00    +0.003 A 
ATOM     14  C   UNL     1       4.458  -0.939  23.648  0.00  0.00    +0.037 A 
ENDBRANCH   8   9
ENDBRANCH   7   8
ENDBRANCH   3   4
ENDBRANCH  17   2
ENDBRANCH  18  17
BRANCH  22  26
ATOM     26  N   UNL     1      -2.931   1.108  25.040  0.00  0.00    -0.074 NA
BRANCH  26  27
ATOM     27  S   UNL     1      -3.236   0.377  24.810  0.00  0.00    +0.077 S 
ATOM     28  O   UNL     1      -2.944   0.037  25.504  0.00  0.00    -0.152 OA
ATOM     29  O   UNL     1      -3.527   0.716  24.117  0.00  0.00    -0.152 OA
BRANCH  27  30
ATOM     30  C   UNL     1      -3.541  -0.355  24.580  0.00  0.00    +0.124 A 
ATOM     31  C   UNL     1      -3.124  -1.046  24.746  0.00  0.00    +0.020 A 
ATOM     32  C   UNL     1      -3.429  -1.777  24.517  0.00  0.00    +0.001 A 
ATOM     33  C   UNL     1      -3.012  -2.469  24.682  0.00  0.00    +0.000 A 
ATOM     34  C   UNL     1      -3.317  -3.200  24.453  0.00  0.00    +0.000 A 
ATOM     35  C   UNL     1      -4.041  -3.239  24.056  0.00  0.00    +0.000 A 
ATOM     36  C   UNL     1      -4.457  -2.547  23.890  0.00  0.00    +0.000 A 
ATOM     37  C   UNL     1      -4.152  -1.816  24.120  0.00  0.00    +0.000 A 
ATOM     38  C   UNL     1      -4.569  -1.124  23.954  0.00  0.00    +0.001 A 
ATOM     39  C   UNL     1      -4.264  -0.393  24.184  0.00  0.00    +0.020 A 
ENDBRANCH  27  30
ENDBRANCH  26  27
ENDBRANCH  22  26
TORSDOF 8
ENDMDL
MODEL 4
REMARK VINA RESULT:      -9.2      2.187      7.352
REMARK  Name = 
REMARK  8 active torsions:
REMARK  status: ('A' for Active; 'I' for Inactive)
REMARK    1  A    between atoms: C_2  and  O_17
REMARK    2  A    between atoms: N_3  and  C_4
REMARK    3  A    between atoms: C_7  and  O_8
REMARK    4  A    between atoms: O_8  and  C_9
REMARK    5  A    between atoms: O_17  and  C_18
REMARK    6  A    between atoms: C_22  and  N_26
REMARK    7  A    between atoms: N_26  and  S_27
REMARK    8  A    between atoms: S_27  and  C_30
REMARK                            x       y       z     vdW  Elec       q    Type
REMARK                         _______ _______ _______ _____ _____    ______ ____
ROOT
ATOM     18  C   UNL     1      -0.589  -0.338  24.042  0.00  0.00    +0.229 C 
ATOM     19  C   UNL     1      -0.513  -0.448  24.856  0.00  0.00    +0.188 C 
ATOM     20  O   UNL     1      -1.070   0.031  25.231  0.00  0.00    -0.348 OA
ATOM     21  C   UNL     1      -1.489   0.437  24.649  0.00  0.00    +0.166 C 
ATOM     22  C   UNL     1      -2.093   0.985  24.520  0.00  0.00    +0.157 C 
ATOM     23  C   UNL     1      -2.169   1.095  23.706  0.00  0.00    +0.164 C 
ATOM     24  O   UNL     1      -1.612   0.615  23.331  0.00  0.00    -0.348 OA
ATOM     25  C   UNL     1      -1.192   0.209  23.913  0.00  0.00    +0.186 C 
ENDROOT
BRANCH  18  17
ATOM     17  O   UNL     1      -0.139  -0.711  23.459  0.00  0.00    -0.432 OA
BRANCH  17   2
ATOM      1  O   UNL     1       1.199  -0.886  23.927  0.00  0.00    -0.224 OA
ATOM      2  C   UNL     1       0.667  -0.550  23.394  0.00  0.00    +0.425 C 
ATOM      3  N   UNL     1       0.942  -0.053  22.795  0.00  0.00    -0.142 NA
BRANCH   3   4
ATOM      4  C   UNL     1       1.748   0.108  22.730  0.00  0.00    +0.077 A 
ATOM      5  C   UNL     1       2.081   0.731  23.156  0.00  0.00    +0.020 A 
ATOM      6  C   UNL     1       2.887   0.892  23.091  0.00  0.00    +0.039 A 
ATOM      7  C   UNL     1       3.361   0.429  22.599  0.00  0.00    +0.145 A 
ATOM     15  C   UNL     1       3.029  -0.194  22.172  0.00  0.00    +0.039 A 
ATOM     16  C   UNL     1       2.222  -0.354  22.238  0.00  0.00    +0.020 A 
BRANCH   7   8
ATOM      8  O   UNL     1       4.168   0.590  22.533  0.00  0.00    -0.453 OA
BRANCH   8   9
ATOM      9  C   UNL     1       4.692   0.309  23.104  0.00  0.00    +0.145 A 
ATOM     10  C   UNL     1       5.060   0.836  23.621  0.00  0.00    +0.037 A 
ATOM     11  C   UNL     1       5.585   0.555  24.193  0.00  0.00    +0.003 A 
ATOM     12  C   UNL     1       5.742  -0.253  24.247  0.00  0.00    +0.000 A 
ATOM     13  C   UNL     1       5.374  -0.781  23.729  0.00  0.00    +0.003 A 
ATOM     14  C   UNL     1       4.850  -0.500  23.158  0.00  0.00    +0.037 A 
ENDBRANCH   8   9
ENDBRANCH   7   8
ENDBRANCH   3   4
ENDBRANCH  17   2
ENDBRANCH  18  17
BRANCH  22  26
ATOM     26  N   UNL     1      -2.543   1.357  25.103  0.00  0.00    -0.074 NA
BRANCH  26  27
ATOM     27  S   UNL     1      -2.522   2.178  25.179  0.00  0.00    +0.077 S 
ATOM     28  O   UNL     1      -1.991   2.106  25.807  0.00  0.00    -0.152 OA
ATOM     29  O   UNL     1      -3.052   2.250  24.551  0.00  0.00    -0.152 OA
BRANCH  27  30
ATOM     30  C   UNL     1      -2.501   2.999  25.256  0.00  0.00    +0.124 A 
ATOM     31  C   UNL     1      -1.827   3.418  25.032  0.00  0.00    +0.020 A 
ATOM     32  C   UNL     1      -1.807   4.239  25.109  0.00  0.00    +0.001 A 
ATOM     33  C   UNL     1      -1.133   4.658  24.886  0.00  0.00    +0.000 A 
ATOM     34  C   UNL     1      -1.113   5.479  24.962  0.00  0.00    +0.000 A 
ATOM     35  C   UNL     1      -1.768   5.882  25.263  0.00  0.00    +0.000 A 
ATOM     36  C   UNL     1      -2.442   5.463  25.486  0.00  0.00    +0.000 A 
ATOM     37  C   UNL     1      -2.463   4.641  25.410  0.00  0.00    +0.000 A 
ATOM     38  C   UNL     1      -3.137   4.223  25.633  0.00  0.00    +0.001 A 
ATOM     39  C   UNL     1      -3.157   3.402  25.557  0.00  0.00    +0.020 A 
ENDBRANCH  27  30
ENDBRANCH  26  27
ENDBRANCH  22  26
TORSDOF 8
ENDMDL
MODEL 5
REMARK VINA RESULT:      -8.0      3.112      6.505
REMARK  Name = 
REMARK  8 active torsions:
REMARK  status: ('A' for Active; 'I' for Inactive)
REMARK    1  A    between atoms: C_2  and  O_17
REMARK    2  A    between atoms: N_3  and  C_4
REMARK    3  A    between atoms: C_7  and  O_8
REMARK    4  A    between atoms: O_8  and  C_9
REMARK    5  A    between atoms: O_17  and  C_18
REMARK    6  A    between atoms: C_22  and  N_26
REMARK    7  A    between atoms: N_26  and  S_27
REMARK    8  A    between atoms: S_27  and  C_30
REMARK                            x       y       z     vdW  Elec       q    Type
REMARK                         _______ _______ _______ _____ _____    ______ ____
ROOT
ATOM     18  C   UNL     1       0.127   1.990  24.361  0.00  0.00    +0.229 C 
ATOM     19  C   UNL     1      -0.130   2.408  23.698  0.00  0.00    +0.188 C 
ATOM     20  O   UNL     1      -0.573   3.053  23.960  0.00  0.00    -0.348 OA
ATOM     21  C   UNL     1      -0.590   3.033  24.784  0.00  0.00    +0.166 C 
ATOM     22  C   UNL     1      -0.874   3.419  25.456  0.00  0.00    +0.157 C 
ATOM     23  C   UNL     1      -0.617   3.000  26.119  0.00  0.00    +0.164 C 
ATOM     24  O   UNL     1      -0.174   2.355  25.857  0.00  0.00    -0.348 OA
ATOM     25  C   UNL     1      -0.157   2.375  25.032  0.00  0.00    +0.186 C 
ENDROOT
BRANCH  18  17
ATOM     17  O   UNL     1       0.588   1.305  24.353  0.00  0.00    -0.432 OA
BRANCH  17   2
ATOM      1  O   UNL     1       0.321   0.186  23.507  0.00  0.00    -0.224 OA
ATOM      2  C   UNL     1       0.234   0.571  24.231  0.00  0.00    +0.425 C 
ATOM      3  N   UNL     1      -0.208   0.220  24.834  0.00  0.00    -0.142 NA
BRANCH   3   4
ATOM      4  C   UNL     1      -0.562  -0.515  24.712  0.00  0.00    +0.077 A 
ATOM      5  C   UNL     1      -1.030  -0.643  24.044  0.00  0.00    +0.020 A 
ATOM      6  C   UNL     1      -1.384  -1.377  23.923  0.00  0.00    +0.039 A 
ATOM      7  C   UNL     1      -1.271  -1.985  24.469  0.00  0.00    +0.145 A 
ATOM     15  C   UNL     1      -0.803  -1.858  25.137  0.00  0.00    +0.039 A 
ATOM     16  C   UNL     1      -0.449  -1.122  25.258  0.00  0.00    +0.020 A 
BRANCH   7   8
ATOM      8  O   UNL     1      -1.625  -2.721  24.348  0.00  0.00    -0.453 OA
BRANCH   8   9
ATOM      9  C   UNL     1      -2.443  -2.799  24.408  0.00  0.00    +0.145 A 
ATOM     10  C   UNL     1      -2.906  -2.838  23.726  0.00  0.00    +0.037 A 
ATOM     11  C   UNL     1      -3.725  -2.917  23.787  0.00  0.00    +0.003 A 
ATOM     12  C   UNL     1      -4.082  -2.956  24.529  0.00  0.00    +0.000 A 
ATOM     13  C   UNL     1      -3.619  -2.917  25.212  0.00  0.00    +0.003 A 
ATOM     14  C   UNL     1      -2.800  -2.839  25.151  0.00  0.00    +0.037 A 
ENDBRANCH   8   9
ENDBRANCH   7   8
ENDBRANCH   3   4
ENDBRANCH  17   2
ENDBRANCH  18  17
BRANCH  22  26
ATOM     26  N   UNL     1      -1.334   4.102  25.463  0.00  0.00    -0.074 NA
BRANCH  26  27
ATOM     27  S   UNL     1      -2.154   4.048  25.542  0.00  0.00    +0.077 S 
ATOM     28  O   UNL     1      -2.060   3.734  26.300  0.00  0.00    -0.152 OA
ATOM     29  O   UNL     1      -2.248   4.362  24.785  0.00  0.00    -0.152 OA
BRANCH  27  30
ATOM     30  C   UNL     1      -2.974   3.994  25.621  0.00  0.00    +0.124 A 
ATOM     31  C   UNL     1      -3.381   3.367  25.276  0.00  0.00    +0.020 A 
ATOM     32  C   UNL     1      -4.200   3.313  25.356  0.00  0.00    +0.001 A 
ATOM     33  C   UNL     1      -4.609   2.685  25.010  0.00  0.00    +0.000 A 
ATOM     34  C   UNL     1      -5.427   2.631  25.089  0.00  0.00    +0.000 A 
ATOM     35  C   UNL     1      -5.839   3.207  25.515  0.00  0.00    +0.000 A 
ATOM     36  C   UNL     1      -5.432   3.835  25.860  0.00  0.00    +0.000 A 
ATOM     37  C   UNL     1      -4.612   3.889  25.781  0.00  0.00    +0.000 A 
ATOM     38  C   UNL     1      -4.204   4.516  26.126  0.00  0.00    +0.001 A 
ATOM     39  C   UNL     1      -3.386   4.570  26.047  0.00  0.00    +0.020 A 
ENDBRANCH  27  30
ENDBRANCH  26  27
ENDBRANCH  22  26
TORSDOF 8
ENDMDL
