MODEL 1
REMARK VINA RESULT:     -11.1      0.000      0.000
REMARK  Name = 
REMARK  5 active torsions:
REMARK  status: ('A' for Active; 'I' for Inactive)
REMARK    1  A    between atoms: O_2  and  C_3
REMARK    2  A    between atoms: C_6  and  C_9
REMARK    3  A    between atoms: C_12  and  C_14
REMARK    4  A    between atoms: N_19  and  C_20
REMARK    5  A    between atoms: C_20  and  C_21
REMARK                            x       y       z     vdW  Elec       q    Type
REMARK                         _______ _______ _______ _____ _____    ______ ____
ROOT
ATOM      9  C   UNL     1      -3.895   0.457  24.493  0.00  0.00    +0.203 A 
ATOM     10  N   UNL     1      -3.720   0.836  23.782  0.00  0.00    -0.056 NA
ATOM     11  O   UNL     1      -3.882   1.640  23.876  0.00  0.00    -0.336 OA
ATOM     12  C   UNL     1      -4.156   1.757  24.646  0.00  0.00    +0.251 A 
ATOM     13  N   UNL     1      -4.164   1.025  25.027  0.00  0.00    -0.190 NA
ENDROOT
BRANCH   9   6
ATOM      3  C   UNL     1      -3.653  -1.964  24.948  0.00  0.00    +0.139 A 
ATOM      4  C   UNL     1      -3.352  -1.413  25.482  0.00  0.00    +0.037 A 
ATOM      5  C   UNL     1      -3.433  -0.605  25.330  0.00  0.00    +0.006 A 
ATOM      6  C   UNL     1      -3.814  -0.351  24.645  0.00  0.00    +0.039 A 
ATOM      7  C   UNL     1      -4.115  -0.902  24.111  0.00  0.00    +0.006 A 
ATOM      8  C   UNL     1      -4.035  -1.710  24.262  0.00  0.00    +0.037 A 
BRANCH   3   2
ATOM      1  C   UNL     1      -3.267  -3.272  24.519  0.00  0.00    +0.252 C 
ATOM      2  O   UNL     1      -3.572  -2.772  25.099  0.00  0.00    -0.471 OA
ENDBRANCH   3   2
ENDBRANCH   9   6
BRANCH  12  14
ATOM     14  C   UNL     1      -4.382   2.479  24.976  0.00  0.00    +0.140 C 
ATOM     15  C   UNL     1      -5.154   2.712  25.152  0.00  0.00    +0.060 C 
ATOM     16  C   UNL     1      -5.124   3.471  25.472  0.00  0.00    +0.170 C 
ATOM     17  O   UNL     1      -5.771   3.916  25.725  0.00  0.00    -0.222 OA
ATOM     18  C   UNL     1      -4.334   3.708  25.494  0.00  0.00    +0.106 C 
ATOM     19  N   UNL     1      -3.875   3.095  25.187  0.00  0.00    -0.264 NA
BRANCH  19  20
ATOM     20  C   UNL     1      -3.054   3.097  25.107  0.00  0.00    +0.073 C 
BRANCH  20  21
ATOM     21  C   UNL     1      -2.609   3.707  25.442  0.00  0.00    +0.016 C 
ATOM     22  C   UNL     1      -2.248   4.049  26.100  0.00  0.00    +0.001 C 
ATOM     23  C   UNL     1      -2.200   4.419  25.364  0.00  0.00    +0.001 C 
ENDBRANCH  20  21
ENDBRANCH  19  20
ENDBRANCH  12  14
TORSDOF 5
ENDMDL
MODEL 2
REMARK VINA RESULT:      -9.9      1.380      4.919
REMARK  Name = 
REMARK  5 active torsions:
REMARK  status: ('A' for Active; 'I' for Inactive)
REMARK    1  A    between atoms: O_2  and  C_3
REMARK    2  A    between atoms: C_6  and  C_9
REMARK    3  A    between atoms: C_12  and  C_14
REMARK    4  A    between atoms: N_19  and  C_20
REMARK    5  A    between atoms: C_20  and  C_21
REMARK                            x       y       z     vdW  Elec       q    Type
REMARK                         _______ _______ _______ _____ _____    ______ ____
ROOT
ATOM      9  C   UNL     1      -3.684   1.455  24.512  0.00  0.00    +0.203 A 
ATOM     10  N   UNL     1      -3.494   1.385  23.712  0.00  0.00    -0.056 NA
ATOM     11  O   UNL     1      -2.954   0.766  23.632  0.00  0.00    -0.336 OA
ATOM     12  C   UNL     1      -2.811   0.453  24.383  0.00  0.00    +0.251 A 
ATOM     13  N   UNL     1      -3.263   0.880  24.926  0.00  0.00    -0.190 NA
ENDROOT
BRANCH   9   6
ATOM      3  C   UNL     1      -5.247   3.103  25.497  0.00  0.00    +0.139 A 
ATOM      4  C   UNL     1      -5.519   2.355  25.279  0.00  0.00    +0.037 A 
ATOM      5  C   UNL     1      -4.998   1.806  24.951  0.00  0.00    +0.006 A 
ATOM      6  C   UNL     1      -4.205   2.005  24.840  0.00  0.00    +0.039 A 
ATOM      7  C   UNL     1      -3.933   2.752  25.057  0.00  0.00    +0.006 A 
ATOM      8  C   UNL     1      -4.454   3.302  25.386  0.00  0.00    +0.037 A 
BRANCH   3   2
ATOM      1  C   UNL     1      -5.803   4.419  25.524  0.00  0.00    +0.252 C 
ATOM      2  O   UNL     1      -5.768   3.652  25.825  0.00  0.00    -0.471 OA
ENDBRANCH   3   2
ENDBRANCH   9   6
BRANCH  12  14
ATOM     14  C   UNL     1      -2.306  -0.175  24.558  0.00  0.00    +0.140 C 
ATOM     15  C   UNL     1      -1.500  -0.117  24.724  0.00  0.00    +0.060 C 
ATOM     16  C   UNL     1      -1.214  -0.878  24.866  0.00  0.00    +0.170 C 
ATOM     17  O   UNL     1      -0.435  -1.076  25.053  0.00  0.00    -0.222 OA
ATOM     18  C   UNL     1      -1.843  -1.406  24.788  0.00  0.00    +0.106 C 
ATOM     19  N   UNL     1      -2.519  -0.971  24.598  0.00  0.00    -0.264 NA
BRANCH  19  20
ATOM     20  C   UNL     1      -3.273  -1.279  24.470  0.00  0.00    +0.073 C 
BRANCH  20  21
ATOM     21  C   UNL     1      -3.407  -2.090  24.552  0.00  0.00    +0.016 C 
ATOM     22  C   UNL     1      -3.542  -2.829  24.213  0.00  0.00    +0.001 C 
ATOM     23  C   UNL     1      -3.502  -2.753  25.034  0.00  0.00    +0.001 C 
ENDBRANCH  20  21
ENDBRANCH  19  20
ENDBRANCH  12  14
TORSDOF 5
ENDMDL
MODEL 3
REMARK VINA RESULT:      -9.7      2.044      2.707
REMARK  Name = 
REMARK  5 active torsions:
REMARK  status: ('A' for Active; 'I' for Inactive)
REMARK    1  A    between atoms: O_2  and  C_3
REMARK    2  A    between atoms: C_6  and  C_9
REMARK    3  A    between atoms: C_12  and  C_14
REMARK    4  A    between atoms: N_19  and  C_20
REMARK    5  A    between atoms: C_20  and  C_21
REMARK                            x       y       z     vdW  Elec       q    Type
REMARK                         _______ _______ _______ _____ _____    ______ ____
ROOT
ATOM      9  C   UNL     1      -2.021   0.154  24.636  0.00  0.00    +0.203 A 
ATOM     10  N   UNL     1      -1.852   0.556  23.936  0.00  0.00    -0.056 NA
ATOM     11  O   UNL     1      -1.432   1.240  24.131  0.00  0.00    -0.336 OA
ATOM     12  C   UNL     1      -1.342   1.259  24.951  0.00  0.00    +0.251 A 
ATOM     13  N   UNL     1      -1.707   0.588  25.263  0.00  0.00    -0.190 NA
ENDROOT
BRANCH   9   6
ATOM      3  C   UNL     1      -3.257  -1.983  24.823  0.00  0.00    +0.139 A 
ATOM      4  C   UNL     1      -2.434  -1.985  24.773  0.00  0.00    +0.037 A 
ATOM      5  C   UNL     1      -2.022  -1.273  24.711  0.00  0.00    +0.006 A 
ATOM      6  C   UNL     1      -2.434  -0.559  24.698  0.00  0.00    +0.039 A 
ATOM      7  C   UNL     1      -3.257  -0.556  24.748  0.00  0.00    +0.006 A 
ATOM      8  C   UNL     1      -3.669  -1.268  24.810  0.00  0.00    +0.037 A 
BRANCH   3   2
ATOM      1  C   UNL     1      -3.947  -3.071  24.206  0.00  0.00    +0.252 C 
ATOM      2  O   UNL     1      -3.669  -2.695  24.885  0.00  0.00    -0.471 OA
ENDBRANCH   3   2
ENDBRANCH   9   6
BRANCH  12  14
ATOM     14  C   UNL     1      -0.956   1.847  25.382  0.00  0.00    +0.140 C 
ATOM     15  C   UNL     1      -0.215   1.780  25.738  0.00  0.00    +0.060 C 
ATOM     16  C   UNL     1      -0.045   2.497  26.109  0.00  0.00    +0.170 C 
ATOM     17  O   UNL     1       0.641   2.673  26.533  0.00  0.00    -0.222 OA
ATOM     18  C   UNL     1      -0.680   3.008  25.982  0.00  0.00    +0.106 C 
ATOM     19  N   UNL     1      -1.244   2.605  25.533  0.00  0.00    -0.264 NA
BRANCH  19  20
ATOM     20  C   UNL     1      -1.968   2.910  25.279  0.00  0.00    +0.073 C 
BRANCH  20  21
ATOM     21  C   UNL     1      -2.212   3.657  25.532  0.00  0.00    +0.016 C 
ATOM     22  C   UNL     1      -2.661   4.128  26.038  0.00  0.00    +0.001 C 
ATOM     23  C   UNL     1      -2.186   4.479  25.462  0.00  0.00    +0.001 C 
ENDBRANCH  20  21
ENDBRANCH  19  20
ENDBRANCH  12  14
TORSDOF 5
ENDMDL
MODEL 4
REMARK VINA RESULT:      -9.5      2.088      5.426
REMARK  Name = 
REMARK  5 active torsions:
REMARK  status: ('A' for Active; 'I' for Inactive)
REMARK    1  A    between atoms: O_2  and  C_3
REMARK    2  A    between atoms: C_6  and  C_9
REMARK    3  A    between atoms: C_12  and  C_14
REMARK    4  A    between atoms: N_19  and  C_20
REMARK    5  A    between atoms: C_20  and  C_21
REMARK                            x       y       z     vdW  Elec       q    Type
REMARK                         _______ _______ _______ _____ _____    ______ ____
ROOT
ATOM      9  C   UNL     1      -1.558   1.794  24.526  0.00  0.00    +0.203 A 
ATOM     10  N   UNL     1      -1.602   1.545  23.741  0.00  0.00    -0.056 NA
ATOM     11  O   UNL     1      -1.517   0.724  23.730  0.00  0.00    -0.336 OA
ATOM     12  C   UNL     1      -1.421   0.466  24.508  0.00  0.00    +0.251 A 
ATOM     13  N   UNL     1      -1.446   1.128  25.000  0.00  0.00    -0.190 NA
ENDROOT
BRANCH   9   6
ATOM      3  C   UNL     1      -1.729   4.132  25.322  0.00  0.00    +0.139 A 
ATOM      4  C   UNL     1      -0.998   3.828  25.089  0.00  0.00    +0.037 A 
ATOM      5  C   UNL     1      -0.941   3.048  24.824  0.00  0.00    +0.006 A 
ATOM      6  C   UNL     1      -1.615   2.574  24.792  0.00  0.00    +0.039 A 
ATOM      7  C   UNL     1      -2.345   2.878  25.024  0.00  0.00    +0.006 A 
ATOM      8  C   UNL     1      -2.402   3.657  25.289  0.00  0.00    +0.037 A 
BRANCH   3   2
ATOM      1  C   UNL     1      -1.522   5.530  25.110  0.00  0.00    +0.252 C 
ATOM      2  O   UNL     1      -1.786   4.911  25.587  0.00  0.00    -0.471 OA
ENDBRANCH   3   2
ENDBRANCH   9   6
BRANCH  12  14
ATOM     14  C   UNL     1      -1.319  -0.316  24.751  0.00  0.00    +0.140 C 
ATOM     15  C   UNL     1      -0.607  -0.662  24.984  0.00  0.00    +0.060 C 
ATOM     16  C   UNL     1      -0.759  -1.449  25.179  0.00  0.00    +0.170 C 
ATOM     17  O   UNL     1      -0.203  -1.999  25.441  0.00  0.00    -0.222 OA
ATOM     18  C   UNL     1      -1.564  -1.589  25.068  0.00  0.00    +0.106 C 
ATOM     19  N   UNL     1      -1.910  -0.888  24.803  0.00  0.00    -0.264 NA
BRANCH  19  20
ATOM     20  C   UNL     1      -2.708  -0.780  24.622  0.00  0.00    +0.073 C 
BRANCH  20  21
ATOM     21  C   UNL     1      -3.232  -1.417  24.671  0.00  0.00    +0.016 C 
ATOM     22  C   UNL     1      -3.699  -1.923  25.124  0.00  0.00    +0.001 C 
ATOM     23  C   UNL     1      -3.671  -2.011  24.304  0.00  0.00    +0.001 C 
ENDBRANCH  20  21
ENDBRANCH  19  20
ENDBRANCH  12  14
TORSDOF 5
ENDMDL
