MODEL 1
REMARK VINA RESULT:     -12.2      0.000      0.000
REMARK  Name = 
REMARK  7 active torsions:
REMARK  status: ('A' for Active; 'I' for Inactive)
REMARK    1  A    between atoms: C_2  and  C_4
REMARK    2  A    between atoms: C_4  and  C_5
REMARK    3  A    between atoms: C_4  and  N_12
REMARK    4  A    between atoms: C_5  and  C_6
REMARK    5  A    between atoms: C_13  and  C_15
REMARK    6  A    between atoms: C_22  and  N_24
REMARK    7  A    between atoms: N_27  and  C_28
REMARK                            x       y       z     vdW  Elec       q    Type
REMARK                         _______ _______ _______ _____ _____    ______ ____
ROOT
ATOM     15  C   UNL     1      -1.142   0.673  24.911  0.00  0.00    +0.200 C 
ATOM     16  O   UNL     1      -1.709   1.216  25.166  0.00  0.00    -0.216 OA
ATOM     17  C   UNL     1      -0.414   0.366  24.675  0.00  0.00    +0.075 C 
ATOM     18  C   UNL     1      -0.347  -0.432  24.477  0.00  0.00    +0.187 C 
ATOM     19  O   UNL     1       0.381  -0.738  24.240  0.00  0.00    -0.220 OA
ATOM     20  C   UNL     1      -1.009  -0.924  24.516  0.00  0.00    +0.202 C 
ATOM     21  O   UNL     1      -0.941  -1.721  24.318  0.00  0.00    -0.219 OA
ATOM     22  C   UNL     1      -1.737  -0.616  24.753  0.00  0.00    +0.133 C 
ATOM     23  C   UNL     1      -1.803   0.181  24.951  0.00  0.00    +0.064 C 
ENDROOT
BRANCH  22  24
ATOM     24  N   UNL     1      -2.398  -1.108  24.792  0.00  0.00    -0.186 NA
ATOM     25  C   UNL     1      -2.731  -1.293  25.524  0.00  0.00    +0.339 C 
ATOM     26  O   UNL     1      -2.403  -0.987  26.216  0.00  0.00    -0.249 OA
ATOM     27  N   UNL     1      -3.392  -1.786  25.563  0.00  0.00    -0.189 NA
BRANCH  27  28
ATOM     28  C   UNL     1      -3.720  -2.092  24.871  0.00  0.00    +0.097 C 
ATOM     29  C   UNL     1      -3.575  -2.875  24.658  0.00  0.00    +0.022 C 
ATOM     30  C   UNL     1      -3.903  -3.182  23.965  0.00  0.00    +0.002 C 
ATOM     31  C   UNL     1      -4.377  -2.705  23.487  0.00  0.00    +0.000 C 
ATOM     32  C   UNL     1      -4.522  -1.921  23.701  0.00  0.00    +0.002 C 
ATOM     33  C   UNL     1      -4.194  -1.615  24.392  0.00  0.00    +0.022 C 
ENDBRANCH  27  28
ENDBRANCH  22  24
BRANCH  15  13
ATOM     12  N   UNL     1      -0.881   1.955  25.486  0.00  0.00    -0.195 NA
ATOM     13  C   UNL     1      -0.678   1.353  24.961  0.00  0.00    +0.269 C 
ATOM     14  O   UNL     1      -0.009   1.431  24.483  0.00  0.00    -0.271 OA
BRANCH  12   4
ATOM      4  C   UNL     1      -0.417   2.635  25.536  0.00  0.00    +0.179 C 
BRANCH   4   2
ATOM      1  N   UNL     1      -0.150   2.619  26.940  0.00  0.00    -0.086 NA
ATOM      2  C   UNL     1       0.109   2.730  26.164  0.00  0.00    +0.281 C 
ATOM      3  O   UNL     1       0.894   2.936  26.018  0.00  0.00    -0.270 OA
ENDBRANCH   4   2
BRANCH   4   5
ATOM      5  C   UNL     1      -0.479   3.220  24.958  0.00  0.00    +0.057 C 
BRANCH   5   6
ATOM      6  C   UNL     1      -0.956   3.880  25.087  0.00  0.00    -0.020 A 
ATOM      7  C   UNL     1      -1.699   3.792  25.434  0.00  0.00    -0.004 A 
ATOM      8  C   UNL     1      -2.176   4.452  25.563  0.00  0.00    -0.000 A 
ATOM      9  C   UNL     1      -1.910   5.202  25.345  0.00  0.00    -0.000 A 
ATOM     10  C   UNL     1      -1.166   5.291  24.998  0.00  0.00    -0.000 A 
ATOM     11  C   UNL     1      -0.690   4.630  24.870  0.00  0.00    -0.004 A 
ENDBRANCH   5   6
ENDBRANCH   4   5
ENDBRANCH  12   4
ENDBRANCH  15  13
TORSDOF 7
ENDMDL
MODEL 2
REMARK VINA RESULT:     -11.2      0.855      5.398
REMARK  Name = 
REMARK  7 active torsions:
REMARK  status: ('A' for Active; 'I' for Inactive)
REMARK    1  A    between atoms: C_2  and  C_4
REMARK    2  A    between atoms: C_4  and  C_5
REMARK    3  A    between atoms: C_4  and  N_12
REMARK    4  A    between atoms: C_5  and  C_6
REMARK    5  A    between atoms: C_13  and  C_15
REMARK    6  A    between atoms: C_22  and  N_24
REMARK    7  A    between atoms: N_27  and  C_28
REMARK                            x       y       z     vdW  Elec       q    Type
REMARK                         _______ _______ _______ _____ _____    ______ ____
ROOT
ATOM     15  C   UNL     1      -1.103   0.299  25.247  0.00  0.00    +0.200 C 
ATOM     16  O   UNL     1      -1.685   0.249  25.830  0.00  0.00    -0.216 OA
ATOM     17  C   UNL     1      -0.563   0.066  24.669  0.00  0.00    +0.075 C 
ATOM     18  C   UNL     1      -0.105   0.630  24.280  0.00  0.00    +0.187 C 
ATOM     19  O   UNL     1       0.435   0.397  23.702  0.00  0.00    -0.220 OA
ATOM     20  C   UNL     1      -0.185   1.430  24.470  0.00  0.00    +0.202 C 
ATOM     21  O   UNL     1       0.274   1.994  24.082  0.00  0.00    -0.219 OA
ATOM     22  C   UNL     1      -0.726   1.663  25.049  0.00  0.00    +0.133 C 
ATOM     23  C   UNL     1      -1.184   1.098  25.437  0.00  0.00    +0.064 C 
ENDROOT
BRANCH  22  24
ATOM     24  N   UNL     1      -0.806   2.462  25.238  0.00  0.00    -0.186 NA
ATOM     25  C   UNL     1      -0.434   2.765  25.909  0.00  0.00    +0.339 C 
ATOM     26  O   UNL     1       0.018   2.270  26.389  0.00  0.00    -0.249 OA
ATOM     27  N   UNL     1      -0.514   3.565  26.099  0.00  0.00    -0.189 NA
BRANCH  27  28
ATOM     28  C   UNL     1      -0.966   4.059  25.619  0.00  0.00    +0.097 C 
ATOM     29  C   UNL     1      -1.787   4.073  25.698  0.00  0.00    +0.022 C 
ATOM     30  C   UNL     1      -2.241   4.568  25.217  0.00  0.00    +0.002 C 
ATOM     31  C   UNL     1      -1.872   5.049  24.658  0.00  0.00    +0.000 C 
ATOM     32  C   UNL     1      -1.050   5.036  24.579  0.00  0.00    +0.002 C 
ATOM     33  C   UNL     1      -0.598   4.541  25.059  0.00  0.00    +0.022 C 
ENDBRANCH  27  28
ENDBRANCH  22  24
BRANCH  15  13
ATOM     12  N   UNL     1      -1.763  -0.862  24.739  0.00  0.00    -0.195 NA
ATOM     13  C   UNL     1      -1.225  -0.517  25.260  0.00  0.00    +0.269 C 
ATOM     14  O   UNL     1      -0.807  -0.987  25.794  0.00  0.00    -0.271 OA
BRANCH  12   4
ATOM      4  C   UNL     1      -1.884  -1.678  24.752  0.00  0.00    +0.179 C 
BRANCH   4   2
ATOM      1  N   UNL     1      -0.943  -2.745  24.896  0.00  0.00    -0.086 NA
ATOM      2  C   UNL     1      -1.322  -2.184  24.423  0.00  0.00    +0.281 C 
ATOM      3  O   UNL     1      -1.137  -2.129  23.621  0.00  0.00    -0.270 OA
ENDBRANCH   4   2
BRANCH   4   5
ATOM      5  C   UNL     1      -2.567  -1.989  25.094  0.00  0.00    +0.057 C 
BRANCH   5   6
ATOM      6  C   UNL     1      -3.256  -2.066  24.646  0.00  0.00    -0.020 A 
ATOM      7  C   UNL     1      -3.699  -1.399  24.452  0.00  0.00    -0.004 A 
ATOM      8  C   UNL     1      -4.388  -1.476  24.003  0.00  0.00    -0.000 A 
ATOM      9  C   UNL     1      -4.632  -2.222  23.749  0.00  0.00    -0.000 A 
ATOM     10  C   UNL     1      -4.188  -2.891  23.943  0.00  0.00    -0.000 A 
ATOM     11  C   UNL     1      -3.500  -2.812  24.392  0.00  0.00    -0.004 A 
ENDBRANCH   5   6
ENDBRANCH   4   5
ENDBRANCH  12   4
ENDBRANCH  15  13
TORSDOF 7
ENDMDL
MODEL 3
REMARK VINA RESULT:     -11.0      1.996      5.954
REMARK  Name = 
REMARK  7 active torsions:
REMARK  status: ('A' for Active; 'I' for Inactive)
REMARK    1  A    between atoms: C_2  and  C_4
REMARK    2  A    between atoms: C_4  and  C_5
REMARK    3  A    between atoms: C_4  and  N_12
REMARK    4  A    between atoms: C_5  and  C_6
REMARK    5  A    between atoms: C_13  and  C_15
REMARK    6  A    between atoms: C_22  and  N_24
REMARK    7  A    between atoms: N_27  and  C_28
REMARK                            x       y       z     vdW  Elec       q    Type
REMARK                         _______ _______ _______ _____ _____    ______ ____
ROOT
ATOM     15  C   UNL     1      -3.464   1.379  24.999  0.00  0.00    +0.200 C 
ATOM     16  O   UNL     1      -2.858   0.983  25.395  0.00  0.00    -0.216 OA
ATOM     17  C   UNL     1      -4.167   1.506  24.586  0.00  0.00    +0.075 C 
ATOM     18  C   UNL     1      -4.380   2.270  24.360  0.00  0.00    +0.187 C 
ATOM     19  O   UNL     1      -5.083   2.396  23.947  0.00  0.00    -0.220 OA
ATOM     20  C   UNL     1      -3.892   2.908  24.548  0.00  0.00    +0.202 C 
ATOM     21  O   UNL     1      -4.106   3.671  24.322  0.00  0.00    -0.219 OA
ATOM     22  C   UNL     1      -3.189   2.780  24.961  0.00  0.00    +0.133 C 
ATOM     23  C   UNL     1      -2.975   2.017  25.186  0.00  0.00    +0.064 C 
ENDROOT
BRANCH  22  24
ATOM     24  N   UNL     1      -2.700   3.419  25.148  0.00  0.00    -0.186 NA
ATOM     25  C   UNL     1      -2.776   3.794  25.879  0.00  0.00    +0.339 C 
ATOM     26  O   UNL     1      -3.339   3.531  26.422  0.00  0.00    -0.249 OA
ATOM     27  N   UNL     1      -2.287   4.432  26.067  0.00  0.00    -0.189 NA
BRANCH  27  28
ATOM     28  C   UNL     1      -1.724   4.694  25.524  0.00  0.00    +0.097 C 
ATOM     29  C   UNL     1      -1.051   4.241  25.378  0.00  0.00    +0.022 C 
ATOM     30  C   UNL     1      -0.487   4.503  24.835  0.00  0.00    +0.002 C 
ATOM     31  C   UNL     1      -0.597   5.218  24.439  0.00  0.00    +0.000 C 
ATOM     32  C   UNL     1      -1.271   5.672  24.585  0.00  0.00    +0.002 C 
ATOM     33  C   UNL     1      -1.834   5.410  25.128  0.00  0.00    +0.022 C 
ENDBRANCH  27  28
ENDBRANCH  22  24
BRANCH  15  13
ATOM     12  N   UNL     1      -3.321   0.041  24.519  0.00  0.00    -0.195 NA
ATOM     13  C   UNL     1      -3.742   0.604  24.949  0.00  0.00    +0.269 C 
ATOM     14  O   UNL     1      -4.443   0.392  25.330  0.00  0.00    -0.271 OA
BRANCH  12   4
ATOM      4  C   UNL     1      -3.598  -0.735  24.469  0.00  0.00    +0.179 C 
BRANCH   4   2
ATOM      1  N   UNL     1      -4.812  -1.348  24.027  0.00  0.00    -0.086 NA
ATOM      2  C   UNL     1      -4.108  -0.951  23.857  0.00  0.00    +0.281 C 
ATOM      3  O   UNL     1      -3.915  -0.771  23.076  0.00  0.00    -0.270 OA
ENDBRANCH   4   2
BRANCH   4   5
ATOM      5  C   UNL     1      -3.368  -1.293  25.030  0.00  0.00    +0.057 C 
BRANCH   5   6
ATOM      6  C   UNL     1      -2.694  -1.753  24.903  0.00  0.00    -0.020 A 
ATOM      7  C   UNL     1      -1.951  -1.464  25.113  0.00  0.00    -0.004 A 
ATOM      8  C   UNL     1      -1.278  -1.924  24.985  0.00  0.00    -0.000 A 
ATOM      9  C   UNL     1      -1.349  -2.673  24.647  0.00  0.00    -0.000 A 
ATOM     10  C   UNL     1      -2.093  -2.963  24.437  0.00  0.00    -0.000 A 
ATOM     11  C   UNL     1      -2.765  -2.502  24.565  0.00  0.00    -0.004 A 
ENDBRANCH   5   6
ENDBRANCH   4   5
ENDBRANCH  12   4
ENDBRANCH  15  13
TORSDOF 7
ENDMDL
MODEL 4
REMARK VINA RESULT:     -10.8      2.172      2.659
REMARK  Name = 
REMARK  7 active torsions:
REMARK  status: ('A' for Active; 'I' for Inactive)
REMARK    1  A    between atoms: C_2  and  C_4
REMARK    2  A    between atoms: C_4  and  C_5
REMARK    3  A    between atoms: C_4  and  N_12
REMARK    4  A    between atoms: C_5  and  C_6
REMARK    5  A    between atoms: C_13  and  C_15
REMARK    6  A    between atoms: C_22  and  N_24
REMARK    7  A    between atoms: N_27  and  C_28
REMARK                            x       y       z     vdW  Elec       q    Type
REMARK                         _______ _______ _______ _____ _____    ______ ____
ROOT
ATOM     15  C   UNL     1      -3.642   1.821  24.666  0.00  0.00    +0.200 C 
ATOM     16  O   UNL     1      -3.904   1.826  25.449  0.00  0.00    -0.216 OA
ATOM     17  C   UNL     1      -3.377   2.098  23.936  0.00  0.00    +0.075 C 
ATOM     18  C   UNL     1      -3.212   1.565  23.329  0.00  0.00    +0.187 C 
ATOM     19  O   UNL     1      -2.947   1.842  22.598  0.00  0.00    -0.220 OA
ATOM     20  C   UNL     1      -3.313   0.755  23.450  0.00  0.00    +0.202 C 
ATOM     21  O   UNL     1      -3.149   0.223  22.842  0.00  0.00    -0.219 OA
ATOM     22  C   UNL     1      -3.578   0.479  24.181  0.00  0.00    +0.133 C 
ATOM     23  C   UNL     1      -3.743   1.011  24.789  0.00  0.00    +0.064 C 
ENDROOT
BRANCH  22  24
ATOM     24  N   UNL     1      -3.679  -0.331  24.303  0.00  0.00    -0.186 NA
ATOM     25  C   UNL     1      -4.439  -0.646  24.370  0.00  0.00    +0.339 C 
ATOM     26  O   UNL     1      -5.097  -0.151  24.315  0.00  0.00    -0.249 OA
ATOM     27  N   UNL     1      -4.540  -1.456  24.492  0.00  0.00    -0.189 NA
BRANCH  27  28
ATOM     28  C   UNL     1      -3.882  -1.950  24.546  0.00  0.00    +0.097 C 
ATOM     29  C   UNL     1      -3.429  -1.958  25.235  0.00  0.00    +0.022 C 
ATOM     30  C   UNL     1      -2.770  -2.453  25.290  0.00  0.00    +0.002 C 
ATOM     31  C   UNL     1      -2.566  -2.939  24.656  0.00  0.00    +0.000 C 
ATOM     32  C   UNL     1      -3.020  -2.931  23.966  0.00  0.00    +0.002 C 
ATOM     33  C   UNL     1      -3.678  -2.437  23.912  0.00  0.00    +0.022 C 
ENDBRANCH  27  28
ENDBRANCH  22  24
BRANCH  15  13
ATOM     12  N   UNL     1      -3.032   2.960  25.278  0.00  0.00    -0.195 NA
ATOM     13  C   UNL     1      -3.632   2.632  24.817  0.00  0.00    +0.269 C 
ATOM     14  O   UNL     1      -4.223   3.116  24.505  0.00  0.00    -0.271 OA
BRANCH  12   4
ATOM      4  C   UNL     1      -3.022   3.771  25.428  0.00  0.00    +0.179 C 
BRANCH   4   2
ATOM      1  N   UNL     1      -3.951   4.599  26.132  0.00  0.00    -0.086 NA
ATOM      2  C   UNL     1      -3.323   4.062  26.139  0.00  0.00    +0.281 C 
ATOM      3  O   UNL     1      -2.998   3.817  26.856  0.00  0.00    -0.270 OA
ENDBRANCH   4   2
BRANCH   4   5
ATOM      5  C   UNL     1      -2.712   4.291  24.868  0.00  0.00    +0.057 C 
BRANCH   5   6
ATOM      6  C   UNL     1      -1.919   4.515  24.908  0.00  0.00    -0.020 A 
ATOM      7  C   UNL     1      -1.328   3.941  24.946  0.00  0.00    -0.004 A 
ATOM      8  C   UNL     1      -0.535   4.166  24.986  0.00  0.00    -0.000 A 
ATOM      9  C   UNL     1      -0.333   4.965  24.987  0.00  0.00    -0.000 A 
ATOM     10  C   UNL     1      -0.924   5.541  24.949  0.00  0.00    -0.000 A 
ATOM     11  C   UNL     1      -1.717   5.315  24.910  0.00  0.00    -0.004 A 
ENDBRANCH   5   6
ENDBRANCH   4   5
ENDBRANCH  12   4
ENDBRANCH  15  13
TORSDOF 7
ENDMDL
MODEL 5
REMARK VINA RESULT:     -10.5      2.378      5.460
REMARK  Name = 
REMARK  7 active torsions:
REMARK  status: ('A' for Active; 'I' for Inactive)
REMARK    1  A    between atoms: C_2  and  C_4
REMARK    2  A    between atoms: C_4  and  C_5
REMARK    3  A    between atoms: C_4  and  N_12
REMARK    4  A    between atoms: C_5  and  C_6
REMARK    5  A    between atoms: C_13  and  C_15
REMARK    6  A    between atoms: C_22  and  N_24
REMARK    7  A    between atoms: N_27  and  C_28
REMARK                            x       y       z     vdW  Elec       q    Type
REMARK                         _______ _______ _______ _____ _____    ______ ____
ROOT
ATOM     15  C   UNL     1      -0.536   0.343  24.371  0.00  0.00    +0.200 C 
ATOM     16  O   UNL     1      -0.686  -0.461  24.262  0.00  0.00    -0.216 OA
ATOM     17  C   UNL     1      -0.644   1.126  24.606  0.00  0.00    +0.075 C 
ATOM     18  C   UNL     1      -0.065   1.690  24.439  0.00  0.00    +0.187 C 
ATOM     19  O   UNL     1      -0.173   2.473  24.674  0.00  0.00    -0.220 OA
ATOM     20  C   UNL     1       0.621   1.471  24.036  0.00  0.00    +0.202 C 
ATOM     21  O   UNL     1       1.199   2.035  23.870  0.00  0.00    -0.219 OA
ATOM     22  C   UNL     1       0.728   0.687  23.801  0.00  0.00    +0.133 C 
ATOM     23  C   UNL     1       0.149   0.124  23.968  0.00  0.00    +0.064 C 
ENDROOT
BRANCH  22  24
ATOM     24  N   UNL     1       1.414   0.468  23.399  0.00  0.00    -0.186 NA
ATOM     25  C   UNL     1       1.359   0.103  22.660  0.00  0.00    +0.339 C 
ATOM     26  O   UNL     1       0.620  -0.042  22.325  0.00  0.00    -0.249 OA
ATOM     27  N   UNL     1       2.046  -0.116  22.258  0.00  0.00    -0.189 NA
BRANCH  27  28
ATOM     28  C   UNL     1       2.785   0.029  22.593  0.00  0.00    +0.097 C 
ATOM     29  C   UNL     1       3.120  -0.522  23.106  0.00  0.00    +0.022 C 
ATOM     30  C   UNL     1       3.860  -0.378  23.442  0.00  0.00    +0.002 C 
ATOM     31  C   UNL     1       4.265   0.319  23.264  0.00  0.00    +0.000 C 
ATOM     32  C   UNL     1       3.929   0.871  22.750  0.00  0.00    +0.002 C 
ATOM     33  C   UNL     1       3.190   0.726  22.415  0.00  0.00    +0.022 C 
ENDBRANCH  27  28
ENDBRANCH  22  24
BRANCH  15  13
ATOM     12  N   UNL     1      -1.932   0.043  24.300  0.00  0.00    -0.195 NA
ATOM     13  C   UNL     1      -1.274   0.283  24.735  0.00  0.00    +0.269 C 
ATOM     14  O   UNL     1      -1.354   0.462  25.537  0.00  0.00    -0.271 OA
BRANCH  12   4
ATOM      4  C   UNL     1      -2.670  -0.017  24.664  0.00  0.00    +0.179 C 
BRANCH   4   2
ATOM      1  N   UNL     1      -3.606   0.893  25.246  0.00  0.00    -0.086 NA
ATOM      2  C   UNL     1      -3.221   0.591  24.581  0.00  0.00    +0.281 C 
ATOM      3  O   UNL     1      -3.389   0.896  23.833  0.00  0.00    -0.270 OA
ENDBRANCH   4   2
BRANCH   4   5
ATOM      5  C   UNL     1      -2.856  -0.684  25.112  0.00  0.00    +0.057 C 
BRANCH   5   6
ATOM      6  C   UNL     1      -3.223  -1.332  24.755  0.00  0.00    -0.020 A 
ATOM      7  C   UNL     1      -3.861  -1.216  24.247  0.00  0.00    -0.004 A 
ATOM      8  C   UNL     1      -4.228  -1.864  23.890  0.00  0.00    -0.000 A 
ATOM      9  C   UNL     1      -3.956  -2.627  24.044  0.00  0.00    -0.000 A 
ATOM     10  C   UNL     1      -3.317  -2.743  24.553  0.00  0.00    -0.000 A 
ATOM     11  C   UNL     1      -2.951  -2.095  24.909  0.00  0.00    -0.004 A 
ENDBRANCH   5   6
ENDBRANCH   4   5
ENDBRANCH  12   4
ENDBRANCH  15  13
TORSDOF 7
ENDMDL
MODEL 6
REMARK VINA RESULT:     -10.2      2.005      5.132
REMARK  Name = 
REMARK  7 active torsions:
REMARK  status: ('A' for Active; 'I' for Inactive)
REMARK    1  A    between atoms: C_2  and  C_4
REMARK    2  A    between atoms: C_4  and  C_5
REMARK    3  A    between atoms: C_4  and  N_12
REMARK    4  A    between atoms: C_5  and  C_6
REMARK    5  A    between atoms: C_13  and  C_15
REMARK    6  A    between atoms: C_22  and  N_24
REMARK    7  A    between atoms: N_27  and  C_28
REMARK                            x       y       z     vdW  Elec       q    Type
REMARK                         _______ _______ _______ _____ _____    ______ ____
ROOT
ATOM     15  C   UNL     1      -2.113   0.887  24.596  0.00  0.00    +0.200 C 
ATOM     16  O   UNL     1      -2.082   0.605  25.371  0.00  0.00    -0.216 OA
ATOM     17  C   UNL     1      -1.987   0.931  23.782  0.00  0.00    +0.075 C 
ATOM     18  C   UNL     1      -2.300   1.560  23.351  0.00  0.00    +0.187 C 
ATOM     19  O   UNL     1      -2.174   1.604  22.537  0.00  0.00    -0.220 OA
ATOM     20  C   UNL     1      -2.738   2.146  23.732  0.00  0.00    +0.202 C 
ATOM     21  O   UNL     1      -3.051   2.774  23.300  0.00  0.00    -0.219 OA
ATOM     22  C   UNL     1      -2.863   2.101  24.547  0.00  0.00    +0.133 C 
ATOM     23  C   UNL     1      -2.551   1.472  24.978  0.00  0.00    +0.064 C 
ENDROOT
BRANCH  22  24
ATOM     24  N   UNL     1      -3.302   2.687  24.929  0.00  0.00    -0.186 NA
ATOM     25  C   UNL     1      -2.917   3.258  25.383  0.00  0.00    +0.339 C 
ATOM     26  O   UNL     1      -2.096   3.244  25.455  0.00  0.00    -0.249 OA
ATOM     27  N   UNL     1      -3.356   3.844  25.765  0.00  0.00    -0.189 NA
BRANCH  27  28
ATOM     28  C   UNL     1      -4.177   3.858  25.692  0.00  0.00    +0.097 C 
ATOM     29  C   UNL     1      -4.637   3.312  26.106  0.00  0.00    +0.022 C 
ATOM     30  C   UNL     1      -5.459   3.325  26.034  0.00  0.00    +0.002 C 
ATOM     31  C   UNL     1      -5.821   3.885  25.549  0.00  0.00    +0.000 C 
ATOM     32  C   UNL     1      -5.361   4.432  25.134  0.00  0.00    +0.002 C 
ATOM     33  C   UNL     1      -4.540   4.418  25.206  0.00  0.00    +0.022 C 
ENDBRANCH  27  28
ENDBRANCH  22  24
BRANCH  15  13
ATOM     12  N   UNL     1      -1.901  -0.508  24.826  0.00  0.00    -0.195 NA
ATOM     13  C   UNL     1      -1.664   0.204  24.484  0.00  0.00    +0.269 C 
ATOM     14  O   UNL     1      -0.976   0.233  24.029  0.00  0.00    -0.271 OA
BRANCH  12   4
ATOM      4  C   UNL     1      -1.452  -1.191  24.714  0.00  0.00    +0.179 C 
BRANCH   4   2
ATOM      1  N   UNL     1      -0.045  -1.441  24.705  0.00  0.00    -0.086 NA
ATOM      2  C   UNL     1      -0.742  -1.289  25.121  0.00  0.00    +0.281 C 
ATOM      3  O   UNL     1      -0.727  -1.234  25.944  0.00  0.00    -0.270 OA
ENDBRANCH   4   2
BRANCH   4   5
ATOM      5  C   UNL     1      -1.713  -1.776  24.195  0.00  0.00    +0.057 C 
BRANCH   5   6
ATOM      6  C   UNL     1      -2.415  -2.182  24.349  0.00  0.00    -0.020 A 
ATOM      7  C   UNL     1      -2.475  -2.663  25.016  0.00  0.00    -0.004 A 
ATOM      8  C   UNL     1      -3.177  -3.070  25.170  0.00  0.00    -0.000 A 
ATOM      9  C   UNL     1      -3.818  -2.995  24.656  0.00  0.00    -0.000 A 
ATOM     10  C   UNL     1      -3.758  -2.513  23.988  0.00  0.00    -0.000 A 
ATOM     11  C   UNL     1      -3.056  -2.107  23.835  0.00  0.00    -0.004 A 
ENDBRANCH   5   6
ENDBRANCH   4   5
ENDBRANCH  12   4
ENDBRANCH  15  13
TORSDOF 7
ENDMDL
