MODEL 1
REMARK VINA RESULT:     -11.6      0.000      0.000
REMARK  Name = 
REMARK  5 active torsions:
REMARK  status: ('A' for Active; 'I' for Inactive)
REMARK    1  A    between atoms: N_9  and  C_10
REMARK    2  A    between atoms: C_10  and  C_11
REMARK    3  A    between atoms: C_24  and  C_25
REMARK    4  A    between atoms: C_26  and  C_27
REMARK    5  A    between atoms: C_27  and  N_28
REMARK                            x       y       z     vdW  Elec       q    Type
REMARK                         _______ _______ _______ _____ _____    ______ ____
ROOT
ATOM      1  O   UNL     1      -1.322   1.498  23.245  0.00  0.00    -0.267 OA
ATOM      2  C   UNL     1      -1.589   1.024  23.865  0.00  0.00    +0.261 A 
ATOM      3  N   UNL     1      -1.107   0.424  24.162  0.00  0.00    -0.299 N 
ATOM      4  C   UNL     1      -1.791   0.353  24.637  0.00  0.00    +0.110 C 
ATOM      5  C   UNL     1      -1.518  -0.403  25.210  0.00  0.00    +0.039 C 
ATOM      6  C   UNL     1      -1.446  -1.006  25.754  0.00  0.00    +0.011 C 
ATOM      7  C   UNL     1      -1.059  -0.718  25.244  0.00  0.00    +0.054 C 
ATOM      8  C   UNL     1      -0.241  -0.792  24.831  0.00  0.00    +0.078 C 
ATOM      9  N   UNL     1      -0.316  -0.191  24.290  0.00  0.00    -0.266 NA
ATOM     20  C   UNL     1      -0.666  -0.473  24.773  0.00  0.00    +0.074 C 
ATOM     21  C   UNL     1      -1.374  -0.050  24.782  0.00  0.00    +0.041 A 
ATOM     22  C   UNL     1      -2.123   0.075  25.104  0.00  0.00    +0.013 A 
ATOM     23  C   UNL     1      -2.604   0.674  24.807  0.00  0.00    +0.006 A 
ATOM     24  C   UNL     1      -2.338   1.149  24.187  0.00  0.00    +0.056 A 
ENDROOT
BRANCH  24  25
ATOM     25  C   UNL     1      -2.820   1.749  23.890  0.00  0.00    +0.002 A 
ATOM     26  C   UNL     1      -2.879   2.468  24.292  0.00  0.00    -0.006 A 
ATOM     34  C   UNL     1      -3.361   3.068  23.994  0.00  0.00    -0.003 A 
ATOM     35  C   UNL     1      -3.784   2.949  23.295  0.00  0.00    -0.000 A 
ATOM     36  C   UNL     1      -3.724   2.232  22.894  0.00  0.00    -0.000 A 
ATOM     37  C   UNL     1      -3.242   1.631  23.191  0.00  0.00    -0.000 A 
BRANCH  26  27
ATOM     27  C   UNL     1      -2.457   2.586  24.991  0.00  0.00    +0.099 C 
BRANCH  27  28
ATOM     28  N   UNL     1      -2.446   3.330  25.345  0.00  0.00    -0.265 NA
ATOM     29  C   UNL     1      -1.857   3.873  25.147  0.00  0.00    +0.105 C 
ATOM     30  C   UNL     1      -1.846   4.618  25.501  0.00  0.00    +0.159 C 
ATOM     31  O   UNL     1      -2.424   4.820  26.054  0.00  0.00    -0.351 OA
ATOM     32  C   UNL     1      -3.013   4.278  26.252  0.00  0.00    +0.159 C 
ATOM     33  C   UNL     1      -3.025   3.533  25.898  0.00  0.00    +0.105 C 
ENDBRANCH  27  28
ENDBRANCH  26  27
ENDBRANCH  24  25
BRANCH   9  10
ATOM     10  C   UNL     1      -0.124   0.324  23.676  0.00  0.00    +0.138 C 
BRANCH  10  11
ATOM     11  C   UNL     1       0.640   0.328  23.365  0.00  0.00    +0.139 A 
ATOM     12  C   UNL     1       0.910  -0.136  22.738  0.00  0.00    +0.037 A 
ATOM     13  C   UNL     1       1.705   0.045  22.611  0.00  0.00    +0.037 A 
ATOM     14  C   UNL     1       1.926   0.621  23.159  0.00  0.00    +0.145 A 
ATOM     15  O   UNL     1       1.268   0.795  23.625  0.00  0.00    -0.456 OA
ATOM     16  C   UNL     1       2.699   0.912  23.164  0.00  0.00    +0.037 A 
ATOM     17  C   UNL     1       3.249   0.627  22.620  0.00  0.00    +0.003 A 
ATOM     18  C   UNL     1       3.029   0.052  22.072  0.00  0.00    +0.000 A 
ATOM     19  C   UNL     1       2.256  -0.239  22.067  0.00  0.00    +0.003 A 
ENDBRANCH  10  11
ENDBRANCH   9  10
TORSDOF 5
ENDMDL
MODEL 2
REMARK VINA RESULT:     -11.3      2.435      3.421
REMARK  Name = 
REMARK  5 active torsions:
REMARK  status: ('A' for Active; 'I' for Inactive)
REMARK    1  A    between atoms: N_9  and  C_10
REMARK    2  A    between atoms: C_10  and  C_11
REMARK    3  A    between atoms: C_24  and  C_25
REMARK    4  A    between atoms: C_26  and  C_27
REMARK    5  A    between atoms: C_27  and  N_28
REMARK                            x       y       z     vdW  Elec       q    Type
REMARK                         _______ _______ _______ _____ _____    ______ ____
ROOT
ATOM      1  O   UNL     1      -3.177   1.145  23.776  0.00  0.00    -0.267 OA
ATOM      2  C   UNL     1      -2.597   1.525  24.223  0.00  0.00    +0.261 A 
ATOM      3  N   UNL     1      -2.067   1.082  24.675  0.00  0.00    -0.299 N 
ATOM      4  C   UNL     1      -1.820   1.865  24.830  0.00  0.00    +0.110 C 
ATOM      5  C   UNL     1      -1.069   1.682  25.445  0.00  0.00    +0.039 C 
ATOM      6  C   UNL     1      -0.434   1.702  25.955  0.00  0.00    +0.011 C 
ATOM      7  C   UNL     1      -0.843   1.217  25.653  0.00  0.00    +0.054 C 
ATOM      8  C   UNL     1      -0.967   0.308  25.605  0.00  0.00    +0.078 C 
ATOM      9  N   UNL     1      -1.600   0.293  25.096  0.00  0.00    -0.266 NA
ATOM     20  C   UNL     1      -1.206   0.734  25.388  0.00  0.00    +0.074 C 
ATOM     21  C   UNL     1      -1.487   1.461  25.120  0.00  0.00    +0.041 A 
ATOM     22  C   UNL     1      -1.436   2.284  25.115  0.00  0.00    +0.013 A 
ATOM     23  C   UNL     1      -1.965   2.728  24.664  0.00  0.00    +0.006 A 
ATOM     24  C   UNL     1      -2.545   2.348  24.218  0.00  0.00    +0.056 A 
ENDROOT
BRANCH  24  25
ATOM     25  C   UNL     1      -3.075   2.792  23.766  0.00  0.00    +0.002 A 
ATOM     26  C   UNL     1      -3.733   3.139  24.124  0.00  0.00    -0.006 A 
ATOM     34  C   UNL     1      -4.262   3.582  23.673  0.00  0.00    -0.003 A 
ATOM     35  C   UNL     1      -4.134   3.679  22.863  0.00  0.00    -0.000 A 
ATOM     36  C   UNL     1      -3.476   3.332  22.506  0.00  0.00    -0.000 A 
ATOM     37  C   UNL     1      -2.947   2.889  22.957  0.00  0.00    -0.000 A 
BRANCH  26  27
ATOM     27  C   UNL     1      -3.861   3.041  24.934  0.00  0.00    +0.099 C 
BRANCH  27  28
ATOM     28  N   UNL     1      -4.593   3.234  25.261  0.00  0.00    -0.265 NA
ATOM     29  C   UNL     1      -5.159   2.645  25.381  0.00  0.00    +0.105 C 
ATOM     30  C   UNL     1      -5.891   2.837  25.709  0.00  0.00    +0.159 C 
ATOM     31  O   UNL     1      -6.058   3.618  25.916  0.00  0.00    -0.351 OA
ATOM     32  C   UNL     1      -5.493   4.207  25.795  0.00  0.00    +0.159 C 
ATOM     33  C   UNL     1      -4.760   4.015  25.468  0.00  0.00    +0.105 C 
ENDBRANCH  27  28
ENDBRANCH  26  27
ENDBRANCH  24  25
BRANCH   9  10
ATOM     10  C   UNL     1      -2.205  -0.010  24.625  0.00  0.00    +0.138 C 
BRANCH  10  11
ATOM     11  C   UNL     1      -2.380  -0.815  24.645  0.00  0.00    +0.139 A 
ATOM     12  C   UNL     1      -3.052  -1.157  24.982  0.00  0.00    +0.037 A 
ATOM     13  C   UNL     1      -3.002  -1.974  24.878  0.00  0.00    +0.037 A 
ATOM     14  C   UNL     1      -2.300  -2.138  24.477  0.00  0.00    +0.145 A 
ATOM     15  O   UNL     1      -1.916  -1.422  24.333  0.00  0.00    -0.456 OA
ATOM     16  C   UNL     1      -2.100  -2.918  24.294  0.00  0.00    +0.037 A 
ATOM     17  C   UNL     1      -2.603  -3.534  24.513  0.00  0.00    +0.003 A 
ATOM     18  C   UNL     1      -3.306  -3.370  24.914  0.00  0.00    +0.000 A 
ATOM     19  C   UNL     1      -3.505  -2.591  25.096  0.00  0.00    +0.003 A 
ENDBRANCH  10  11
ENDBRANCH   9  10
TORSDOF 5
ENDMDL
MODEL 3
REMARK VINA RESULT:     -11.2      2.757      4.267
REMARK  Name = 
REMARK  5 active torsions:
REMARK  status: ('A' for Active; 'I' for Inactive)
REMARK    1  A    between atoms: N_9  and  C_10
REMARK    2  A    between atoms: C_10  and  C_11
REMARK    3  A    between atoms: C_24  and  C_25
REMARK    4  A    between atoms: C_26  and  C_27
REMARK    5  A    between atoms: C_27  and  N_28
REMARK                            x       y       z     vdW  Elec       q    Type
REMARK                         _______ _______ _______ _____ _____    ______ ____
ROOT
ATOM      1  O   UNL     1      -2.602   1.254  23.898  0.00  0.00    -0.267 OA
ATOM      2  C   UNL     1      -3.161   1.714  24.295  0.00  0.00    +0.261 A 
ATOM      3  N   UNL     1      -3.855   1.367  24.577  0.00  0.00    -0.299 N 
ATOM      4  C   UNL     1      -3.948   2.164  24.809  0.00  0.00    +0.110 C 
ATOM      5  C   UNL     1      -4.828   2.105  25.254  0.00  0.00    +0.039 C 
ATOM      6  C   UNL     1      -5.532   2.223  25.648  0.00  0.00    +0.011 C 
ATOM      7  C   UNL     1      -5.189   1.690  25.347  0.00  0.00    +0.054 C 
ATOM      8  C   UNL     1      -5.262   0.789  25.178  0.00  0.00    +0.078 C 
ATOM      9  N   UNL     1      -4.560   0.675  24.786  0.00  0.00    -0.266 NA
ATOM     20  C   UNL     1      -4.896   1.165  25.073  0.00  0.00    +0.074 C 
ATOM     21  C   UNL     1      -4.413   1.825  24.974  0.00  0.00    +0.041 A 
ATOM     22  C   UNL     1      -4.279   2.631  25.089  0.00  0.00    +0.013 A 
ATOM     23  C   UNL     1      -3.586   2.978  24.807  0.00  0.00    +0.006 A 
ATOM     24  C   UNL     1      -3.027   2.519  24.410  0.00  0.00    +0.056 A 
ENDROOT
BRANCH  24  25
ATOM     25  C   UNL     1      -2.333   2.866  24.129  0.00  0.00    +0.002 A 
ATOM     26  C   UNL     1      -1.671   2.922  24.619  0.00  0.00    -0.006 A 
ATOM     34  C   UNL     1      -0.978   3.269  24.337  0.00  0.00    -0.003 A 
ATOM     35  C   UNL     1      -0.946   3.559  23.565  0.00  0.00    -0.000 A 
ATOM     36  C   UNL     1      -1.607   3.503  23.075  0.00  0.00    -0.000 A 
ATOM     37  C   UNL     1      -2.301   3.156  23.357  0.00  0.00    -0.000 A 
BRANCH  26  27
ATOM     27  C   UNL     1      -1.704   2.632  25.390  0.00  0.00    +0.099 C 
BRANCH  27  28
ATOM     28  N   UNL     1      -1.011   2.555  25.831  0.00  0.00    -0.265 NA
ATOM     29  C   UNL     1      -0.564   1.863  25.781  0.00  0.00    +0.105 C 
ATOM     30  C   UNL     1       0.129   1.787  26.222  0.00  0.00    +0.159 C 
ATOM     31  O   UNL     1       0.375   2.402  26.713  0.00  0.00    -0.351 OA
ATOM     32  C   UNL     1      -0.071   3.094  26.764  0.00  0.00    +0.159 C 
ATOM     33  C   UNL     1      -0.765   3.171  26.323  0.00  0.00    +0.105 C 
ENDBRANCH  27  28
ENDBRANCH  26  27
ENDBRANCH  24  25
BRANCH   9  10
ATOM     10  C   UNL     1      -3.955   0.288  24.382  0.00  0.00    +0.138 C 
BRANCH  10  11
ATOM     11  C   UNL     1      -3.915  -0.536  24.391  0.00  0.00    +0.139 A 
ATOM     12  C   UNL     1      -4.232  -1.043  23.823  0.00  0.00    +0.037 A 
ATOM     13  C   UNL     1      -4.064  -1.819  24.051  0.00  0.00    +0.037 A 
ATOM     14  C   UNL     1      -3.642  -1.790  24.759  0.00  0.00    +0.145 A 
ATOM     15  O   UNL     1      -3.550  -0.998  24.970  0.00  0.00    -0.456 OA
ATOM     16  C   UNL     1      -3.396  -2.490  25.122  0.00  0.00    +0.037 A 
ATOM     17  C   UNL     1      -3.572  -3.218  24.776  0.00  0.00    +0.003 A 
ATOM     18  C   UNL     1      -3.994  -3.246  24.067  0.00  0.00    +0.000 A 
ATOM     19  C   UNL     1      -4.239  -2.547  23.705  0.00  0.00    +0.003 A 
ENDBRANCH  10  11
ENDBRANCH   9  10
TORSDOF 5
ENDMDL
MODEL 4
REMARK VINA RESULT:     -11.2      2.752      3.967
REMARK  Name = 
REMARK  5 active torsions:
REMARK  status: ('A' for Active; 'I' for Inactive)
REMARK    1  A    between atoms: N_9  and  C_10
REMARK    2  A    between atoms: C_10  and  C_11
REMARK    3  A    between atoms: C_24  and  C_25
REMARK    4  A    between atoms: C_26  and  C_27
REMARK    5  A    between atoms: C_27  and  N_28
REMARK                            x       y       z     vdW  Elec       q    Type
REMARK                         _______ _______ _______ _____ _____    ______ ____
ROOT
ATOM      1  O   UNL     1      -2.843   1.645  25.325  0.00  0.00    -0.267 OA
ATOM      2  C   UNL     1      -2.761   2.005  24.587  0.00  0.00    +0.261 A 
ATOM      3  N   UNL     1      -2.719   1.542  23.905  0.00  0.00    -0.299 N 
ATOM      4  C   UNL     1      -2.659   2.317  23.598  0.00  0.00    +0.110 C 
ATOM      5  C   UNL     1      -2.580   2.108  22.635  0.00  0.00    +0.039 C 
ATOM      6  C   UNL     1      -2.507   2.105  21.824  0.00  0.00    +0.011 C 
ATOM      7  C   UNL     1      -2.573   1.634  22.341  0.00  0.00    +0.054 C 
ATOM      8  C   UNL     1      -2.624   0.729  22.489  0.00  0.00    +0.078 C 
ATOM      9  N   UNL     1      -2.697   0.736  23.298  0.00  0.00    -0.266 NA
ATOM     20  C   UNL     1      -2.634   1.164  22.800  0.00  0.00    +0.074 C 
ATOM     21  C   UNL     1      -2.637   1.902  23.168  0.00  0.00    +0.041 A 
ATOM     22  C   UNL     1      -2.598   2.723  23.112  0.00  0.00    +0.013 A 
ATOM     23  C   UNL     1      -2.641   3.186  23.793  0.00  0.00    +0.006 A 
ATOM     24  C   UNL     1      -2.722   2.827  24.531  0.00  0.00    +0.056 A 
ENDROOT
BRANCH  24  25
ATOM     25  C   UNL     1      -2.765   3.289  25.213  0.00  0.00    +0.002 A 
ATOM     26  C   UNL     1      -3.488   3.611  25.448  0.00  0.00    -0.006 A 
ATOM     34  C   UNL     1      -3.531   4.074  26.130  0.00  0.00    -0.003 A 
ATOM     35  C   UNL     1      -2.851   4.214  26.576  0.00  0.00    -0.000 A 
ATOM     36  C   UNL     1      -2.129   3.893  26.341  0.00  0.00    -0.000 A 
ATOM     37  C   UNL     1      -2.086   3.430  25.659  0.00  0.00    -0.000 A 
BRANCH  26  27
ATOM     27  C   UNL     1      -4.167   3.470  25.002  0.00  0.00    +0.099 C 
BRANCH  27  28
ATOM     28  N   UNL     1      -4.909   3.651  25.312  0.00  0.00    -0.265 NA
ATOM     29  C   UNL     1      -5.350   3.068  25.696  0.00  0.00    +0.105 C 
ATOM     30  C   UNL     1      -6.092   3.250  26.006  0.00  0.00    +0.159 C 
ATOM     31  O   UNL     1      -6.394   4.014  25.934  0.00  0.00    -0.351 OA
ATOM     32  C   UNL     1      -5.954   4.597  25.551  0.00  0.00    +0.159 C 
ATOM     33  C   UNL     1      -5.211   4.416  25.240  0.00  0.00    +0.105 C 
ENDBRANCH  27  28
ENDBRANCH  26  27
ENDBRANCH  24  25
BRANCH   9  10
ATOM     10  C   UNL     1      -2.779   0.455  24.069  0.00  0.00    +0.138 C 
BRANCH  10  11
ATOM     11  C   UNL     1      -2.870  -0.353  24.206  0.00  0.00    +0.139 A 
ATOM     12  C   UNL     1      -3.583  -0.767  24.208  0.00  0.00    +0.037 A 
ATOM     13  C   UNL     1      -3.419  -1.560  24.368  0.00  0.00    +0.037 A 
ATOM     14  C   UNL     1      -2.603  -1.636  24.464  0.00  0.00    +0.145 A 
ATOM     15  O   UNL     1      -2.263  -0.890  24.364  0.00  0.00    -0.456 OA
ATOM     16  C   UNL     1      -2.273  -2.374  24.631  0.00  0.00    +0.037 A 
ATOM     17  C   UNL     1      -2.760  -3.036  24.701  0.00  0.00    +0.003 A 
ATOM     18  C   UNL     1      -3.576  -2.961  24.605  0.00  0.00    +0.000 A 
ATOM     19  C   UNL     1      -3.905  -2.222  24.438  0.00  0.00    +0.003 A 
ENDBRANCH  10  11
ENDBRANCH   9  10
TORSDOF 5
ENDMDL
MODEL 5
REMARK VINA RESULT:     -11.1      1.826      4.573
REMARK  Name = 
REMARK  5 active torsions:
REMARK  status: ('A' for Active; 'I' for Inactive)
REMARK    1  A    between atoms: N_9  and  C_10
REMARK    2  A    between atoms: C_10  and  C_11
REMARK    3  A    between atoms: C_24  and  C_25
REMARK    4  A    between atoms: C_26  and  C_27
REMARK    5  A    between atoms: C_27  and  N_28
REMARK                            x       y       z     vdW  Elec       q    Type
REMARK                         _______ _______ _______ _____ _____    ______ ____
ROOT
ATOM      1  O   UNL     1      -2.018   0.734  25.690  0.00  0.00    -0.267 OA
ATOM      2  C   UNL     1      -1.488   0.325  25.207  0.00  0.00    +0.261 A 
ATOM      3  N   UNL     1      -0.962   0.742  24.726  0.00  0.00    -0.299 N 
ATOM      4  C   UNL     1      -0.770  -0.053  24.553  0.00  0.00    +0.110 C 
ATOM      5  C   UNL     1      -0.048   0.092  23.894  0.00  0.00    +0.039 C 
ATOM      6  C   UNL     1       0.552   0.041  23.345  0.00  0.00    +0.011 C 
ATOM      7  C   UNL     1       0.191   0.545  23.674  0.00  0.00    +0.054 C 
ATOM      8  C   UNL     1       0.122   1.459  23.734  0.00  0.00    +0.078 C 
ATOM      9  N   UNL     1      -0.477   1.507  24.281  0.00  0.00    -0.266 NA
ATOM     20  C   UNL     1      -0.128   1.046  23.964  0.00  0.00    +0.074 C 
ATOM     21  C   UNL     1      -0.433   0.333  24.244  0.00  0.00    +0.041 A 
ATOM     22  C   UNL     1      -0.428  -0.491  24.243  0.00  0.00    +0.013 A 
ATOM     23  C   UNL     1      -0.953  -0.907  24.723  0.00  0.00    +0.006 A 
ATOM     24  C   UNL     1      -1.483  -0.499  25.206  0.00  0.00    +0.056 A 
ENDROOT
BRANCH  24  25
ATOM     25  C   UNL     1      -2.008  -0.916  25.687  0.00  0.00    +0.002 A 
ATOM     26  C   UNL     1      -2.646  -1.318  25.350  0.00  0.00    -0.006 A 
ATOM     34  C   UNL     1      -3.172  -1.734  25.831  0.00  0.00    -0.003 A 
ATOM     35  C   UNL     1      -3.059  -1.749  26.649  0.00  0.00    -0.000 A 
ATOM     36  C   UNL     1      -2.422  -1.347  26.985  0.00  0.00    -0.000 A 
ATOM     37  C   UNL     1      -1.897  -0.931  26.504  0.00  0.00    -0.000 A 
BRANCH  26  27
ATOM     27  C   UNL     1      -2.758  -1.302  24.533  0.00  0.00    +0.099 C 
BRANCH  27  28
ATOM     28  N   UNL     1      -3.388  -1.714  24.196  0.00  0.00    -0.265 NA
ATOM     29  C   UNL     1      -4.070  -1.309  23.966  0.00  0.00    +0.105 C 
ATOM     30  C   UNL     1      -4.700  -1.721  23.629  0.00  0.00    +0.159 C 
ATOM     31  O   UNL     1      -4.649  -2.537  23.521  0.00  0.00    -0.351 OA
ATOM     32  C   UNL     1      -3.968  -2.942  23.750  0.00  0.00    +0.159 C 
ATOM     33  C   UNL     1      -3.337  -2.530  24.088  0.00  0.00    +0.105 C 
ENDBRANCH  27  28
ENDBRANCH  26  27
ENDBRANCH  24  25
BRANCH   9  10
ATOM     10  C   UNL     1      -1.035   1.839  24.789  0.00  0.00    +0.138 C 
BRANCH  10  11
ATOM     11  C   UNL     1      -1.109   2.659  24.841  0.00  0.00    +0.139 A 
ATOM     12  C   UNL     1      -1.816   3.078  24.911  0.00  0.00    +0.037 A 
ATOM     13  C   UNL     1      -1.634   3.882  24.945  0.00  0.00    +0.037 A 
ATOM     14  C   UNL     1      -0.814   3.960  24.895  0.00  0.00    +0.145 A 
ATOM     15  O   UNL     1      -0.489   3.204  24.831  0.00  0.00    -0.456 OA
ATOM     16  C   UNL     1      -0.468   4.709  24.915  0.00  0.00    +0.037 A 
ATOM     17  C   UNL     1      -0.943   5.380  24.984  0.00  0.00    +0.003 A 
ATOM     18  C   UNL     1      -1.762   5.303  25.034  0.00  0.00    +0.000 A 
ATOM     19  C   UNL     1      -2.108   4.553  25.014  0.00  0.00    +0.003 A 
ENDBRANCH  10  11
ENDBRANCH   9  10
TORSDOF 5
ENDMDL
MODEL 6
REMARK VINA RESULT:     -11.0      1.607      5.477
REMARK  Name = 
REMARK  5 active torsions:
REMARK  status: ('A' for Active; 'I' for Inactive)
REMARK    1  A    between atoms: N_9  and  C_10
REMARK    2  A    between atoms: C_10  and  C_11
REMARK    3  A    between atoms: C_24  and  C_25
REMARK    4  A    between atoms: C_26  and  C_27
REMARK    5  A    between atoms: C_27  and  N_28
REMARK                            x       y       z     vdW  Elec       q    Type
REMARK                         _______ _______ _______ _____ _____    ______ ____
ROOT
ATOM      1  O   UNL     1      -2.206   0.470  24.809  0.00  0.00    -0.267 OA
ATOM      2  C   UNL     1      -1.635   1.043  24.976  0.00  0.00    +0.261 A 
ATOM      3  N   UNL     1      -1.858   1.833  25.063  0.00  0.00    -0.299 N 
ATOM      4  C   UNL     1      -1.032   1.866  25.187  0.00  0.00    +0.110 C 
ATOM      5  C   UNL     1      -0.928   2.836  25.347  0.00  0.00    +0.039 C 
ATOM      6  C   UNL     1      -0.677   3.596  25.498  0.00  0.00    +0.011 C 
ATOM      7  C   UNL     1      -1.282   3.266  25.361  0.00  0.00    +0.054 C 
ATOM      8  C   UNL     1      -2.181   3.424  25.256  0.00  0.00    +0.078 C 
ATOM      9  N   UNL     1      -2.427   2.665  25.107  0.00  0.00    -0.266 NA
ATOM     20  C   UNL     1      -1.869   2.991  25.236  0.00  0.00    +0.074 C 
ATOM     21  C   UNL     1      -1.289   2.405  25.231  0.00  0.00    +0.041 A 
ATOM     22  C   UNL     1      -0.497   2.188  25.312  0.00  0.00    +0.013 A 
ATOM     23  C   UNL     1      -0.275   1.399  25.225  0.00  0.00    +0.006 A 
ATOM     24  C   UNL     1      -0.844   0.826  25.057  0.00  0.00    +0.056 A 
ENDROOT
BRANCH  24  25
ATOM     25  C   UNL     1      -0.622   0.036  24.970  0.00  0.00    +0.002 A 
ATOM     26  C   UNL     1      -0.149  -0.192  24.333  0.00  0.00    -0.006 A 
ATOM     34  C   UNL     1       0.073  -0.981  24.246  0.00  0.00    -0.003 A 
ATOM     35  C   UNL     1      -0.177  -1.543  24.796  0.00  0.00    -0.000 A 
ATOM     36  C   UNL     1      -0.649  -1.316  25.433  0.00  0.00    -0.000 A 
ATOM     37  C   UNL     1      -0.871  -0.526  25.520  0.00  0.00    -0.000 A 
BRANCH  26  27
ATOM     27  C   UNL     1       0.100   0.371  23.783  0.00  0.00    +0.099 C 
BRANCH  27  28
ATOM     28  N   UNL     1       0.648   0.164  23.202  0.00  0.00    -0.265 NA
ATOM     29  C   UNL     1       0.392  -0.176  22.495  0.00  0.00    +0.105 C 
ATOM     30  C   UNL     1       0.939  -0.382  21.914  0.00  0.00    +0.159 C 
ATOM     31  O   UNL     1       1.744  -0.250  22.040  0.00  0.00    -0.351 OA
ATOM     32  C   UNL     1       2.001   0.089  22.746  0.00  0.00    +0.159 C 
ATOM     33  C   UNL     1       1.453   0.296  23.328  0.00  0.00    +0.105 C 
ENDBRANCH  27  28
ENDBRANCH  26  27
ENDBRANCH  24  25
BRANCH   9  10
ATOM     10  C   UNL     1      -2.933   2.036  24.940  0.00  0.00    +0.138 C 
BRANCH  10  11
ATOM     11  C   UNL     1      -3.748   2.126  25.032  0.00  0.00    +0.139 A 
ATOM     12  C   UNL     1      -4.330   1.757  24.579  0.00  0.00    +0.037 A 
ATOM     13  C   UNL     1      -5.067   2.004  24.861  0.00  0.00    +0.037 A 
ATOM     14  C   UNL     1      -4.938   2.524  25.488  0.00  0.00    +0.145 A 
ATOM     15  O   UNL     1      -4.123   2.600  25.594  0.00  0.00    -0.456 OA
ATOM     16  C   UNL     1      -5.580   2.863  25.882  0.00  0.00    +0.037 A 
ATOM     17  C   UNL     1      -6.349   2.681  25.648  0.00  0.00    +0.003 A 
ATOM     18  C   UNL     1      -6.478   2.160  25.021  0.00  0.00    +0.000 A 
ATOM     19  C   UNL     1      -5.836   1.822  24.628  0.00  0.00    +0.003 A 
ENDBRANCH  10  11
ENDBRANCH   9  10
TORSDOF 5
ENDMDL
MODEL 7
REMARK VINA RESULT:     -10.7      2.627      4.750
REMARK  Name = 
REMARK  5 active torsions:
REMARK  status: ('A' for Active; 'I' for Inactive)
REMARK    1  A    between atoms: N_9  and  C_10
REMARK    2  A    between atoms: C_10  and  C_11
REMARK    3  A    between atoms: C_24  and  C_25
REMARK    4  A    between atoms: C_26  and  C_27
REMARK    5  A    between atoms: C_27  and  N_28
REMARK                            x       y       z     vdW  Elec       q    Type
REMARK                         _______ _______ _______ _____ _____    ______ ____
ROOT
ATOM      1  O   UNL     1      -3.233   1.256  24.151  0.00  0.00    -0.267 OA
ATOM      2  C   UNL     1      -3.939   1.286  24.577  0.00  0.00    +0.261 A 
ATOM      3  N   UNL     1      -4.199   2.003  24.893  0.00  0.00    -0.299 N 
ATOM      4  C   UNL     1      -4.801   1.475  25.132  0.00  0.00    +0.110 C 
ATOM      5  C   UNL     1      -5.387   2.102  25.621  0.00  0.00    +0.039 C 
ATOM      6  C   UNL     1      -5.967   2.481  26.050  0.00  0.00    +0.011 C 
ATOM      7  C   UNL     1      -5.365   2.648  25.730  0.00  0.00    +0.054 C 
ATOM      8  C   UNL     1      -4.813   3.363  25.562  0.00  0.00    +0.078 C 
ATOM      9  N   UNL     1      -4.237   2.982  25.134  0.00  0.00    -0.266 NA
ATOM     20  C   UNL     1      -4.804   2.843  25.440  0.00  0.00    +0.074 C 
ATOM     21  C   UNL     1      -4.904   2.033  25.318  0.00  0.00    +0.041 A 
ATOM     22  C   UNL     1      -5.349   1.348  25.429  0.00  0.00    +0.013 A 
ATOM     23  C   UNL     1      -5.089   0.632  25.114  0.00  0.00    +0.006 A 
ATOM     24  C   UNL     1      -4.384   0.601  24.688  0.00  0.00    +0.056 A 
ENDROOT
BRANCH  24  25
ATOM     25  C   UNL     1      -4.123  -0.116  24.373  0.00  0.00    +0.002 A 
ATOM     26  C   UNL     1      -3.547  -0.555  24.768  0.00  0.00    -0.006 A 
ATOM     34  C   UNL     1      -3.286  -1.272  24.453  0.00  0.00    -0.003 A 
ATOM     35  C   UNL     1      -3.602  -1.549  23.742  0.00  0.00    -0.000 A 
ATOM     36  C   UNL     1      -4.177  -1.109  23.347  0.00  0.00    -0.000 A 
ATOM     37  C   UNL     1      -4.438  -0.393  23.662  0.00  0.00    -0.000 A 
BRANCH  26  27
ATOM     27  C   UNL     1      -3.232  -0.278  25.479  0.00  0.00    +0.099 C 
BRANCH  27  28
ATOM     28  N   UNL     1      -2.545  -0.615  25.784  0.00  0.00    -0.265 NA
ATOM     29  C   UNL     1      -1.806  -0.344  25.536  0.00  0.00    +0.105 C 
ATOM     30  C   UNL     1      -1.118  -0.682  25.841  0.00  0.00    +0.159 C 
ATOM     31  O   UNL     1      -1.169  -1.291  26.396  0.00  0.00    -0.351 OA
ATOM     32  C   UNL     1      -1.907  -1.562  26.645  0.00  0.00    +0.159 C 
ATOM     33  C   UNL     1      -2.595  -1.224  26.339  0.00  0.00    +0.105 C 
ENDBRANCH  27  28
ENDBRANCH  26  27
ENDBRANCH  24  25
BRANCH   9  10
ATOM     10  C   UNL     1      -3.547   2.868  24.698  0.00  0.00    +0.138 C 
BRANCH  10  11
ATOM     11  C   UNL     1      -2.927   3.410  24.758  0.00  0.00    +0.139 A 
ATOM     12  C   UNL     1      -2.129   3.224  24.855  0.00  0.00    +0.037 A 
ATOM     13  C   UNL     1      -1.705   3.931  24.889  0.00  0.00    +0.037 A 
ATOM     14  C   UNL     1      -2.241   4.554  24.812  0.00  0.00    +0.145 A 
ATOM     15  O   UNL     1      -2.996   4.231  24.732  0.00  0.00    -0.456 OA
ATOM     16  C   UNL     1      -1.972   5.334  24.826  0.00  0.00    +0.037 A 
ATOM     17  C   UNL     1      -1.168   5.492  24.916  0.00  0.00    +0.003 A 
ATOM     18  C   UNL     1      -0.631   4.869  24.993  0.00  0.00    +0.000 A 
ATOM     19  C   UNL     1      -0.900   4.089  24.979  0.00  0.00    +0.003 A 
ENDBRANCH  10  11
ENDBRANCH   9  10
TORSDOF 5
ENDMDL
MODEL 8
REMARK VINA RESULT:     -10.6      2.842      4.092
REMARK  Name = 
REMARK  5 active torsions:
REMARK  status: ('A' for Active; 'I' for Inactive)
REMARK    1  A    between atoms: N_9  and  C_10
REMARK    2  A    between atoms: C_10  and  C_11
REMARK    3  A    between atoms: C_24  and  C_25
REMARK    4  A    between atoms: C_26  and  C_27
REMARK    5  A    between atoms: C_27  and  N_28
REMARK                            x       y       z     vdW  Elec       q    Type
REMARK                         _______ _______ _______ _____ _____    ______ ____
ROOT
ATOM      1  O   UNL     1      -3.220   1.632  25.202  0.00  0.00    -0.267 OA
ATOM      2  C   UNL     1      -3.024   1.983  24.480  0.00  0.00    +0.261 A 
ATOM      3  N   UNL     1      -3.049   1.538  23.786  0.00  0.00    -0.299 N 
ATOM      4  C   UNL     1      -2.806   2.288  23.508  0.00  0.00    +0.110 C 
ATOM      5  C   UNL     1      -2.726   2.089  22.543  0.00  0.00    +0.039 C 
ATOM      6  C   UNL     1      -2.614   2.089  21.737  0.00  0.00    +0.011 C 
ATOM      7  C   UNL     1      -2.807   1.633  22.234  0.00  0.00    +0.054 C 
ATOM      8  C   UNL     1      -3.063   0.757  22.349  0.00  0.00    +0.078 C 
ATOM      9  N   UNL     1      -3.173   0.761  23.153  0.00  0.00    -0.266 NA
ATOM     20  C   UNL     1      -2.993   1.176  22.674  0.00  0.00    +0.074 C 
ATOM     21  C   UNL     1      -2.853   1.888  23.066  0.00  0.00    +0.041 A 
ATOM     22  C   UNL     1      -2.633   2.682  23.039  0.00  0.00    +0.013 A 
ATOM     23  C   UNL     1      -2.608   3.127  23.733  0.00  0.00    +0.006 A 
ATOM     24  C   UNL     1      -2.804   2.777  24.454  0.00  0.00    +0.056 A 
ENDROOT
BRANCH  24  25
ATOM     25  C   UNL     1      -2.779   3.222  25.149  0.00  0.00    +0.002 A 
ATOM     26  C   UNL     1      -2.063   3.326  25.546  0.00  0.00    -0.006 A 
ATOM     34  C   UNL     1      -2.038   3.771  26.241  0.00  0.00    -0.003 A 
ATOM     35  C   UNL     1      -2.729   4.111  26.538  0.00  0.00    -0.000 A 
ATOM     36  C   UNL     1      -3.444   4.006  26.141  0.00  0.00    -0.000 A 
ATOM     37  C   UNL     1      -3.469   3.562  25.446  0.00  0.00    -0.000 A 
BRANCH  26  27
ATOM     27  C   UNL     1      -1.373   2.986  25.249  0.00  0.00    +0.099 C 
BRANCH  27  28
ATOM     28  N   UNL     1      -0.705   2.923  25.729  0.00  0.00    -0.265 NA
ATOM     29  C   UNL     1      -0.639   2.299  26.265  0.00  0.00    +0.105 C 
ATOM     30  C   UNL     1       0.029   2.236  26.745  0.00  0.00    +0.159 C 
ATOM     31  O   UNL     1       0.632   2.797  26.688  0.00  0.00    -0.351 OA
ATOM     32  C   UNL     1       0.567   3.420  26.152  0.00  0.00    +0.159 C 
ATOM     33  C   UNL     1      -0.102   3.483  25.672  0.00  0.00    +0.105 C 
ENDBRANCH  27  28
ENDBRANCH  26  27
ENDBRANCH  24  25
BRANCH   9  10
ATOM     10  C   UNL     1      -3.353   0.487  23.910  0.00  0.00    +0.138 C 
BRANCH  10  11
ATOM     11  C   UNL     1      -3.423  -0.323  24.049  0.00  0.00    +0.139 A 
ATOM     12  C   UNL     1      -4.077  -0.791  23.866  0.00  0.00    +0.037 A 
ATOM     13  C   UNL     1      -3.910  -1.565  24.099  0.00  0.00    +0.037 A 
ATOM     14  C   UNL     1      -3.153  -1.574  24.427  0.00  0.00    +0.145 A 
ATOM     15  O   UNL     1      -2.852  -0.807  24.396  0.00  0.00    -0.456 OA
ATOM     16  C   UNL     1      -2.835  -2.281  24.712  0.00  0.00    +0.037 A 
ATOM     17  C   UNL     1      -3.274  -2.978  24.668  0.00  0.00    +0.003 A 
ATOM     18  C   UNL     1      -4.031  -2.969  24.341  0.00  0.00    +0.000 A 
ATOM     19  C   UNL     1      -4.349  -2.262  24.056  0.00  0.00    +0.003 A 
ENDBRANCH  10  11
ENDBRANCH   9  10
TORSDOF 5
ENDMDL
MODEL 9
REMARK VINA RESULT:     -10.6      1.699      3.667
REMARK  Name = 
REMARK  5 active torsions:
REMARK  status: ('A' for Active; 'I' for Inactive)
REMARK    1  A    between atoms: N_9  and  C_10
REMARK    2  A    between atoms: C_10  and  C_11
REMARK    3  A    between atoms: C_24  and  C_25
REMARK    4  A    between atoms: C_26  and  C_27
REMARK    5  A    between atoms: C_27  and  N_28
REMARK                            x       y       z     vdW  Elec       q    Type
REMARK                         _______ _______ _______ _____ _____    ______ ____
ROOT
ATOM      1  O   UNL     1      -1.480   0.800  25.609  0.00  0.00    -0.267 OA
ATOM      2  C   UNL     1      -0.888   0.926  25.047  0.00  0.00    +0.261 A 
ATOM      3  N   UNL     1      -0.667   0.315  24.538  0.00  0.00    -0.299 N 
ATOM      4  C   UNL     1      -0.166   0.938  24.296  0.00  0.00    +0.110 C 
ATOM      5  C   UNL     1       0.328   0.482  23.572  0.00  0.00    +0.039 C 
ATOM      6  C   UNL     1       0.815   0.255  22.959  0.00  0.00    +0.011 C 
ATOM      7  C   UNL     1       0.312  -0.032  23.356  0.00  0.00    +0.054 C 
ATOM      8  C   UNL     1      -0.148  -0.818  23.479  0.00  0.00    +0.078 C 
ATOM      9  N   UNL     1      -0.632  -0.589  24.090  0.00  0.00    -0.266 NA
ATOM     20  C   UNL     1      -0.157  -0.335  23.708  0.00  0.00    +0.074 C 
ATOM     21  C   UNL     1      -0.077   0.440  23.977  0.00  0.00    +0.041 A 
ATOM     22  C   UNL     1       0.293   1.175  23.924  0.00  0.00    +0.013 A 
ATOM     23  C   UNL     1       0.073   1.785  24.432  0.00  0.00    +0.006 A 
ATOM     24  C   UNL     1      -0.518   1.661  24.994  0.00  0.00    +0.056 A 
ENDROOT
BRANCH  24  25
ATOM     25  C   UNL     1      -0.740   2.271  25.503  0.00  0.00    +0.002 A 
ATOM     26  C   UNL     1      -1.363   2.773  25.300  0.00  0.00    -0.006 A 
ATOM     34  C   UNL     1      -1.584   3.383  25.809  0.00  0.00    -0.003 A 
ATOM     35  C   UNL     1      -1.182   3.493  26.521  0.00  0.00    -0.000 A 
ATOM     36  C   UNL     1      -0.559   2.992  26.724  0.00  0.00    -0.000 A 
ATOM     37  C   UNL     1      -0.338   2.381  26.215  0.00  0.00    -0.000 A 
BRANCH  26  27
ATOM     27  C   UNL     1      -1.765   2.663  24.588  0.00  0.00    +0.099 C 
BRANCH  27  28
ATOM     28  N   UNL     1      -2.473   3.062  24.448  0.00  0.00    -0.265 NA
ATOM     29  C   UNL     1      -3.194   2.683  24.582  0.00  0.00    +0.105 C 
ATOM     30  C   UNL     1      -3.902   3.082  24.443  0.00  0.00    +0.159 C 
ATOM     31  O   UNL     1      -3.890   3.860  24.170  0.00  0.00    -0.351 OA
ATOM     32  C   UNL     1      -3.170   4.240  24.036  0.00  0.00    +0.159 C 
ATOM     33  C   UNL     1      -2.461   3.841  24.176  0.00  0.00    +0.105 C 
ENDBRANCH  27  28
ENDBRANCH  26  27
ENDBRANCH  24  25
BRANCH   9  10
ATOM     10  C   UNL     1      -1.210  -0.633  24.675  0.00  0.00    +0.138 C 
BRANCH  10  11
ATOM     11  C   UNL     1      -1.817  -1.188  24.615  0.00  0.00    +0.139 A 
ATOM     12  C   UNL     1      -1.781  -1.974  24.864  0.00  0.00    +0.037 A 
ATOM     13  C   UNL     1      -2.508  -2.328  24.697  0.00  0.00    +0.037 A 
ATOM     14  C   UNL     1      -2.993  -1.761  24.345  0.00  0.00    +0.145 A 
ATOM     15  O   UNL     1      -2.566  -1.057  24.294  0.00  0.00    -0.456 OA
ATOM     16  C   UNL     1      -3.761  -1.958  24.116  0.00  0.00    +0.037 A 
ATOM     17  C   UNL     1      -4.044  -2.723  24.240  0.00  0.00    +0.003 A 
ATOM     18  C   UNL     1      -3.559  -3.291  24.592  0.00  0.00    +0.000 A 
ATOM     19  C   UNL     1      -2.791  -3.093  24.821  0.00  0.00    +0.003 A 
ENDBRANCH  10  11
ENDBRANCH   9  10
TORSDOF 5
ENDMDL
