REMARK  Name = 
REMARK  6 active torsions:
REMARK  status: ('A' for Active; 'I' for Inactive)
REMARK    1  A    between atoms: C_2  and  C_3
REMARK    2  A    between atoms: C_3  and  O_4
REMARK    3  A    between atoms: O_4  and  C_5
REMARK    4  A    between atoms: N_11  and  C_12
REMARK    5  A    between atoms: C_16  and  N_20
REMARK    6  A    between atoms: C_24  and  C_25
REMARK                            x       y       z     vdW  Elec       q    Type
REMARK                         _______ _______ _______ _____ _____    ______ ____
ROOT
ATOM     12  C   UNL     1       5.131   3.332   0.000  0.00  0.00    +0.154 C 
ATOM     13  C   UNL     1       5.683   2.719   0.000  0.00  0.00    +0.166 C 
ATOM     14  O   UNL     1       5.270   2.005   0.000  0.00  0.00    -0.350 OA
ATOM     15  C   UNL     1       4.463   2.176   0.000  0.00  0.00    +0.169 C 
ATOM     16  C   UNL     1       3.710   1.841   0.000  0.00  0.00    +0.167 C 
ATOM     17  C   UNL     1       3.158   2.454   0.000  0.00  0.00    +0.169 C 
ATOM     18  O   UNL     1       3.570   3.168   0.000  0.00  0.00    -0.350 OA
ATOM     19  C   UNL     1       4.377   2.997   0.000  0.00  0.00    +0.167 C 
ENDROOT
BRANCH  16  20
ATOM     20  N   UNL     1       3.538   1.034   0.000  0.00  0.00    -0.210 N 
ATOM     21  N   UNL     1       4.090   0.420   0.000  0.00  0.00    -0.043 NA
ATOM     22  N   UNL     1       3.678  -0.294   0.000  0.00  0.00    -0.023 NA
ATOM     23  N   UNL     1       2.871  -0.122   0.000  0.00  0.00    -0.108 NA
ATOM     24  C   UNL     1       2.784   0.698   0.000  0.00  0.00    +0.184 A 
BRANCH  24  25
ATOM     25  C   UNL     1       2.070   1.110   0.000  0.00  0.00    +0.041 A 
ATOM     26  C   UNL     1       1.356   0.698   0.000  0.00  0.00    +0.043 A 
ATOM     27  C   UNL     1       0.641   1.110   0.000  0.00  0.00    +0.177 A 
ATOM     28  C   UNL     1       0.641   1.935   0.000  0.00  0.00    +0.176 A 
ATOM     29  O   UNL     1      -0.143   2.190   0.000  0.00  0.00    -0.435 OA
ATOM     30  C   UNL     1      -0.628   1.523   0.000  0.00  0.00    +0.429 C 
ATOM     31  O   UNL     1      -0.143   0.856   0.000  0.00  0.00    -0.435 OA
ATOM     32  C   UNL     1       1.356   2.348   0.000  0.00  0.00    +0.040 A 
ATOM     33  C   UNL     1       2.070   1.935   0.000  0.00  0.00    +0.006 A 
ENDBRANCH  24  25
ENDBRANCH  16  20
BRANCH  12  11
ATOM      1  O   UNL     1       6.700   3.842   0.000  0.00  0.00    -0.269 OA
ATOM      2  C   UNL     1       6.087   4.394   0.000  0.00  0.00    +0.286 C 
ATOM     11  N   UNL     1       5.302   4.139   0.000  0.00  0.00    -0.199 NA
BRANCH   2   3
ATOM      3  C   UNL     1       6.258   5.201   0.000  0.00  0.00    +0.291 C 
BRANCH   3   4
ATOM      4  O   UNL     1       7.043   5.456   0.000  0.00  0.00    -0.466 OA
BRANCH   4   5
ATOM      5  C   UNL     1       7.215   6.263   0.000  0.00  0.00    +0.139 A 
ATOM      6  C   UNL     1       6.602   6.815   0.000  0.00  0.00    +0.037 A 
ATOM      7  C   UNL     1       6.773   7.622   0.000  0.00  0.00    +0.003 A 
ATOM      8  C   UNL     1       7.558   7.877   0.000  0.00  0.00    +0.000 A 
ATOM      9  C   UNL     1       8.171   7.325   0.000  0.00  0.00    +0.003 A 
ATOM     10  C   UNL     1       7.999   6.518   0.000  0.00  0.00    +0.037 A 
ENDBRANCH   4   5
ENDBRANCH   3   4
ENDBRANCH   2   3
ENDBRANCH  12  11
TORSDOF 6
