MODEL 1
REMARK VINA RESULT:     -11.6      0.000      0.000
REMARK  Name = 
REMARK  8 active torsions:
REMARK  status: ('A' for Active; 'I' for Inactive)
REMARK    1  A    between atoms: N_2  and  C_4
REMARK    2  A    between atoms: C_7  and  C_10
REMARK    3  A    between atoms: N_12  and  C_13
REMARK    4  A    between atoms: C_13  and  C_14
REMARK    5  A    between atoms: C_16  and  C_17
REMARK    6  A    between atoms: C_17  and  C_18
REMARK    7  A    between atoms: N_20  and  C_21
REMARK    8  A    between atoms: C_21  and  C_22
REMARK                            x       y       z     vdW  Elec       q    Type
REMARK                         _______ _______ _______ _____ _____    ______ ____
ROOT
ATOM     14  C   UNL     1      -0.860   1.854  25.639  0.00  0.00    +0.170 C 
ATOM     15  O   UNL     1      -1.561   2.260  25.484  0.00  0.00    -0.351 OA
ATOM     16  C   UNL     1      -1.387   3.065  25.448  0.00  0.00    +0.157 C 
ATOM     29  C   UNL     1      -0.578   3.158  25.581  0.00  0.00    +0.212 C 
ATOM     30  O   UNL     1      -0.167   3.873  25.593  0.00  0.00    -0.218 OA
ATOM     31  C   UNL     1      -0.252   2.408  25.699  0.00  0.00    +0.213 C 
ATOM     32  O   UNL     1       0.542   2.244  25.850  0.00  0.00    -0.218 OA
ENDROOT
BRANCH  14  13
ATOM     13  C   UNL     1      -0.780   1.036  25.720  0.00  0.00    +0.148 C 
BRANCH  13  12
ATOM     10  C   UNL     1      -1.382  -0.257  25.645  0.00  0.00    +0.265 C 
ATOM     11  O   UNL     1      -0.836  -0.543  26.194  0.00  0.00    -0.268 OA
ATOM     12  N   UNL     1      -1.354   0.533  25.408  0.00  0.00    -0.199 NA
BRANCH  10   7
ATOM      4  C   UNL     1      -3.104  -1.768  24.711  0.00  0.00    +0.048 A 
ATOM      5  C   UNL     1      -2.356  -1.730  24.363  0.00  0.00    +0.015 A 
ATOM      6  C   UNL     1      -1.783  -1.227  24.675  0.00  0.00    +0.006 A 
ATOM      7  C   UNL     1      -1.956  -0.761  25.334  0.00  0.00    +0.055 A 
ATOM      8  C   UNL     1      -2.704  -0.799  25.681  0.00  0.00    +0.006 A 
ATOM      9  C   UNL     1      -3.278  -1.303  25.369  0.00  0.00    +0.015 A 
BRANCH   4   2
ATOM      1  C   UNL     1      -3.667  -3.077  24.586  0.00  0.00    +0.112 C 
ATOM      2  N   UNL     1      -3.678  -2.273  24.398  0.00  0.00    -0.304 N 
ATOM      3  C   UNL     1      -4.262  -1.974  23.899  0.00  0.00    +0.112 C 
ENDBRANCH   4   2
ENDBRANCH  10   7
ENDBRANCH  13  12
ENDBRANCH  14  13
BRANCH  16  17
ATOM     17  C   UNL     1      -1.928   3.673  25.305  0.00  0.00    +0.119 C 
BRANCH  17  18
ATOM     18  C   UNL     1      -2.571   3.542  24.806  0.00  0.00    +0.244 C 
ATOM     19  O   UNL     1      -2.477   3.593  23.988  0.00  0.00    -0.273 OA
ATOM     20  N   UNL     1      -3.309   3.359  25.126  0.00  0.00    -0.200 NA
BRANCH  20  21
ATOM     21  C   UNL     1      -3.954   3.228  24.627  0.00  0.00    +0.141 C 
BRANCH  21  22
ATOM     22  C   UNL     1      -4.617   2.825  24.907  0.00  0.00    -0.000 A 
ATOM     23  C   UNL     1      -5.091   3.167  25.490  0.00  0.00    -0.000 A 
ATOM     24  C   UNL     1      -5.754   2.764  25.771  0.00  0.00    +0.029 A 
ATOM     25  C   UNL     1      -5.942   2.020  25.470  0.00  0.00    +0.140 A 
ATOM     26  F   UNL     1      -6.606   1.617  25.751  0.00  0.00    -0.204 F 
ATOM     27  C   UNL     1      -5.469   1.678  24.888  0.00  0.00    +0.029 A 
ATOM     28  C   UNL     1      -4.806   2.081  24.607  0.00  0.00    -0.000 A 
ENDBRANCH  21  22
ENDBRANCH  20  21
ENDBRANCH  17  18
ENDBRANCH  16  17
TORSDOF 8
ENDMDL
MODEL 2
REMARK VINA RESULT:     -11.5      1.536      4.413
REMARK  Name = 
REMARK  8 active torsions:
REMARK  status: ('A' for Active; 'I' for Inactive)
REMARK    1  A    between atoms: N_2  and  C_4
REMARK    2  A    between atoms: C_7  and  C_10
REMARK    3  A    between atoms: N_12  and  C_13
REMARK    4  A    between atoms: C_13  and  C_14
REMARK    5  A    between atoms: C_16  and  C_17
REMARK    6  A    between atoms: C_17  and  C_18
REMARK    7  A    between atoms: N_20  and  C_21
REMARK    8  A    between atoms: C_21  and  C_22
REMARK                            x       y       z     vdW  Elec       q    Type
REMARK                         _______ _______ _______ _____ _____    ______ ____
ROOT
ATOM     14  C   UNL     1      -0.586   1.763  24.524  0.00  0.00    +0.170 C 
ATOM     15  O   UNL     1      -0.881   1.026  24.748  0.00  0.00    -0.351 OA
ATOM     16  C   UNL     1      -0.356   0.449  24.480  0.00  0.00    +0.157 C 
ATOM     29  C   UNL     1       0.264   0.829  24.091  0.00  0.00    +0.212 C 
ATOM     30  O   UNL     1       0.912   0.462  23.737  0.00  0.00    -0.218 OA
ATOM     31  C   UNL     1       0.121   1.642  24.118  0.00  0.00    +0.213 C 
ATOM     32  O   UNL     1       0.603   2.229  23.796  0.00  0.00    -0.218 OA
ENDROOT
BRANCH  14  13
ATOM     13  C   UNL     1      -0.937   2.494  24.679  0.00  0.00    +0.148 C 
BRANCH  13  12
ATOM     10  C   UNL     1      -2.105   3.275  24.943  0.00  0.00    +0.265 C 
ATOM     11  O   UNL     1      -1.653   3.963  24.906  0.00  0.00    -0.268 OA
ATOM     12  N   UNL     1      -1.747   2.540  24.829  0.00  0.00    -0.199 NA
BRANCH  10   7
ATOM      4  C   UNL     1      -4.534   3.411  25.392  0.00  0.00    +0.048 A 
ATOM      5  C   UNL     1      -4.264   3.094  24.680  0.00  0.00    +0.015 A 
ATOM      6  C   UNL     1      -3.454   3.048  24.530  0.00  0.00    +0.006 A 
ATOM      7  C   UNL     1      -2.914   3.320  25.092  0.00  0.00    +0.055 A 
ATOM      8  C   UNL     1      -3.185   3.637  25.805  0.00  0.00    +0.006 A 
ATOM      9  C   UNL     1      -3.996   3.682  25.954  0.00  0.00    +0.015 A 
BRANCH   4   2
ATOM      1  C   UNL     1      -5.765   2.775  25.746  0.00  0.00    +0.112 C 
ATOM      2  N   UNL     1      -5.345   3.456  25.541  0.00  0.00    -0.304 N 
ATOM      3  C   UNL     1      -5.735   4.180  25.486  0.00  0.00    +0.112 C 
ENDBRANCH   4   2
ENDBRANCH  10   7
ENDBRANCH  13  12
ENDBRANCH  14  13
BRANCH  16  17
ATOM     17  C   UNL     1      -0.437  -0.366  24.584  0.00  0.00    +0.119 C 
BRANCH  17  18
ATOM     18  C   UNL     1      -1.068  -0.665  25.023  0.00  0.00    +0.244 C 
ATOM     19  O   UNL     1      -1.055  -0.622  25.847  0.00  0.00    -0.273 OA
ATOM     20  N   UNL     1      -1.712  -1.007  24.637  0.00  0.00    -0.200 NA
BRANCH  20  21
ATOM     21  C   UNL     1      -2.344  -1.306  25.077  0.00  0.00    +0.141 C 
BRANCH  21  22
ATOM     22  C   UNL     1      -2.987  -1.650  24.691  0.00  0.00    -0.000 A 
ATOM     23  C   UNL     1      -3.587  -1.173  24.384  0.00  0.00    -0.000 A 
ATOM     24  C   UNL     1      -4.230  -1.518  23.998  0.00  0.00    +0.029 A 
ATOM     25  C   UNL     1      -4.273  -2.337  23.920  0.00  0.00    +0.140 A 
ATOM     26  F   UNL     1      -4.917  -2.681  23.534  0.00  0.00    -0.204 F 
ATOM     27  C   UNL     1      -3.674  -2.814  24.226  0.00  0.00    +0.029 A 
ATOM     28  C   UNL     1      -3.030  -2.470  24.612  0.00  0.00    -0.000 A 
ENDBRANCH  21  22
ENDBRANCH  20  21
ENDBRANCH  17  18
ENDBRANCH  16  17
TORSDOF 8
ENDMDL
MODEL 3
REMARK VINA RESULT:     -11.4      1.470      4.244
REMARK  Name = 
REMARK  8 active torsions:
REMARK  status: ('A' for Active; 'I' for Inactive)
REMARK    1  A    between atoms: N_2  and  C_4
REMARK    2  A    between atoms: C_7  and  C_10
REMARK    3  A    between atoms: N_12  and  C_13
REMARK    4  A    between atoms: C_13  and  C_14
REMARK    5  A    between atoms: C_16  and  C_17
REMARK    6  A    between atoms: C_17  and  C_18
REMARK    7  A    between atoms: N_20  and  C_21
REMARK    8  A    between atoms: C_21  and  C_22
REMARK                            x       y       z     vdW  Elec       q    Type
REMARK                         _______ _______ _______ _____ _____    ______ ____
ROOT
ATOM     14  C   UNL     1      -1.529  -0.433  25.096  0.00  0.00    +0.170 C 
ATOM     15  O   UNL     1      -2.339  -0.280  25.133  0.00  0.00    -0.351 OA
ATOM     16  C   UNL     1      -2.736  -1.002  25.120  0.00  0.00    +0.157 C 
ATOM     29  C   UNL     1      -2.172  -1.603  25.075  0.00  0.00    +0.212 C 
ATOM     30  O   UNL     1      -2.328  -2.413  25.050  0.00  0.00    -0.218 OA
ATOM     31  C   UNL     1      -1.426  -1.250  25.060  0.00  0.00    +0.213 C 
ATOM     32  O   UNL     1      -0.704  -1.647  25.018  0.00  0.00    -0.218 OA
ENDROOT
BRANCH  14  13
ATOM     13  C   UNL     1      -0.928   0.132  25.095  0.00  0.00    +0.148 C 
BRANCH  13  12
ATOM     10  C   UNL     1      -0.517   1.500  25.049  0.00  0.00    +0.265 C 
ATOM     11  O   UNL     1       0.268   1.262  24.972  0.00  0.00    -0.268 OA
ATOM     12  N   UNL     1      -1.116   0.935  25.110  0.00  0.00    -0.199 NA
BRANCH  10   7
ATOM      4  C   UNL     1      -1.082   3.909  25.096  0.00  0.00    +0.048 A 
ATOM      5  C   UNL     1      -0.894   3.543  24.380  0.00  0.00    +0.015 A 
ATOM      6  C   UNL     1      -0.706   2.740  24.365  0.00  0.00    +0.006 A 
ATOM      7  C   UNL     1      -0.705   2.303  25.065  0.00  0.00    +0.055 A 
ATOM      8  C   UNL     1      -0.893   2.669  25.780  0.00  0.00    +0.006 A 
ATOM      9  C   UNL     1      -1.081   3.473  25.795  0.00  0.00    +0.015 A 
BRANCH   4   2
ATOM      1  C   UNL     1      -0.729   5.268  24.827  0.00  0.00    +0.112 C 
ATOM      2  N   UNL     1      -1.270   4.713  25.111  0.00  0.00    -0.304 N 
ATOM      3  C   UNL     1      -1.997   4.961  25.409  0.00  0.00    +0.112 C 
ENDBRANCH   4   2
ENDBRANCH  10   7
ENDBRANCH  13  12
ENDBRANCH  14  13
BRANCH  16  17
ATOM     17  C   UNL     1      -3.555  -1.107  25.147  0.00  0.00    +0.119 C 
BRANCH  17  18
ATOM     18  C   UNL     1      -4.048  -0.608  24.712  0.00  0.00    +0.244 C 
ATOM     19  O   UNL     1      -4.267  -0.812  23.943  0.00  0.00    -0.273 OA
ATOM     20  N   UNL     1      -4.322   0.094  25.047  0.00  0.00    -0.200 NA
BRANCH  20  21
ATOM     21  C   UNL     1      -4.816   0.593  24.613  0.00  0.00    +0.141 C 
BRANCH  21  22
ATOM     22  C   UNL     1      -4.941   1.369  24.863  0.00  0.00    -0.000 A 
ATOM     23  C   UNL     1      -4.550   1.991  24.486  0.00  0.00    -0.000 A 
ATOM     24  C   UNL     1      -4.675   2.767  24.736  0.00  0.00    +0.029 A 
ATOM     25  C   UNL     1      -5.188   2.921  25.362  0.00  0.00    +0.140 A 
ATOM     26  F   UNL     1      -5.313   3.698  25.612  0.00  0.00    -0.204 F 
ATOM     27  C   UNL     1      -5.579   2.300  25.738  0.00  0.00    +0.029 A 
ATOM     28  C   UNL     1      -5.454   1.523  25.488  0.00  0.00    -0.000 A 
ENDBRANCH  21  22
ENDBRANCH  20  21
ENDBRANCH  17  18
ENDBRANCH  16  17
TORSDOF 8
ENDMDL
MODEL 4
REMARK VINA RESULT:     -11.4      2.163      3.817
REMARK  Name = 
REMARK  8 active torsions:
REMARK  status: ('A' for Active; 'I' for Inactive)
REMARK    1  A    between atoms: N_2  and  C_4
REMARK    2  A    between atoms: C_7  and  C_10
REMARK    3  A    between atoms: N_12  and  C_13
REMARK    4  A    between atoms: C_13  and  C_14
REMARK    5  A    between atoms: C_16  and  C_17
REMARK    6  A    between atoms: C_17  and  C_18
REMARK    7  A    between atoms: N_20  and  C_21
REMARK    8  A    between atoms: C_21  and  C_22
REMARK                            x       y       z     vdW  Elec       q    Type
REMARK                         _______ _______ _______ _____ _____    ______ ____
ROOT
ATOM     14  C   UNL     1      -4.881   2.106  25.234  0.00  0.00    +0.170 C 
ATOM     15  O   UNL     1      -4.210   2.585  25.212  0.00  0.00    -0.351 OA
ATOM     16  C   UNL     1      -4.442   3.357  25.386  0.00  0.00    +0.157 C 
ATOM     29  C   UNL     1      -5.257   3.356  25.516  0.00  0.00    +0.212 C 
ATOM     30  O   UNL     1      -5.718   4.012  25.706  0.00  0.00    -0.218 OA
ATOM     31  C   UNL     1      -5.528   2.581  25.422  0.00  0.00    +0.213 C 
ATOM     32  O   UNL     1      -6.309   2.330  25.502  0.00  0.00    -0.218 OA
ENDROOT
BRANCH  14  13
ATOM     13  C   UNL     1      -4.902   1.293  25.093  0.00  0.00    +0.148 C 
BRANCH  13  12
ATOM     10  C   UNL     1      -4.200   0.072  24.848  0.00  0.00    +0.265 C 
ATOM     11  O   UNL     1      -4.889  -0.262  24.542  0.00  0.00    -0.268 OA
ATOM     12  N   UNL     1      -4.207   0.850  25.124  0.00  0.00    -0.199 NA
BRANCH  10   7
ATOM      4  C   UNL     1      -2.114  -1.255  24.941  0.00  0.00    +0.048 A 
ATOM      5  C   UNL     1      -2.219  -0.692  24.347  0.00  0.00    +0.015 A 
ATOM      6  C   UNL     1      -2.914  -0.249  24.316  0.00  0.00    +0.006 A 
ATOM      7  C   UNL     1      -3.505  -0.370  24.879  0.00  0.00    +0.055 A 
ATOM      8  C   UNL     1      -3.400  -0.933  25.473  0.00  0.00    +0.006 A 
ATOM      9  C   UNL     1      -2.704  -1.376  25.504  0.00  0.00    +0.015 A 
BRANCH   4   2
ATOM      1  C   UNL     1      -0.744  -1.382  25.330  0.00  0.00    +0.112 C 
ATOM      2  N   UNL     1      -1.417  -1.697  24.971  0.00  0.00    -0.304 N 
ATOM      3  C   UNL     1      -1.394  -2.453  24.644  0.00  0.00    +0.112 C 
ENDBRANCH   4   2
ENDBRANCH  10   7
ENDBRANCH  13  12
ENDBRANCH  14  13
BRANCH  16  17
ATOM     17  C   UNL     1      -3.945   4.016  25.424  0.00  0.00    +0.119 C 
BRANCH  17  18
ATOM     18  C   UNL     1      -3.224   3.966  25.822  0.00  0.00    +0.244 C 
ATOM     19  O   UNL     1      -3.184   4.140  26.627  0.00  0.00    -0.273 OA
ATOM     20  N   UNL     1      -2.544   3.741  25.413  0.00  0.00    -0.200 NA
BRANCH  20  21
ATOM     21  C   UNL     1      -1.822   3.691  25.810  0.00  0.00    +0.141 C 
BRANCH  21  22
ATOM     22  C   UNL     1      -1.209   3.239  25.495  0.00  0.00    -0.000 A 
ATOM     23  C   UNL     1      -0.866   2.637  25.945  0.00  0.00    -0.000 A 
ATOM     24  C   UNL     1      -0.253   2.185  25.630  0.00  0.00    +0.029 A 
ATOM     25  C   UNL     1       0.018   2.333  24.865  0.00  0.00    +0.140 A 
ATOM     26  F   UNL     1       0.631   1.879  24.550  0.00  0.00    -0.204 F 
ATOM     27  C   UNL     1      -0.325   2.933  24.415  0.00  0.00    +0.029 A 
ATOM     28  C   UNL     1      -0.938   3.386  24.731  0.00  0.00    -0.000 A 
ENDBRANCH  21  22
ENDBRANCH  20  21
ENDBRANCH  17  18
ENDBRANCH  16  17
TORSDOF 8
ENDMDL
MODEL 5
REMARK VINA RESULT:     -11.2      1.969      3.639
REMARK  Name = 
REMARK  8 active torsions:
REMARK  status: ('A' for Active; 'I' for Inactive)
REMARK    1  A    between atoms: N_2  and  C_4
REMARK    2  A    between atoms: C_7  and  C_10
REMARK    3  A    between atoms: N_12  and  C_13
REMARK    4  A    between atoms: C_13  and  C_14
REMARK    5  A    between atoms: C_16  and  C_17
REMARK    6  A    between atoms: C_17  and  C_18
REMARK    7  A    between atoms: N_20  and  C_21
REMARK    8  A    between atoms: C_21  and  C_22
REMARK                            x       y       z     vdW  Elec       q    Type
REMARK                         _______ _______ _______ _____ _____    ______ ____
ROOT
ATOM     14  C   UNL     1      -3.426   2.882  25.181  0.00  0.00    +0.170 C 
ATOM     15  O   UNL     1      -2.626   2.770  25.010  0.00  0.00    -0.351 OA
ATOM     16  C   UNL     1      -2.223   3.461  25.212  0.00  0.00    +0.157 C 
ATOM     29  C   UNL     1      -2.774   4.000  25.508  0.00  0.00    +0.212 C 
ATOM     30  O   UNL     1      -2.609   4.763  25.776  0.00  0.00    -0.218 OA
ATOM     31  C   UNL     1      -3.517   3.642  25.489  0.00  0.00    +0.213 C 
ATOM     32  O   UNL     1      -4.226   3.985  25.734  0.00  0.00    -0.218 OA
ENDROOT
BRANCH  14  13
ATOM     13  C   UNL     1      -4.029   2.331  25.065  0.00  0.00    +0.148 C 
BRANCH  13  12
ATOM     10  C   UNL     1      -4.448   0.982  24.844  0.00  0.00    +0.265 C 
ATOM     11  O   UNL     1      -5.234   1.231  24.817  0.00  0.00    -0.268 OA
ATOM     12  N   UNL     1      -3.846   1.533  24.968  0.00  0.00    -0.199 NA
BRANCH  10   7
ATOM      4  C   UNL     1      -3.897  -1.413  24.556  0.00  0.00    +0.048 A 
ATOM      5  C   UNL     1      -4.049  -0.941  23.895  0.00  0.00    +0.015 A 
ATOM      6  C   UNL     1      -4.232  -0.143  23.991  0.00  0.00    +0.006 A 
ATOM      7  C   UNL     1      -4.265   0.184  24.748  0.00  0.00    +0.055 A 
ATOM      8  C   UNL     1      -4.113  -0.287  25.409  0.00  0.00    +0.006 A 
ATOM      9  C   UNL     1      -3.929  -1.086  25.312  0.00  0.00    +0.015 A 
BRANCH   4   2
ATOM      1  C   UNL     1      -4.076  -2.648  23.859  0.00  0.00    +0.112 C 
ATOM      2  N   UNL     1      -3.713  -2.212  24.459  0.00  0.00    -0.304 N 
ATOM      3  C   UNL     1      -3.169  -2.574  24.960  0.00  0.00    +0.112 C 
ENDBRANCH   4   2
ENDBRANCH  10   7
ENDBRANCH  13  12
ENDBRANCH  14  13
BRANCH  16  17
ATOM     17  C   UNL     1      -1.412   3.590  25.132  0.00  0.00    +0.119 C 
BRANCH  17  18
ATOM     18  C   UNL     1      -0.877   3.005  25.361  0.00  0.00    +0.244 C 
ATOM     19  O   UNL     1      -0.539   3.026  26.113  0.00  0.00    -0.273 OA
ATOM     20  N   UNL     1      -0.682   2.399  24.837  0.00  0.00    -0.200 NA
BRANCH  20  21
ATOM     21  C   UNL     1      -0.146   1.813  25.065  0.00  0.00    +0.141 C 
BRANCH  21  22
ATOM     22  C   UNL     1      -0.166   1.073  24.701  0.00  0.00    -0.000 A 
ATOM     23  C   UNL     1      -0.440   0.416  25.118  0.00  0.00    -0.000 A 
ATOM     24  C   UNL     1      -0.459  -0.324  24.754  0.00  0.00    +0.029 A 
ATOM     25  C   UNL     1      -0.205  -0.407  23.974  0.00  0.00    +0.140 A 
ATOM     26  F   UNL     1      -0.224  -1.148  23.610  0.00  0.00    -0.204 F 
ATOM     27  C   UNL     1       0.069   0.250  23.557  0.00  0.00    +0.029 A 
ATOM     28  C   UNL     1       0.089   0.991  23.922  0.00  0.00    -0.000 A 
ENDBRANCH  21  22
ENDBRANCH  20  21
ENDBRANCH  17  18
ENDBRANCH  16  17
TORSDOF 8
ENDMDL
MODEL 6
REMARK VINA RESULT:     -10.9      2.048      4.790
REMARK  Name = 
REMARK  8 active torsions:
REMARK  status: ('A' for Active; 'I' for Inactive)
REMARK    1  A    between atoms: N_2  and  C_4
REMARK    2  A    between atoms: C_7  and  C_10
REMARK    3  A    between atoms: N_12  and  C_13
REMARK    4  A    between atoms: C_13  and  C_14
REMARK    5  A    between atoms: C_16  and  C_17
REMARK    6  A    between atoms: C_17  and  C_18
REMARK    7  A    between atoms: N_20  and  C_21
REMARK    8  A    between atoms: C_21  and  C_22
REMARK                            x       y       z     vdW  Elec       q    Type
REMARK                         _______ _______ _______ _____ _____    ______ ____
ROOT
ATOM     14  C   UNL     1      -2.701  -1.141  24.617  0.00  0.00    +0.170 C 
ATOM     15  O   UNL     1      -2.017  -0.683  24.678  0.00  0.00    -0.351 OA
ATOM     16  C   UNL     1      -1.373  -1.194  24.732  0.00  0.00    +0.157 C 
ATOM     29  C   UNL     1      -1.657  -1.969  24.705  0.00  0.00    +0.212 C 
ATOM     30  O   UNL     1      -1.201  -2.654  24.743  0.00  0.00    -0.218 OA
ATOM     31  C   UNL     1      -2.479  -1.935  24.634  0.00  0.00    +0.213 C 
ATOM     32  O   UNL     1      -2.987  -2.583  24.589  0.00  0.00    -0.218 OA
ENDROOT
BRANCH  14  13
ATOM     13  C   UNL     1      -3.473  -0.855  24.552  0.00  0.00    +0.148 C 
BRANCH  13  12
ATOM     10  C   UNL     1      -4.381   0.248  24.567  0.00  0.00    +0.265 C 
ATOM     11  O   UNL     1      -4.957  -0.222  24.209  0.00  0.00    -0.268 OA
ATOM     12  N   UNL     1      -3.639  -0.069  24.738  0.00  0.00    -0.199 NA
BRANCH  10   7
ATOM      4  C   UNL     1      -4.879   2.607  25.126  0.00  0.00    +0.048 A 
ATOM      5  C   UNL     1      -5.209   1.997  25.575  0.00  0.00    +0.015 A 
ATOM      6  C   UNL     1      -5.044   1.212  25.388  0.00  0.00    +0.006 A 
ATOM      7  C   UNL     1      -4.547   1.034  24.753  0.00  0.00    +0.055 A 
ATOM      8  C   UNL     1      -4.217   1.643  24.305  0.00  0.00    +0.006 A 
ATOM      9  C   UNL     1      -4.383   2.430  24.492  0.00  0.00    +0.015 A 
BRANCH   4   2
ATOM      1  C   UNL     1      -5.816   3.616  25.509  0.00  0.00    +0.112 C 
ATOM      2  N   UNL     1      -5.045   3.393  25.314  0.00  0.00    -0.304 N 
ATOM      3  C   UNL     1      -4.443   3.955  25.306  0.00  0.00    +0.112 C 
ENDBRANCH   4   2
ENDBRANCH  10   7
ENDBRANCH  13  12
ENDBRANCH  14  13
BRANCH  16  17
ATOM     17  C   UNL     1      -0.581  -0.971  24.801  0.00  0.00    +0.119 C 
BRANCH  17  18
ATOM     18  C   UNL     1      -0.314  -0.281  24.435  0.00  0.00    +0.244 C 
ATOM     19  O   UNL     1      -0.018  -0.309  23.666  0.00  0.00    -0.273 OA
ATOM     20  N   UNL     1      -0.345   0.437  24.840  0.00  0.00    -0.200 NA
BRANCH  20  21
ATOM     21  C   UNL     1      -0.078   1.128  24.475  0.00  0.00    +0.141 C 
BRANCH  21  22
ATOM     22  C   UNL     1      -0.293   1.864  24.779  0.00  0.00    -0.000 A 
ATOM     23  C   UNL     1      -0.599   2.444  24.276  0.00  0.00    -0.000 A 
ATOM     24  C   UNL     1      -0.814   3.180  24.580  0.00  0.00    +0.029 A 
ATOM     25  C   UNL     1      -0.724   3.336  25.384  0.00  0.00    +0.140 A 
ATOM     26  F   UNL     1      -0.940   4.073  25.688  0.00  0.00    -0.204 F 
ATOM     27  C   UNL     1      -0.419   2.757  25.886  0.00  0.00    +0.029 A 
ATOM     28  C   UNL     1      -0.203   2.021  25.583  0.00  0.00    -0.000 A 
ENDBRANCH  21  22
ENDBRANCH  20  21
ENDBRANCH  17  18
ENDBRANCH  16  17
TORSDOF 8
ENDMDL
MODEL 7
REMARK VINA RESULT:      -7.6     16.546     19.044
REMARK  Name = 
REMARK  8 active torsions:
REMARK  status: ('A' for Active; 'I' for Inactive)
REMARK    1  A    between atoms: N_2  and  C_4
REMARK    2  A    between atoms: C_7  and  C_10
REMARK    3  A    between atoms: N_12  and  C_13
REMARK    4  A    between atoms: C_13  and  C_14
REMARK    5  A    between atoms: C_16  and  C_17
REMARK    6  A    between atoms: C_17  and  C_18
REMARK    7  A    between atoms: N_20  and  C_21
REMARK    8  A    between atoms: C_21  and  C_22
REMARK                            x       y       z     vdW  Elec       q    Type
REMARK                         _______ _______ _______ _____ _____    ______ ____
ROOT
ATOM     14  C   UNL     1      12.643   8.488  17.522  0.00  0.00    +0.170 C 
ATOM     15  O   UNL     1      13.336   8.205  17.868  0.00  0.00    -0.351 OA
ATOM     16  C   UNL     1      13.925   8.197  17.292  0.00  0.00    +0.157 C 
ATOM     29  C   UNL     1      13.597   8.476  16.587  0.00  0.00    +0.212 C 
ATOM     30  O   UNL     1      13.992   8.559  15.868  0.00  0.00    -0.218 OA
ATOM     31  C   UNL     1      12.804   8.656  16.730  0.00  0.00    +0.213 C 
ATOM     32  O   UNL     1      12.268   8.951  16.177  0.00  0.00    -0.218 OA
ENDROOT
BRANCH  14  13
ATOM     13  C   UNL     1      11.916   8.587  17.900  0.00  0.00    +0.148 C 
BRANCH  13  12
ATOM     10  C   UNL     1      11.137   8.545  19.097  0.00  0.00    +0.265 C 
ATOM     11  O   UNL     1      10.446   8.555  18.647  0.00  0.00    -0.268 OA
ATOM     12  N   UNL     1      11.872   8.561  18.723  0.00  0.00    -0.199 NA
BRANCH  10   7
ATOM      4  C   UNL     1      11.005   8.468  21.566  0.00  0.00    +0.048 A 
ATOM      5  C   UNL     1      11.434   9.068  21.194  0.00  0.00    +0.015 A 
ATOM      6  C   UNL     1      11.477   9.094  20.371  0.00  0.00    +0.006 A 
ATOM      7  C   UNL     1      11.093   8.520  19.920  0.00  0.00    +0.055 A 
ATOM      8  C   UNL     1      10.664   7.920  20.292  0.00  0.00    +0.006 A 
ATOM      9  C   UNL     1      10.621   7.895  21.116  0.00  0.00    +0.015 A 
BRANCH   4   2
ATOM      1  C   UNL     1      10.648   7.779  22.767  0.00  0.00    +0.112 C 
ATOM      2  N   UNL     1      10.962   8.444  22.391  0.00  0.00    -0.304 N 
ATOM      3  C   UNL     1      11.232   9.081  22.837  0.00  0.00    +0.112 C 
ENDBRANCH   4   2
ENDBRANCH  10   7
ENDBRANCH  13  12
ENDBRANCH  14  13
BRANCH  16  17
ATOM     17  C   UNL     1      14.707   7.953  17.399  0.00  0.00    +0.119 C 
BRANCH  17  18
ATOM     18  C   UNL     1      14.869   7.269  17.831  0.00  0.00    +0.244 C 
ATOM     19  O   UNL     1      14.652   6.531  17.533  0.00  0.00    -0.273 OA
ATOM     20  N   UNL     1      15.248   7.324  18.562  0.00  0.00    -0.200 NA
BRANCH  20  21
ATOM     21  C   UNL     1      15.411   6.640  18.994  0.00  0.00    +0.141 C 
BRANCH  21  22
ATOM     22  C   UNL     1      15.849   6.688  19.691  0.00  0.00    -0.000 A 
ATOM     23  C   UNL     1      16.666   6.566  19.674  0.00  0.00    -0.000 A 
ATOM     24  C   UNL     1      17.104   6.614  20.371  0.00  0.00    +0.029 A 
ATOM     25  C   UNL     1      16.727   6.783  21.084  0.00  0.00    +0.140 A 
ATOM     26  F   UNL     1      17.167   6.831  21.782  0.00  0.00    -0.204 F 
ATOM     27  C   UNL     1      15.912   6.905  21.102  0.00  0.00    +0.029 A 
ATOM     28  C   UNL     1      15.473   6.857  20.404  0.00  0.00    -0.000 A 
ENDBRANCH  21  22
ENDBRANCH  20  21
ENDBRANCH  17  18
ENDBRANCH  16  17
TORSDOF 8
ENDMDL
MODEL 8
REMARK VINA RESULT:      -7.6     15.945     18.279
REMARK  Name = 
REMARK  8 active torsions:
REMARK  status: ('A' for Active; 'I' for Inactive)
REMARK    1  A    between atoms: N_2  and  C_4
REMARK    2  A    between atoms: C_7  and  C_10
REMARK    3  A    between atoms: N_12  and  C_13
REMARK    4  A    between atoms: C_13  and  C_14
REMARK    5  A    between atoms: C_16  and  C_17
REMARK    6  A    between atoms: C_17  and  C_18
REMARK    7  A    between atoms: N_20  and  C_21
REMARK    8  A    between atoms: C_21  and  C_22
REMARK                            x       y       z     vdW  Elec       q    Type
REMARK                         _______ _______ _______ _____ _____    ______ ____
ROOT
ATOM     14  C   UNL     1      12.688   8.118  17.989  0.00  0.00    +0.170 C 
ATOM     15  O   UNL     1      12.363   8.298  18.726  0.00  0.00    -0.351 OA
ATOM     16  C   UNL     1      11.573   8.504  18.612  0.00  0.00    +0.157 C 
ATOM     29  C   UNL     1      11.409   8.452  17.805  0.00  0.00    +0.212 C 
ATOM     30  O   UNL     1      10.683   8.610  17.447  0.00  0.00    -0.218 OA
ATOM     31  C   UNL     1      12.099   8.213  17.420  0.00  0.00    +0.213 C 
ATOM     32  O   UNL     1      12.183   8.091  16.609  0.00  0.00    -0.218 OA
ENDROOT
BRANCH  14  13
ATOM     13  C   UNL     1      13.467   7.884  17.846  0.00  0.00    +0.148 C 
BRANCH  13  12
ATOM     10  C   UNL     1      14.737   7.461  18.347  0.00  0.00    +0.265 C 
ATOM     11  O   UNL     1      14.950   7.207  17.592  0.00  0.00    -0.268 OA
ATOM     12  N   UNL     1      13.994   7.799  18.474  0.00  0.00    -0.199 NA
BRANCH  10   7
ATOM      4  C   UNL     1      16.319   7.206  20.232  0.00  0.00    +0.048 A 
ATOM      5  C   UNL     1      16.055   7.957  20.013  0.00  0.00    +0.015 A 
ATOM      6  C   UNL     1      15.528   8.042  19.385  0.00  0.00    +0.006 A 
ATOM      7  C   UNL     1      15.264   7.376  18.975  0.00  0.00    +0.055 A 
ATOM      8  C   UNL     1      15.528   6.625  19.194  0.00  0.00    +0.006 A 
ATOM      9  C   UNL     1      16.056   6.541  19.823  0.00  0.00    +0.015 A 
BRANCH   4   2
ATOM      1  C   UNL     1      16.940   6.388  21.226  0.00  0.00    +0.112 C 
ATOM      2  N   UNL     1      16.847   7.123  20.861  0.00  0.00    -0.304 N 
ATOM      3  C   UNL     1      17.282   7.772  21.124  0.00  0.00    +0.112 C 
ENDBRANCH   4   2
ENDBRANCH  10   7
ENDBRANCH  13  12
ENDBRANCH  14  13
BRANCH  16  17
ATOM     17  C   UNL     1      11.039   8.724  19.203  0.00  0.00    +0.119 C 
BRANCH  17  18
ATOM     18  C   UNL     1      11.201   8.545  19.992  0.00  0.00    +0.244 C 
ATOM     19  O   UNL     1      11.606   9.088  20.463  0.00  0.00    -0.273 OA
ATOM     20  N   UNL     1      10.958   7.824  20.308  0.00  0.00    -0.200 NA
BRANCH  20  21
ATOM     21  C   UNL     1      11.119   7.644  21.098  0.00  0.00    +0.141 C 
BRANCH  21  22
ATOM     22  C   UNL     1      11.037   6.870  21.369  0.00  0.00    -0.000 A 
ATOM     23  C   UNL     1      10.327   6.626  21.712  0.00  0.00    -0.000 A 
ATOM     24  C   UNL     1      10.244   5.852  21.984  0.00  0.00    +0.029 A 
ATOM     25  C   UNL     1      10.871   5.321  21.913  0.00  0.00    +0.140 A 
ATOM     26  F   UNL     1      10.788   4.546  22.185  0.00  0.00    -0.204 F 
ATOM     27  C   UNL     1      11.581   5.564  21.570  0.00  0.00    +0.029 A 
ATOM     28  C   UNL     1      11.664   6.339  21.299  0.00  0.00    -0.000 A 
ENDBRANCH  21  22
ENDBRANCH  20  21
ENDBRANCH  17  18
ENDBRANCH  16  17
TORSDOF 8
ENDMDL
