MODEL 1
REMARK VINA RESULT:     -11.5      0.000      0.000
REMARK  Name = 
REMARK  4 active torsions:
REMARK  status: ('A' for Active; 'I' for Inactive)
REMARK    1  A    between atoms: C_2  and  C_4
REMARK    2  A    between atoms: C_4  and  C_5
REMARK    3  A    between atoms: C_7  and  C_18
REMARK    4  A    between atoms: N_20  and  C_21
REMARK                            x       y       z     vdW  Elec       q    Type
REMARK                         _______ _______ _______ _____ _____    ______ ____
ROOT
ATOM      5  C   UNL     1      -4.080   0.968  24.636  0.00  0.00    +0.095 C 
ATOM      6  N   UNL     1      -3.283   0.957  24.422  0.00  0.00    -0.207 NA
ATOM      7  C   UNL     1      -2.742   1.580  24.421  0.00  0.00    +0.155 C 
ATOM      8  C   UNL     1      -2.865   2.368  24.633  0.00  0.00    +0.055 C 
ATOM      9  C   UNL     1      -3.558   2.727  24.899  0.00  0.00    +0.000 A 
ATOM     10  C   UNL     1      -3.609   3.527  25.095  0.00  0.00    +0.095 A 
ATOM     11  N   UNL     1      -4.383   3.682  25.336  0.00  0.00    -0.244 NA
ATOM     12  C   UNL     1      -4.810   2.978  25.289  0.00  0.00    +0.081 A 
ATOM     13  C   UNL     1      -4.300   2.387  25.019  0.00  0.00    +0.013 A 
ATOM     14  C   UNL     1      -4.532   1.604  24.901  0.00  0.00    -0.005 A 
ATOM     15  C   UNL     1      -5.365   1.437  25.084  0.00  0.00    -0.003 A 
ATOM     16  C   UNL     1      -5.875   2.026  25.354  0.00  0.00    +0.001 A 
ATOM     17  C   UNL     1      -5.597   2.797  25.457  0.00  0.00    +0.019 A 
ENDROOT
BRANCH   7  18
ATOM     18  C   UNL     1      -1.978   1.390  24.174  0.00  0.00    +0.257 C 
ATOM     19  O   UNL     1      -1.803   1.349  23.368  0.00  0.00    -0.272 OA
ATOM     20  N   UNL     1      -1.390   1.242  24.733  0.00  0.00    -0.206 NA
BRANCH  20  21
ATOM     21  C   UNL     1      -0.626   1.051  24.485  0.00  0.00    +0.095 C 
ATOM     22  C   UNL     1      -0.065   1.648  24.384  0.00  0.00    +0.023 C 
ATOM     23  C   UNL     1      -0.423   0.266  24.339  0.00  0.00    +0.023 C 
ENDBRANCH  20  21
ENDBRANCH   7  18
BRANCH   5   4
ATOM      4  C   UNL     1      -4.476   0.247  24.576  0.00  0.00    +0.022 C 
BRANCH   4   2
ATOM      1  C   UNL     1      -3.842  -0.674  25.467  0.00  0.00    +0.000 C 
ATOM      2  C   UNL     1      -4.067  -0.459  24.703  0.00  0.00    +0.002 C 
ATOM      3  C   UNL     1      -3.885  -0.950  24.065  0.00  0.00    +0.000 C 
ENDBRANCH   4   2
ENDBRANCH   5   4
TORSDOF 4
ENDMDL
MODEL 2
REMARK VINA RESULT:     -11.1      1.198      2.583
REMARK  Name = 
REMARK  4 active torsions:
REMARK  status: ('A' for Active; 'I' for Inactive)
REMARK    1  A    between atoms: C_2  and  C_4
REMARK    2  A    between atoms: C_4  and  C_5
REMARK    3  A    between atoms: C_7  and  C_18
REMARK    4  A    between atoms: N_20  and  C_21
REMARK                            x       y       z     vdW  Elec       q    Type
REMARK                         _______ _______ _______ _____ _____    ______ ____
ROOT
ATOM      5  C   UNL     1      -3.332   1.815  24.344  0.00  0.00    +0.095 C 
ATOM      6  N   UNL     1      -3.312   0.991  24.303  0.00  0.00    -0.207 NA
ATOM      7  C   UNL     1      -3.876   0.449  24.565  0.00  0.00    +0.155 C 
ATOM      8  C   UNL     1      -4.599   0.597  24.933  0.00  0.00    +0.055 C 
ATOM      9  C   UNL     1      -4.937   1.324  25.131  0.00  0.00    +0.000 A 
ATOM     10  C   UNL     1      -5.670   1.399  25.501  0.00  0.00    +0.095 A 
ATOM     11  N   UNL     1      -5.821   2.203  25.608  0.00  0.00    -0.244 NA
ATOM     12  C   UNL     1      -5.181   2.625  25.303  0.00  0.00    +0.081 A 
ATOM     13  C   UNL     1      -4.634   2.082  25.008  0.00  0.00    +0.013 A 
ATOM     14  C   UNL     1      -3.919   2.300  24.657  0.00  0.00    -0.005 A 
ATOM     15  C   UNL     1      -3.777   3.155  24.618  0.00  0.00    -0.003 A 
ATOM     16  C   UNL     1      -4.323   3.699  24.913  0.00  0.00    +0.001 A 
ATOM     17  C   UNL     1      -5.025   3.433  25.255  0.00  0.00    +0.019 A 
ENDROOT
BRANCH   7  18
ATOM     18  C   UNL     1      -3.692  -0.346  24.443  0.00  0.00    +0.257 C 
ATOM     19  O   UNL     1      -3.955  -0.730  23.761  0.00  0.00    -0.272 OA
ATOM     20  N   UNL     1      -3.246  -0.757  25.002  0.00  0.00    -0.206 NA
BRANCH  20  21
ATOM     21  C   UNL     1      -3.063  -1.552  24.878  0.00  0.00    +0.095 C 
ATOM     22  C   UNL     1      -2.319  -1.764  24.592  0.00  0.00    +0.023 C 
ATOM     23  C   UNL     1      -3.623  -2.135  25.041  0.00  0.00    +0.023 C 
ENDBRANCH  20  21
ENDBRANCH   7  18
BRANCH   5   4
ATOM      4  C   UNL     1      -2.676   2.204  24.029  0.00  0.00    +0.022 C 
BRANCH   4   2
ATOM      1  C   UNL     1      -1.547   1.542  23.454  0.00  0.00    +0.000 C 
ATOM      2  C   UNL     1      -2.289   1.893  23.369  0.00  0.00    +0.002 C 
ATOM      3  C   UNL     1      -2.645   1.935  22.626  0.00  0.00    +0.000 C 
ENDBRANCH   4   2
ENDBRANCH   5   4
TORSDOF 4
ENDMDL
MODEL 3
REMARK VINA RESULT:     -11.1      1.403      3.232
REMARK  Name = 
REMARK  4 active torsions:
REMARK  status: ('A' for Active; 'I' for Inactive)
REMARK    1  A    between atoms: C_2  and  C_4
REMARK    2  A    between atoms: C_4  and  C_5
REMARK    3  A    between atoms: C_7  and  C_18
REMARK    4  A    between atoms: N_20  and  C_21
REMARK                            x       y       z     vdW  Elec       q    Type
REMARK                         _______ _______ _______ _____ _____    ______ ____
ROOT
ATOM      5  C   UNL     1      -3.345   0.257  24.374  0.00  0.00    +0.095 C 
ATOM      6  N   UNL     1      -2.747   0.806  24.521  0.00  0.00    -0.207 NA
ATOM      7  C   UNL     1      -1.961   0.668  24.729  0.00  0.00    +0.155 C 
ATOM      8  C   UNL     1      -1.578  -0.054  24.841  0.00  0.00    +0.055 C 
ATOM      9  C   UNL     1      -1.886  -0.816  24.772  0.00  0.00    +0.000 A 
ATOM     10  C   UNL     1      -1.442  -1.500  24.899  0.00  0.00    +0.095 A 
ATOM     11  N   UNL     1      -1.935  -2.150  24.780  0.00  0.00    -0.244 NA
ATOM     12  C   UNL     1      -2.685  -1.869  24.580  0.00  0.00    +0.081 A 
ATOM     13  C   UNL     1      -2.655  -1.044  24.575  0.00  0.00    +0.013 A 
ATOM     14  C   UNL     1      -3.303  -0.566  24.398  0.00  0.00    -0.005 A 
ATOM     15  C   UNL     1      -4.035  -0.996  24.213  0.00  0.00    -0.003 A 
ATOM     16  C   UNL     1      -4.066  -1.820  24.218  0.00  0.00    +0.001 A 
ATOM     17  C   UNL     1      -3.390  -2.257  24.402  0.00  0.00    +0.019 A 
ENDROOT
BRANCH   7  18
ATOM     18  C   UNL     1      -1.496   1.341  24.840  0.00  0.00    +0.257 C 
ATOM     19  O   UNL     1      -1.193   1.745  24.187  0.00  0.00    -0.272 OA
ATOM     20  N   UNL     1      -1.336   1.610  25.603  0.00  0.00    -0.206 NA
BRANCH  20  21
ATOM     21  C   UNL     1      -0.871   2.283  25.712  0.00  0.00    +0.095 C 
ATOM     22  C   UNL     1      -0.051   2.213  25.770  0.00  0.00    +0.023 C 
ATOM     23  C   UNL     1      -1.226   3.026  25.764  0.00  0.00    +0.023 C 
ENDBRANCH  20  21
ENDBRANCH   7  18
BRANCH   5   4
ATOM      4  C   UNL     1      -4.080   0.573  24.177  0.00  0.00    +0.022 C 
BRANCH   4   2
ATOM      1  C   UNL     1      -4.638   1.247  25.307  0.00  0.00    +0.000 C 
ATOM      2  C   UNL     1      -4.341   1.269  24.538  0.00  0.00    +0.002 C 
ATOM      3  C   UNL     1      -4.302   1.985  24.129  0.00  0.00    +0.000 C 
ENDBRANCH   4   2
ENDBRANCH   5   4
TORSDOF 4
ENDMDL
MODEL 4
REMARK VINA RESULT:     -11.0      1.509      4.142
REMARK  Name = 
REMARK  4 active torsions:
REMARK  status: ('A' for Active; 'I' for Inactive)
REMARK    1  A    between atoms: C_2  and  C_4
REMARK    2  A    between atoms: C_4  and  C_5
REMARK    3  A    between atoms: C_7  and  C_18
REMARK    4  A    between atoms: N_20  and  C_21
REMARK                            x       y       z     vdW  Elec       q    Type
REMARK                         _______ _______ _______ _____ _____    ______ ____
ROOT
ATOM      5  C   UNL     1      -2.360  -0.222  24.932  0.00  0.00    +0.095 C 
ATOM      6  N   UNL     1      -2.896   0.398  24.842  0.00  0.00    -0.207 NA
ATOM      7  C   UNL     1      -3.674   0.369  24.565  0.00  0.00    +0.155 C 
ATOM      8  C   UNL     1      -4.105  -0.286  24.311  0.00  0.00    +0.055 C 
ATOM      9  C   UNL     1      -3.867  -1.075  24.271  0.00  0.00    +0.000 A 
ATOM     10  C   UNL     1      -4.355  -1.684  24.004  0.00  0.00    +0.095 A 
ATOM     11  N   UNL     1      -3.928  -2.389  24.043  0.00  0.00    -0.244 NA
ATOM     12  C   UNL     1      -3.175  -2.215  24.334  0.00  0.00    +0.081 A 
ATOM     13  C   UNL     1      -3.137  -1.403  24.475  0.00  0.00    +0.013 A 
ATOM     14  C   UNL     1      -2.467  -1.023  24.769  0.00  0.00    -0.005 A 
ATOM     15  C   UNL     1      -1.789  -1.543  24.924  0.00  0.00    -0.003 A 
ATOM     16  C   UNL     1      -1.826  -2.355  24.784  0.00  0.00    +0.001 A 
ATOM     17  C   UNL     1      -2.520  -2.691  24.488  0.00  0.00    +0.019 A 
ENDROOT
BRANCH   7  18
ATOM     18  C   UNL     1      -4.071   1.092  24.540  0.00  0.00    +0.257 C 
ATOM     19  O   UNL     1      -4.039   1.556  23.858  0.00  0.00    -0.272 OA
ATOM     20  N   UNL     1      -4.499   1.350  25.195  0.00  0.00    -0.206 NA
BRANCH  20  21
ATOM     21  C   UNL     1      -4.897   2.073  25.169  0.00  0.00    +0.095 C 
ATOM     22  C   UNL     1      -5.703   2.094  24.996  0.00  0.00    +0.023 C 
ATOM     23  C   UNL     1      -4.488   2.775  25.315  0.00  0.00    +0.023 C 
ENDBRANCH  20  21
ENDBRANCH   7  18
BRANCH   5   4
ATOM      4  C   UNL     1      -1.618  -0.012  25.225  0.00  0.00    +0.022 C 
BRANCH   4   2
ATOM      1  C   UNL     1      -0.984   0.776  24.215  0.00  0.00    +0.000 C 
ATOM      2  C   UNL     1      -1.265   0.695  24.986  0.00  0.00    +0.002 C 
ATOM      3  C   UNL     1      -1.194   1.321  25.519  0.00  0.00    +0.000 C 
ENDBRANCH   4   2
ENDBRANCH   5   4
TORSDOF 4
ENDMDL
MODEL 5
REMARK VINA RESULT:     -10.9      1.503      2.227
REMARK  Name = 
REMARK  4 active torsions:
REMARK  status: ('A' for Active; 'I' for Inactive)
REMARK    1  A    between atoms: C_2  and  C_4
REMARK    2  A    between atoms: C_4  and  C_5
REMARK    3  A    between atoms: C_7  and  C_18
REMARK    4  A    between atoms: N_20  and  C_21
REMARK                            x       y       z     vdW  Elec       q    Type
REMARK                         _______ _______ _______ _____ _____    ______ ____
ROOT
ATOM      5  C   UNL     1      -3.552   1.884  24.855  0.00  0.00    +0.095 C 
ATOM      6  N   UNL     1      -2.942   2.417  25.007  0.00  0.00    -0.207 NA
ATOM      7  C   UNL     1      -2.990   3.179  25.322  0.00  0.00    +0.155 C 
ATOM      8  C   UNL     1      -3.661   3.594  25.562  0.00  0.00    +0.055 C 
ATOM      9  C   UNL     1      -4.450   3.351  25.547  0.00  0.00    +0.000 A 
ATOM     10  C   UNL     1      -5.076   3.822  25.805  0.00  0.00    +0.095 A 
ATOM     11  N   UNL     1      -5.775   3.395  25.705  0.00  0.00    -0.244 NA
ATOM     12  C   UNL     1      -5.581   2.660  25.385  0.00  0.00    +0.081 A 
ATOM     13  C   UNL     1      -4.761   2.633  25.287  0.00  0.00    +0.013 A 
ATOM     14  C   UNL     1      -4.361   1.980  24.979  0.00  0.00    -0.005 A 
ATOM     15  C   UNL     1      -4.868   1.309  24.760  0.00  0.00    -0.003 A 
ATOM     16  C   UNL     1      -5.687   1.336  24.858  0.00  0.00    +0.001 A 
ATOM     17  C   UNL     1      -6.043   2.012  25.171  0.00  0.00    +0.019 A 
ENDROOT
BRANCH   7  18
ATOM     18  C   UNL     1      -2.272   3.577  25.408  0.00  0.00    +0.257 C 
ATOM     19  O   UNL     1      -1.801   3.438  26.072  0.00  0.00    -0.272 OA
ATOM     20  N   UNL     1      -2.027   4.113  24.832  0.00  0.00    -0.206 NA
BRANCH  20  21
ATOM     21  C   UNL     1      -1.309   4.510  24.919  0.00  0.00    +0.095 C 
ATOM     22  C   UNL     1      -1.302   5.312  25.116  0.00  0.00    +0.023 C 
ATOM     23  C   UNL     1      -0.598   4.108  24.809  0.00  0.00    +0.023 C 
ENDBRANCH  20  21
ENDBRANCH   7  18
BRANCH   5   4
ATOM      4  C   UNL     1      -3.322   1.159  24.536  0.00  0.00    +0.022 C 
BRANCH   4   2
ATOM      1  C   UNL     1      -2.795   1.424  23.234  0.00  0.00    +0.000 C 
ATOM      2  C   UNL     1      -2.697   1.126  23.997  0.00  0.00    +0.002 C 
ATOM      3  C   UNL     1      -1.976   0.794  24.222  0.00  0.00    +0.000 C 
ENDBRANCH   4   2
ENDBRANCH   5   4
TORSDOF 4
ENDMDL
MODEL 6
REMARK VINA RESULT:     -10.8      0.953      2.497
REMARK  Name = 
REMARK  4 active torsions:
REMARK  status: ('A' for Active; 'I' for Inactive)
REMARK    1  A    between atoms: C_2  and  C_4
REMARK    2  A    between atoms: C_4  and  C_5
REMARK    3  A    between atoms: C_7  and  C_18
REMARK    4  A    between atoms: N_20  and  C_21
REMARK                            x       y       z     vdW  Elec       q    Type
REMARK                         _______ _______ _______ _____ _____    ______ ____
ROOT
ATOM      5  C   UNL     1      -3.199   3.130  24.919  0.00  0.00    +0.095 C 
ATOM      6  N   UNL     1      -2.553   2.706  24.629  0.00  0.00    -0.207 NA
ATOM      7  C   UNL     1      -2.517   1.913  24.404  0.00  0.00    +0.155 C 
ATOM      8  C   UNL     1      -3.118   1.348  24.413  0.00  0.00    +0.055 C 
ATOM      9  C   UNL     1      -3.903   1.436  24.650  0.00  0.00    +0.000 A 
ATOM     10  C   UNL     1      -4.455   0.824  24.633  0.00  0.00    +0.095 A 
ATOM     11  N   UNL     1      -5.175   1.120  24.908  0.00  0.00    -0.244 NA
ATOM     12  C   UNL     1      -5.068   1.916  25.095  0.00  0.00    +0.081 A 
ATOM     13  C   UNL     1      -4.282   2.112  24.935  0.00  0.00    +0.013 A 
ATOM     14  C   UNL     1      -3.967   2.866  25.055  0.00  0.00    -0.005 A 
ATOM     15  C   UNL     1      -4.528   3.451  25.366  0.00  0.00    -0.003 A 
ATOM     16  C   UNL     1      -5.314   3.256  25.525  0.00  0.00    +0.001 A 
ATOM     17  C   UNL     1      -5.583   2.488  25.390  0.00  0.00    +0.019 A 
ENDROOT
BRANCH   7  18
ATOM     18  C   UNL     1      -1.782   1.650  24.134  0.00  0.00    +0.257 C 
ATOM     19  O   UNL     1      -1.562   1.778  23.349  0.00  0.00    -0.272 OA
ATOM     20  N   UNL     1      -1.269   1.261  24.649  0.00  0.00    -0.206 NA
BRANCH  20  21
ATOM     21  C   UNL     1      -0.535   0.999  24.378  0.00  0.00    +0.095 C 
ATOM     22  C   UNL     1      -0.442   0.217  24.131  0.00  0.00    +0.023 C 
ATOM     23  C   UNL     1       0.105   1.517  24.353  0.00  0.00    +0.023 C 
ENDBRANCH  20  21
ENDBRANCH   7  18
BRANCH   5   4
ATOM      4  C   UNL     1      -3.055   3.923  25.095  0.00  0.00    +0.022 C 
BRANCH   4   2
ATOM      1  C   UNL     1      -2.174   3.919  26.220  0.00  0.00    +0.000 C 
ATOM      2  C   UNL     1      -2.341   4.145  25.444  0.00  0.00    +0.002 C 
ATOM      3  C   UNL     1      -1.795   4.593  25.017  0.00  0.00    +0.000 C 
ENDBRANCH   4   2
ENDBRANCH   5   4
TORSDOF 4
ENDMDL
MODEL 7
REMARK VINA RESULT:     -10.7      1.365      3.318
REMARK  Name = 
REMARK  4 active torsions:
REMARK  status: ('A' for Active; 'I' for Inactive)
REMARK    1  A    between atoms: C_2  and  C_4
REMARK    2  A    between atoms: C_4  and  C_5
REMARK    3  A    between atoms: C_7  and  C_18
REMARK    4  A    between atoms: N_20  and  C_21
REMARK                            x       y       z     vdW  Elec       q    Type
REMARK                         _______ _______ _______ _____ _____    ______ ____
ROOT
ATOM      5  C   UNL     1      -2.842   2.600  24.915  0.00  0.00    +0.095 C 
ATOM      6  N   UNL     1      -2.970   1.790  24.826  0.00  0.00    -0.207 NA
ATOM      7  C   UNL     1      -2.429   1.172  24.907  0.00  0.00    +0.155 C 
ATOM      8  C   UNL     1      -1.627   1.212  25.097  0.00  0.00    +0.055 C 
ATOM      9  C   UNL     1      -1.168   1.880  25.252  0.00  0.00    +0.000 A 
ATOM     10  C   UNL     1      -0.365   1.847  25.437  0.00  0.00    +0.095 A 
ATOM     11  N   UNL     1      -0.097   2.618  25.555  0.00  0.00    -0.244 NA
ATOM     12  C   UNL     1      -0.736   3.129  25.444  0.00  0.00    +0.081 A 
ATOM     13  C   UNL     1      -1.398   2.673  25.256  0.00  0.00    +0.013 A 
ATOM     14  C   UNL     1      -2.144   2.992  25.106  0.00  0.00    -0.005 A 
ATOM     15  C   UNL     1      -2.188   3.858  25.158  0.00  0.00    -0.003 A 
ATOM     16  C   UNL     1      -1.527   4.315  25.346  0.00  0.00    +0.001 A 
ATOM     17  C   UNL     1      -0.801   3.950  25.488  0.00  0.00    +0.019 A 
ENDROOT
BRANCH   7  18
ATOM     18  C   UNL     1      -2.730   0.414  24.782  0.00  0.00    +0.257 C 
ATOM     19  O   UNL     1      -2.614   0.039  24.055  0.00  0.00    -0.272 OA
ATOM     20  N   UNL     1      -3.145   0.031  25.383  0.00  0.00    -0.206 NA
BRANCH  20  21
ATOM     21  C   UNL     1      -3.446  -0.727  25.257  0.00  0.00    +0.095 C 
ATOM     22  C   UNL     1      -3.055  -1.383  25.570  0.00  0.00    +0.023 C 
ATOM     23  C   UNL     1      -4.136  -0.830  24.818  0.00  0.00    +0.023 C 
ENDBRANCH  20  21
ENDBRANCH   7  18
BRANCH   5   4
ATOM      4  C   UNL     1      -3.502   3.080  24.796  0.00  0.00    +0.022 C 
BRANCH   4   2
ATOM      1  C   UNL     1      -3.878   2.952  23.423  0.00  0.00    +0.000 C 
ATOM      2  C   UNL     1      -4.062   2.878  24.223  0.00  0.00    +0.002 C 
ATOM      3  C   UNL     1      -4.805   2.602  24.453  0.00  0.00    +0.000 C 
ENDBRANCH   4   2
ENDBRANCH   5   4
TORSDOF 4
ENDMDL
