MODEL 1
REMARK VINA RESULT:     -12.0      0.000      0.000
REMARK  Name = 
REMARK  8 active torsions:
REMARK  status: ('A' for Active; 'I' for Inactive)
REMARK    1  A    between atoms: C_5  and  C_8
REMARK    2  A    between atoms: N_10  and  C_11
REMARK    3  A    between atoms: C_13  and  C_19
REMARK    4  A    between atoms: N_21  and  C_22
REMARK    5  A    between atoms: C_22  and  C_23
REMARK    6  A    between atoms: C_22  and  C_29
REMARK    7  A    between atoms: C_23  and  C_24
REMARK    8  A    between atoms: C_24  and  S_25
REMARK                            x       y       z     vdW  Elec       q    Type
REMARK                         _______ _______ _______ _____ _____    ______ ____
ROOT
ATOM     11  C   UNL     1      -4.485   1.225  24.976  0.00  0.00    +0.150 C 
ATOM     12  C   UNL     1      -3.828   1.711  24.867  0.00  0.00    -0.002 C 
ATOM     13  C   UNL     1      -3.920   2.531  24.839  0.00  0.00    +0.033 C 
ATOM     14  C   UNL     1      -4.671   2.864  24.920  0.00  0.00    +0.066 C 
ATOM     15  C   UNL     1      -5.329   2.378  25.028  0.00  0.00    +0.189 C 
ATOM     16  O   UNL     1      -6.079   2.711  25.109  0.00  0.00    -0.220 OA
ATOM     17  C   UNL     1      -5.237   1.559  25.056  0.00  0.00    +0.206 C 
ATOM     18  O   UNL     1      -5.894   1.072  25.165  0.00  0.00    -0.218 OA
ENDROOT
BRANCH  11  10
ATOM      8  C   UNL     1      -3.980   0.016  24.407  0.00  0.00    +0.265 C 
ATOM      9  O   UNL     1      -3.657   0.446  23.779  0.00  0.00    -0.268 OA
ATOM     10  N   UNL     1      -4.393   0.406  25.004  0.00  0.00    -0.196 NA
BRANCH   8   5
ATOM      1  C   UNL     1      -3.610  -3.262  24.521  0.00  0.00    +0.031 C 
ATOM      2  C   UNL     1      -3.703  -2.443  24.492  0.00  0.00    -0.022 A 
ATOM      3  C   UNL     1      -3.350  -1.967  25.067  0.00  0.00    -0.004 A 
ATOM      4  C   UNL     1      -3.442  -1.148  25.038  0.00  0.00    +0.004 A 
ATOM      5  C   UNL     1      -3.888  -0.804  24.435  0.00  0.00    +0.055 A 
ATOM      6  C   UNL     1      -4.241  -1.279  23.861  0.00  0.00    +0.004 A 
ATOM      7  C   UNL     1      -4.149  -2.099  23.889  0.00  0.00    -0.004 A 
ENDBRANCH   8   5
ENDBRANCH  11  10
BRANCH  13  19
ATOM     19  C   UNL     1      -3.263   3.016  24.731  0.00  0.00    +0.261 C 
ATOM     20  O   UNL     1      -3.177   3.444  24.031  0.00  0.00    -0.269 OA
ATOM     21  N   UNL     1      -2.691   3.075  25.322  0.00  0.00    -0.194 NA
BRANCH  21  22
ATOM     22  C   UNL     1      -2.033   3.560  25.215  0.00  0.00    +0.176 C 
BRANCH  22  29
ATOM     29  C   UNL     1      -2.039   4.332  25.508  0.00  0.00    +0.281 C 
ATOM     30  N   UNL     1      -1.787   4.957  25.030  0.00  0.00    -0.086 NA
ATOM     31  O   UNL     1      -2.296   4.480  26.278  0.00  0.00    -0.270 OA
ENDBRANCH  22  29
BRANCH  22  23
ATOM     23  C   UNL     1      -1.371   3.276  24.815  0.00  0.00    +0.056 C 
BRANCH  23  24
ATOM     24  C   UNL     1      -0.742   2.950  25.239  0.00  0.00    +0.153 C 
BRANCH  24  25
ATOM     25  S   UNL     1      -0.197   2.462  24.858  0.00  0.00    -0.008 S 
ATOM     26  C   UNL     1       0.348   1.974  24.477  0.00  0.00    +0.176 C 
ATOM     27  O   UNL     1      -0.084   3.039  24.279  0.00  0.00    -0.173 OA
ATOM     28  O   UNL     1      -0.310   1.885  25.436  0.00  0.00    -0.173 OA
ENDBRANCH  24  25
ENDBRANCH  23  24
ENDBRANCH  22  23
ENDBRANCH  21  22
ENDBRANCH  13  19
TORSDOF 8
ENDMDL
MODEL 2
REMARK VINA RESULT:     -11.3      1.719      4.689
REMARK  Name = 
REMARK  8 active torsions:
REMARK  status: ('A' for Active; 'I' for Inactive)
REMARK    1  A    between atoms: C_5  and  C_8
REMARK    2  A    between atoms: N_10  and  C_11
REMARK    3  A    between atoms: C_13  and  C_19
REMARK    4  A    between atoms: N_21  and  C_22
REMARK    5  A    between atoms: C_22  and  C_23
REMARK    6  A    between atoms: C_22  and  C_29
REMARK    7  A    between atoms: C_23  and  C_24
REMARK    8  A    between atoms: C_24  and  S_25
REMARK                            x       y       z     vdW  Elec       q    Type
REMARK                         _______ _______ _______ _____ _____    ______ ____
ROOT
ATOM     11  C   UNL     1      -3.943   2.118  24.774  0.00  0.00    +0.150 C 
ATOM     12  C   UNL     1      -3.683   1.342  24.873  0.00  0.00    -0.002 C 
ATOM     13  C   UNL     1      -4.231   0.732  24.970  0.00  0.00    +0.033 C 
ATOM     14  C   UNL     1      -5.040   0.899  24.968  0.00  0.00    +0.066 C 
ATOM     15  C   UNL     1      -5.299   1.676  24.869  0.00  0.00    +0.189 C 
ATOM     16  O   UNL     1      -6.107   1.844  24.867  0.00  0.00    -0.220 OA
ATOM     17  C   UNL     1      -4.752   2.285  24.772  0.00  0.00    +0.206 C 
ATOM     18  O   UNL     1      -5.012   3.062  24.673  0.00  0.00    -0.218 OA
ENDROOT
BRANCH  11  10
ATOM      8  C   UNL     1      -2.799   2.839  25.235  0.00  0.00    +0.265 C 
ATOM      9  O   UNL     1      -2.748   2.340  25.891  0.00  0.00    -0.268 OA
ATOM     10  N   UNL     1      -3.396   2.728  24.678  0.00  0.00    -0.196 NA
BRANCH   8   5
ATOM      1  C   UNL     1      -0.608   5.277  24.846  0.00  0.00    +0.031 C 
ATOM      2  C   UNL     1      -1.156   4.668  24.944  0.00  0.00    -0.022 A 
ATOM      3  C   UNL     1      -0.989   3.913  24.655  0.00  0.00    -0.004 A 
ATOM      4  C   UNL     1      -1.537   3.304  24.753  0.00  0.00    +0.004 A 
ATOM      5  C   UNL     1      -2.251   3.449  25.138  0.00  0.00    +0.055 A 
ATOM      6  C   UNL     1      -2.418   4.203  25.426  0.00  0.00    +0.004 A 
ATOM      7  C   UNL     1      -1.871   4.813  25.329  0.00  0.00    -0.004 A 
ENDBRANCH   8   5
ENDBRANCH  11  10
BRANCH  13  19
ATOM     19  C   UNL     1      -3.971  -0.044  25.069  0.00  0.00    +0.261 C 
ATOM     20  O   UNL     1      -4.079  -0.426  25.791  0.00  0.00    -0.269 OA
ATOM     21  N   UNL     1      -3.603  -0.438  24.445  0.00  0.00    -0.194 NA
BRANCH  21  22
ATOM     22  C   UNL     1      -3.342  -1.215  24.543  0.00  0.00    +0.176 C 
BRANCH  22  29
ATOM     29  C   UNL     1      -3.816  -1.843  24.293  0.00  0.00    +0.281 C 
ATOM     30  N   UNL     1      -4.120  -1.850  23.525  0.00  0.00    -0.086 NA
ATOM     31  O   UNL     1      -3.986  -2.463  24.809  0.00  0.00    -0.270 OA
ENDBRANCH  22  29
BRANCH  22  23
ATOM     23  C   UNL     1      -2.610  -1.364  24.891  0.00  0.00    +0.056 C 
BRANCH  23  24
ATOM     24  C   UNL     1      -1.942  -1.468  24.417  0.00  0.00    +0.153 C 
BRANCH  24  25
ATOM     25  S   UNL     1      -1.191  -1.478  24.759  0.00  0.00    -0.008 S 
ATOM     26  C   UNL     1      -0.441  -1.488  25.102  0.00  0.00    +0.176 C 
ATOM     27  O   UNL     1      -1.023  -0.750  24.410  0.00  0.00    -0.173 OA
ATOM     28  O   UNL     1      -1.360  -2.206  25.108  0.00  0.00    -0.173 OA
ENDBRANCH  24  25
ENDBRANCH  23  24
ENDBRANCH  22  23
ENDBRANCH  21  22
ENDBRANCH  13  19
TORSDOF 8
ENDMDL
MODEL 3
REMARK VINA RESULT:     -10.8      1.590      3.257
REMARK  Name = 
REMARK  8 active torsions:
REMARK  status: ('A' for Active; 'I' for Inactive)
REMARK    1  A    between atoms: C_5  and  C_8
REMARK    2  A    between atoms: N_10  and  C_11
REMARK    3  A    between atoms: C_13  and  C_19
REMARK    4  A    between atoms: N_21  and  C_22
REMARK    5  A    between atoms: C_22  and  C_23
REMARK    6  A    between atoms: C_22  and  C_29
REMARK    7  A    between atoms: C_23  and  C_24
REMARK    8  A    between atoms: C_24  and  S_25
REMARK                            x       y       z     vdW  Elec       q    Type
REMARK                         _______ _______ _______ _____ _____    ______ ____
ROOT
ATOM     11  C   UNL     1      -1.335   0.602  24.383  0.00  0.00    +0.150 C 
ATOM     12  C   UNL     1      -1.691   1.255  24.740  0.00  0.00    -0.002 C 
ATOM     13  C   UNL     1      -1.247   1.932  24.898  0.00  0.00    +0.033 C 
ATOM     14  C   UNL     1      -0.445   1.956  24.699  0.00  0.00    +0.066 C 
ATOM     15  C   UNL     1      -0.090   1.302  24.342  0.00  0.00    +0.189 C 
ATOM     16  O   UNL     1       0.710   1.326  24.143  0.00  0.00    -0.220 OA
ATOM     17  C   UNL     1      -0.534   0.626  24.184  0.00  0.00    +0.206 C 
ATOM     18  O   UNL     1      -0.179  -0.028  23.827  0.00  0.00    -0.218 OA
ENDROOT
BRANCH  11  10
ATOM      8  C   UNL     1      -2.214  -0.434  24.827  0.00  0.00    +0.265 C 
ATOM      9  O   UNL     1      -2.205  -0.115  25.589  0.00  0.00    -0.268 OA
ATOM     10  N   UNL     1      -1.780  -0.075  24.225  0.00  0.00    -0.196 NA
BRANCH   8   5
ATOM      1  C   UNL     1      -3.988  -3.144  24.195  0.00  0.00    +0.031 C 
ATOM      2  C   UNL     1      -3.545  -2.466  24.353  0.00  0.00    -0.022 A 
ATOM      3  C   UNL     1      -2.779  -2.535  24.653  0.00  0.00    -0.004 A 
ATOM      4  C   UNL     1      -2.336  -1.857  24.811  0.00  0.00    +0.004 A 
ATOM      5  C   UNL     1      -2.658  -1.111  24.669  0.00  0.00    +0.055 A 
ATOM      6  C   UNL     1      -3.423  -1.043  24.368  0.00  0.00    +0.004 A 
ATOM      7  C   UNL     1      -3.867  -1.720  24.210  0.00  0.00    -0.004 A 
ENDBRANCH   8   5
ENDBRANCH  11  10
BRANCH  13  19
ATOM     19  C   UNL     1      -1.602   2.585  25.255  0.00  0.00    +0.261 C 
ATOM     20  O   UNL     1      -1.454   2.753  26.048  0.00  0.00    -0.269 OA
ATOM     21  N   UNL     1      -2.106   3.070  24.818  0.00  0.00    -0.194 NA
BRANCH  21  22
ATOM     22  C   UNL     1      -2.462   3.724  25.174  0.00  0.00    +0.176 C 
BRANCH  22  29
ATOM     29  C   UNL     1      -2.078   4.455  25.170  0.00  0.00    +0.281 C 
ATOM     30  N   UNL     1      -1.874   4.810  24.454  0.00  0.00    -0.086 NA
ATOM     31  O   UNL     1      -1.899   4.830  25.883  0.00  0.00    -0.270 OA
ENDBRANCH  22  29
BRANCH  22  23
ATOM     23  C   UNL     1      -3.200   3.647  25.533  0.00  0.00    +0.056 C 
BRANCH  23  24
ATOM     24  C   UNL     1      -3.888   3.754  25.089  0.00  0.00    +0.153 C 
BRANCH  24  25
ATOM     25  S   UNL     1      -4.611   3.481  25.377  0.00  0.00    -0.008 S 
ATOM     26  C   UNL     1      -5.334   3.207  25.665  0.00  0.00    +0.176 C 
ATOM     27  O   UNL     1      -4.709   3.025  24.697  0.00  0.00    -0.173 OA
ATOM     28  O   UNL     1      -4.513   3.937  26.057  0.00  0.00    -0.173 OA
ENDBRANCH  24  25
ENDBRANCH  23  24
ENDBRANCH  22  23
ENDBRANCH  21  22
ENDBRANCH  13  19
TORSDOF 8
ENDMDL
MODEL 4
REMARK VINA RESULT:      -9.3      2.161      5.030
REMARK  Name = 
REMARK  8 active torsions:
REMARK  status: ('A' for Active; 'I' for Inactive)
REMARK    1  A    between atoms: C_5  and  C_8
REMARK    2  A    between atoms: N_10  and  C_11
REMARK    3  A    between atoms: C_13  and  C_19
REMARK    4  A    between atoms: N_21  and  C_22
REMARK    5  A    between atoms: C_22  and  C_23
REMARK    6  A    between atoms: C_22  and  C_29
REMARK    7  A    between atoms: C_23  and  C_24
REMARK    8  A    between atoms: C_24  and  S_25
REMARK                            x       y       z     vdW  Elec       q    Type
REMARK                         _______ _______ _______ _____ _____    ______ ____
ROOT
ATOM     11  C   UNL     1      -1.731   2.208  25.400  0.00  0.00    +0.150 C 
ATOM     12  C   UNL     1      -1.720   1.433  25.119  0.00  0.00    -0.002 C 
ATOM     13  C   UNL     1      -1.000   1.056  24.975  0.00  0.00    +0.033 C 
ATOM     14  C   UNL     1      -0.290   1.455  25.114  0.00  0.00    +0.066 C 
ATOM     15  C   UNL     1      -0.302   2.230  25.395  0.00  0.00    +0.189 C 
ATOM     16  O   UNL     1       0.407   2.629  25.533  0.00  0.00    -0.220 OA
ATOM     17  C   UNL     1      -1.021   2.607  25.538  0.00  0.00    +0.206 C 
ATOM     18  O   UNL     1      -1.033   3.383  25.820  0.00  0.00    -0.218 OA
ENDROOT
BRANCH  11  10
ATOM      8  C   UNL     1      -3.028   2.611  24.955  0.00  0.00    +0.265 C 
ATOM      9  O   UNL     1      -2.886   2.259  24.222  0.00  0.00    -0.268 OA
ATOM     10  N   UNL     1      -2.451   2.585  25.543  0.00  0.00    -0.196 NA
BRANCH   8   5
ATOM      1  C   UNL     1      -5.907   4.118  25.530  0.00  0.00    +0.031 C 
ATOM      2  C   UNL     1      -5.187   3.742  25.386  0.00  0.00    -0.022 A 
ATOM      3  C   UNL     1      -5.103   2.937  25.548  0.00  0.00    -0.004 A 
ATOM      4  C   UNL     1      -4.383   2.561  25.404  0.00  0.00    +0.004 A 
ATOM      5  C   UNL     1      -3.748   2.989  25.099  0.00  0.00    +0.055 A 
ATOM      6  C   UNL     1      -3.832   3.792  24.937  0.00  0.00    +0.004 A 
ATOM      7  C   UNL     1      -4.551   4.170  25.081  0.00  0.00    -0.004 A 
ENDBRANCH   8   5
ENDBRANCH  11  10
BRANCH  13  19
ATOM     19  C   UNL     1      -0.989   0.281  24.694  0.00  0.00    +0.261 C 
ATOM     20  O   UNL     1      -0.743   0.126  23.923  0.00  0.00    -0.269 OA
ATOM     21  N   UNL     1      -1.224  -0.339  25.185  0.00  0.00    -0.194 NA
BRANCH  21  22
ATOM     22  C   UNL     1      -1.213  -1.115  24.904  0.00  0.00    +0.176 C 
BRANCH  22  29
ATOM     29  C   UNL     1      -0.536  -1.578  24.999  0.00  0.00    +0.281 C 
ATOM     30  N   UNL     1      -0.296  -1.806  25.755  0.00  0.00    -0.086 NA
ATOM     31  O   UNL     1      -0.101  -1.813  24.339  0.00  0.00    -0.270 OA
ENDBRANCH  22  29
BRANCH  22  23
ATOM     23  C   UNL     1      -1.877  -1.427  24.529  0.00  0.00    +0.056 C 
BRANCH  23  24
ATOM     24  C   UNL     1      -2.438  -1.848  24.965  0.00  0.00    +0.153 C 
BRANCH  24  25
ATOM     25  S   UNL     1      -3.154  -2.064  24.617  0.00  0.00    -0.008 S 
ATOM     26  C   UNL     1      -3.870  -2.280  24.269  0.00  0.00    +0.176 C 
ATOM     27  O   UNL     1      -3.550  -1.523  25.097  0.00  0.00    -0.173 OA
ATOM     28  O   UNL     1      -2.758  -2.605  24.137  0.00  0.00    -0.173 OA
ENDBRANCH  24  25
ENDBRANCH  23  24
ENDBRANCH  22  23
ENDBRANCH  21  22
ENDBRANCH  13  19
TORSDOF 8
ENDMDL
MODEL 5
REMARK VINA RESULT:      -9.3      2.413      5.707
REMARK  Name = 
REMARK  8 active torsions:
REMARK  status: ('A' for Active; 'I' for Inactive)
REMARK    1  A    between atoms: C_5  and  C_8
REMARK    2  A    between atoms: N_10  and  C_11
REMARK    3  A    between atoms: C_13  and  C_19
REMARK    4  A    between atoms: N_21  and  C_22
REMARK    5  A    between atoms: C_22  and  C_23
REMARK    6  A    between atoms: C_22  and  C_29
REMARK    7  A    between atoms: C_23  and  C_24
REMARK    8  A    between atoms: C_24  and  S_25
REMARK                            x       y       z     vdW  Elec       q    Type
REMARK                         _______ _______ _______ _____ _____    ______ ____
ROOT
ATOM     11  C   UNL     1      -0.860   1.264  24.348  0.00  0.00    +0.150 C 
ATOM     12  C   UNL     1      -1.404   0.755  24.702  0.00  0.00    -0.002 C 
ATOM     13  C   UNL     1      -1.273  -0.059  24.694  0.00  0.00    +0.033 C 
ATOM     14  C   UNL     1      -0.597  -0.365  24.330  0.00  0.00    +0.066 C 
ATOM     15  C   UNL     1      -0.054   0.145  23.976  0.00  0.00    +0.189 C 
ATOM     16  O   UNL     1       0.621  -0.160  23.612  0.00  0.00    -0.220 OA
ATOM     17  C   UNL     1      -0.185   0.959  23.984  0.00  0.00    +0.206 C 
ATOM     18  O   UNL     1       0.359   1.469  23.630  0.00  0.00    -0.218 OA
ENDROOT
BRANCH  11  10
ATOM      8  C   UNL     1      -1.044   2.482  25.074  0.00  0.00    +0.265 C 
ATOM      9  O   UNL     1      -0.965   2.069  25.786  0.00  0.00    -0.268 OA
ATOM     10  N   UNL     1      -0.991   2.079  24.357  0.00  0.00    -0.196 NA
BRANCH   8   5
ATOM      1  C   UNL     1      -1.563   5.740  25.108  0.00  0.00    +0.031 C 
ATOM      2  C   UNL     1      -1.434   4.926  25.100  0.00  0.00    -0.022 A 
ATOM      3  C   UNL     1      -0.674   4.630  24.971  0.00  0.00    -0.004 A 
ATOM      4  C   UNL     1      -0.545   3.816  24.962  0.00  0.00    +0.004 A 
ATOM      5  C   UNL     1      -1.174   3.296  25.083  0.00  0.00    +0.055 A 
ATOM      6  C   UNL     1      -1.933   3.592  25.212  0.00  0.00    +0.004 A 
ATOM      7  C   UNL     1      -2.064   4.406  25.220  0.00  0.00    -0.004 A 
ENDBRANCH   8   5
ENDBRANCH  11  10
BRANCH  13  19
ATOM     19  C   UNL     1      -1.816  -0.568  25.048  0.00  0.00    +0.261 C 
ATOM     20  O   UNL     1      -1.566  -1.106  25.620  0.00  0.00    -0.269 OA
ATOM     21  N   UNL     1      -2.611  -0.540  24.829  0.00  0.00    -0.194 NA
BRANCH  21  22
ATOM     22  C   UNL     1      -3.155  -1.049  25.182  0.00  0.00    +0.176 C 
BRANCH  22  29
ATOM     29  C   UNL     1      -3.598  -0.793  25.831  0.00  0.00    +0.281 C 
ATOM     30  N   UNL     1      -4.119  -0.157  25.749  0.00  0.00    -0.086 NA
ATOM     31  O   UNL     1      -3.521  -1.172  26.559  0.00  0.00    -0.270 OA
ENDBRANCH  22  29
BRANCH  22  23
ATOM     23  C   UNL     1      -3.257  -1.812  24.889  0.00  0.00    +0.056 C 
BRANCH  23  24
ATOM     24  C   UNL     1      -3.934  -2.001  24.455  0.00  0.00    +0.153 C 
BRANCH  24  25
ATOM     25  S   UNL     1      -3.955  -2.691  24.004  0.00  0.00    -0.008 S 
ATOM     26  C   UNL     1      -3.976  -3.381  23.552  0.00  0.00    +0.176 C 
ATOM     27  O   UNL     1      -3.688  -3.125  24.653  0.00  0.00    -0.173 OA
ATOM     28  O   UNL     1      -4.222  -2.258  23.354  0.00  0.00    -0.173 OA
ENDBRANCH  24  25
ENDBRANCH  23  24
ENDBRANCH  22  23
ENDBRANCH  21  22
ENDBRANCH  13  19
TORSDOF 8
ENDMDL
MODEL 6
REMARK VINA RESULT:      -9.2      1.848      5.542
REMARK  Name = 
REMARK  8 active torsions:
REMARK  status: ('A' for Active; 'I' for Inactive)
REMARK    1  A    between atoms: C_5  and  C_8
REMARK    2  A    between atoms: N_10  and  C_11
REMARK    3  A    between atoms: C_13  and  C_19
REMARK    4  A    between atoms: N_21  and  C_22
REMARK    5  A    between atoms: C_22  and  C_23
REMARK    6  A    between atoms: C_22  and  C_29
REMARK    7  A    between atoms: C_23  and  C_24
REMARK    8  A    between atoms: C_24  and  S_25
REMARK                            x       y       z     vdW  Elec       q    Type
REMARK                         _______ _______ _______ _____ _____    ______ ____
ROOT
ATOM     11  C   UNL     1      -0.967   1.411  24.422  0.00  0.00    +0.150 C 
ATOM     12  C   UNL     1      -1.673   1.055  24.657  0.00  0.00    -0.002 C 
ATOM     13  C   UNL     1      -1.730   0.233  24.690  0.00  0.00    +0.033 C 
ATOM     14  C   UNL     1      -1.079  -0.234  24.489  0.00  0.00    +0.066 C 
ATOM     15  C   UNL     1      -0.373   0.122  24.255  0.00  0.00    +0.189 C 
ATOM     16  O   UNL     1       0.277  -0.344  24.054  0.00  0.00    -0.220 OA
ATOM     17  C   UNL     1      -0.316   0.944  24.221  0.00  0.00    +0.206 C 
ATOM     18  O   UNL     1       0.390   1.301  23.987  0.00  0.00    -0.218 OA
ENDROOT
BRANCH  11  10
ATOM      8  C   UNL     1      -1.193   2.693  25.012  0.00  0.00    +0.265 C 
ATOM      9  O   UNL     1      -1.533   2.330  25.671  0.00  0.00    -0.268 OA
ATOM     10  N   UNL     1      -0.911   2.234  24.389  0.00  0.00    -0.196 NA
BRANCH   8   5
ATOM      1  C   UNL     1      -0.968   5.983  24.878  0.00  0.00    +0.031 C 
ATOM      2  C   UNL     1      -1.024   5.160  24.911  0.00  0.00    -0.022 A 
ATOM      3  C   UNL     1      -1.695   4.806  25.235  0.00  0.00    -0.004 A 
ATOM      4  C   UNL     1      -1.751   3.983  25.269  0.00  0.00    +0.004 A 
ATOM      5  C   UNL     1      -1.136   3.516  24.978  0.00  0.00    +0.055 A 
ATOM      6  C   UNL     1      -0.466   3.870  24.654  0.00  0.00    +0.004 A 
ATOM      7  C   UNL     1      -0.409   4.693  24.621  0.00  0.00    -0.004 A 
ENDBRANCH   8   5
ENDBRANCH  11  10
BRANCH  13  19
ATOM     19  C   UNL     1      -2.436  -0.123  24.925  0.00  0.00    +0.261 C 
ATOM     20  O   UNL     1      -2.470  -0.545  25.632  0.00  0.00    -0.269 OA
ATOM     21  N   UNL     1      -3.108  -0.057  24.451  0.00  0.00    -0.194 NA
BRANCH  21  22
ATOM     22  C   UNL     1      -3.814  -0.413  24.685  0.00  0.00    +0.176 C 
BRANCH  22  29
ATOM     29  C   UNL     1      -3.965  -1.200  24.486  0.00  0.00    +0.281 C 
ATOM     30  N   UNL     1      -4.102  -1.408  23.698  0.00  0.00    -0.086 NA
ATOM     31  O   UNL     1      -3.979  -1.779  25.073  0.00  0.00    -0.270 OA
ENDBRANCH  22  29
BRANCH  22  23
ATOM     23  C   UNL     1      -4.370   0.017  25.116  0.00  0.00    +0.056 C 
BRANCH  23  24
ATOM     24  C   UNL     1      -4.871   0.548  24.731  0.00  0.00    +0.153 C 
BRANCH  24  25
ATOM     25  S   UNL     1      -5.240   1.150  25.158  0.00  0.00    -0.008 S 
ATOM     26  C   UNL     1      -5.609   1.752  25.584  0.00  0.00    +0.176 C 
ATOM     27  O   UNL     1      -5.057   1.687  24.559  0.00  0.00    -0.173 OA
ATOM     28  O   UNL     1      -5.423   0.613  25.757  0.00  0.00    -0.173 OA
ENDBRANCH  24  25
ENDBRANCH  23  24
ENDBRANCH  22  23
ENDBRANCH  21  22
ENDBRANCH  13  19
TORSDOF 8
ENDMDL
MODEL 7
REMARK VINA RESULT:      -9.0      1.989      4.146
REMARK  Name = 
REMARK  8 active torsions:
REMARK  status: ('A' for Active; 'I' for Inactive)
REMARK    1  A    between atoms: C_5  and  C_8
REMARK    2  A    between atoms: N_10  and  C_11
REMARK    3  A    between atoms: C_13  and  C_19
REMARK    4  A    between atoms: N_21  and  C_22
REMARK    5  A    between atoms: C_22  and  C_23
REMARK    6  A    between atoms: C_22  and  C_29
REMARK    7  A    between atoms: C_23  and  C_24
REMARK    8  A    between atoms: C_24  and  S_25
REMARK                            x       y       z     vdW  Elec       q    Type
REMARK                         _______ _______ _______ _____ _____    ______ ____
ROOT
ATOM     11  C   UNL     1      -2.178   3.100  25.246  0.00  0.00    +0.150 C 
ATOM     12  C   UNL     1      -1.689   2.447  25.128  0.00  0.00    -0.002 C 
ATOM     13  C   UNL     1      -0.890   2.556  24.950  0.00  0.00    +0.033 C 
ATOM     14  C   UNL     1      -0.581   3.319  24.890  0.00  0.00    +0.066 C 
ATOM     15  C   UNL     1      -1.071   3.973  25.009  0.00  0.00    +0.189 C 
ATOM     16  O   UNL     1      -0.762   4.735  24.950  0.00  0.00    -0.220 OA
ATOM     17  C   UNL     1      -1.869   3.864  25.187  0.00  0.00    +0.206 C 
ATOM     18  O   UNL     1      -2.358   4.517  25.306  0.00  0.00    -0.218 OA
ENDROOT
BRANCH  11  10
ATOM      8  C   UNL     1      -3.474   2.621  24.881  0.00  0.00    +0.265 C 
ATOM      9  O   UNL     1      -3.173   2.358  24.158  0.00  0.00    -0.268 OA
ATOM     10  N   UNL     1      -2.976   2.992  25.424  0.00  0.00    -0.196 NA
BRANCH   8   5
ATOM      1  C   UNL     1      -6.667   2.185  25.593  0.00  0.00    +0.031 C 
ATOM      2  C   UNL     1      -5.869   2.295  25.415  0.00  0.00    -0.022 A 
ATOM      3  C   UNL     1      -5.401   1.648  25.201  0.00  0.00    -0.004 A 
ATOM      4  C   UNL     1      -4.603   1.758  25.024  0.00  0.00    +0.004 A 
ATOM      5  C   UNL     1      -4.272   2.513  25.059  0.00  0.00    +0.055 A 
ATOM      6  C   UNL     1      -4.739   3.158  25.273  0.00  0.00    +0.004 A 
ATOM      7  C   UNL     1      -5.538   3.050  25.451  0.00  0.00    -0.004 A 
ENDBRANCH   8   5
ENDBRANCH  11  10
BRANCH  13  19
ATOM     19  C   UNL     1      -0.401   1.903  24.831  0.00  0.00    +0.261 C 
ATOM     20  O   UNL     1       0.262   1.792  25.308  0.00  0.00    -0.269 OA
ATOM     21  N   UNL     1      -0.576   1.360  24.235  0.00  0.00    -0.194 NA
BRANCH  21  22
ATOM     22  C   UNL     1      -0.087   0.706  24.115  0.00  0.00    +0.176 C 
BRANCH  22  29
ATOM     29  C   UNL     1       0.493   0.727  23.528  0.00  0.00    +0.281 C 
ATOM     30  N   UNL     1       0.278   0.670  22.733  0.00  0.00    -0.086 NA
ATOM     31  O   UNL     1       1.288   0.805  23.736  0.00  0.00    -0.270 OA
ENDBRANCH  22  29
BRANCH  22  23
ATOM     23  C   UNL     1      -0.178   0.033  24.582  0.00  0.00    +0.056 C 
BRANCH  23  24
ATOM     24  C   UNL     1      -0.617  -0.608  24.301  0.00  0.00    +0.153 C 
BRANCH  24  25
ATOM     25  S   UNL     1      -0.863  -1.199  24.821  0.00  0.00    -0.008 S 
ATOM     26  C   UNL     1      -1.108  -1.790  25.342  0.00  0.00    +0.176 C 
ATOM     27  O   UNL     1      -0.075  -1.378  24.990  0.00  0.00    -0.173 OA
ATOM     28  O   UNL     1      -1.650  -1.020  24.653  0.00  0.00    -0.173 OA
ENDBRANCH  24  25
ENDBRANCH  23  24
ENDBRANCH  22  23
ENDBRANCH  21  22
ENDBRANCH  13  19
TORSDOF 8
ENDMDL
MODEL 8
REMARK VINA RESULT:      -9.0      1.807      3.898
REMARK  Name = 
REMARK  8 active torsions:
REMARK  status: ('A' for Active; 'I' for Inactive)
REMARK    1  A    between atoms: C_5  and  C_8
REMARK    2  A    between atoms: N_10  and  C_11
REMARK    3  A    between atoms: C_13  and  C_19
REMARK    4  A    between atoms: N_21  and  C_22
REMARK    5  A    between atoms: C_22  and  C_23
REMARK    6  A    between atoms: C_22  and  C_29
REMARK    7  A    between atoms: C_23  and  C_24
REMARK    8  A    between atoms: C_24  and  S_25
REMARK                            x       y       z     vdW  Elec       q    Type
REMARK                         _______ _______ _______ _____ _____    ______ ____
ROOT
ATOM     11  C   UNL     1      -3.415  -0.395  24.905  0.00  0.00    +0.150 C 
ATOM     12  C   UNL     1      -2.617  -0.187  24.890  0.00  0.00    -0.002 C 
ATOM     13  C   UNL     1      -2.050  -0.739  24.659  0.00  0.00    +0.033 C 
ATOM     14  C   UNL     1      -2.281  -1.502  24.443  0.00  0.00    +0.066 C 
ATOM     15  C   UNL     1      -3.079  -1.711  24.458  0.00  0.00    +0.189 C 
ATOM     16  O   UNL     1      -3.310  -2.473  24.243  0.00  0.00    -0.220 OA
ATOM     17  C   UNL     1      -3.646  -1.158  24.689  0.00  0.00    +0.206 C 
ATOM     18  O   UNL     1      -4.444  -1.367  24.705  0.00  0.00    -0.218 OA
ENDROOT
BRANCH  11  10
ATOM      8  C   UNL     1      -4.051   0.872  24.733  0.00  0.00    +0.265 C 
ATOM      9  O   UNL     1      -3.551   1.036  24.096  0.00  0.00    -0.268 OA
ATOM     10  N   UNL     1      -3.982   0.157  25.137  0.00  0.00    -0.196 NA
BRANCH   8   5
ATOM      1  C   UNL     1      -6.319   3.084  25.658  0.00  0.00    +0.031 C 
ATOM      2  C   UNL     1      -5.753   2.531  25.426  0.00  0.00    -0.022 A 
ATOM      3  C   UNL     1      -4.950   2.698  25.523  0.00  0.00    -0.004 A 
ATOM      4  C   UNL     1      -4.383   2.145  25.291  0.00  0.00    +0.004 A 
ATOM      5  C   UNL     1      -4.619   1.425  24.964  0.00  0.00    +0.055 A 
ATOM      6  C   UNL     1      -5.420   1.259  24.867  0.00  0.00    +0.004 A 
ATOM      7  C   UNL     1      -5.988   1.811  25.098  0.00  0.00    -0.004 A 
ENDBRANCH   8   5
ENDBRANCH  11  10
BRANCH  13  19
ATOM     19  C   UNL     1      -1.252  -0.530  24.644  0.00  0.00    +0.261 C 
ATOM     20  O   UNL     1      -0.732  -0.846  25.200  0.00  0.00    -0.269 OA
ATOM     21  N   UNL     1      -0.975  -0.005  24.072  0.00  0.00    -0.194 NA
BRANCH  21  22
ATOM     22  C   UNL     1      -0.177   0.205  24.056  0.00  0.00    +0.176 C 
BRANCH  22  29
ATOM     29  C   UNL     1       0.349  -0.213  23.575  0.00  0.00    +0.281 C 
ATOM     30  N   UNL     1       0.286  -0.162  22.753  0.00  0.00    -0.086 NA
ATOM     31  O   UNL     1       0.937  -0.680  23.916  0.00  0.00    -0.270 OA
ENDBRANCH  22  29
BRANCH  22  23
ATOM     23  C   UNL     1       0.095   0.830  24.518  0.00  0.00    +0.056 C 
BRANCH  23  24
ATOM     24  C   UNL     1       0.094   1.598  24.216  0.00  0.00    +0.153 C 
BRANCH  24  25
ATOM     25  S   UNL     1       0.106   2.244  24.730  0.00  0.00    -0.008 S 
ATOM     26  C   UNL     1       0.118   2.889  25.244  0.00  0.00    +0.176 C 
ATOM     27  O   UNL     1      -0.556   2.558  24.351  0.00  0.00    -0.173 OA
ATOM     28  O   UNL     1       0.768   1.929  25.110  0.00  0.00    -0.173 OA
ENDBRANCH  24  25
ENDBRANCH  23  24
ENDBRANCH  22  23
ENDBRANCH  21  22
ENDBRANCH  13  19
TORSDOF 8
ENDMDL
