MODEL 1
REMARK VINA RESULT:     -14.1      0.000      0.000
REMARK  Name = 
REMARK  4 active torsions:
REMARK  status: ('A' for Active; 'I' for Inactive)
REMARK    1  A    between atoms: C_2  and  C_5
REMARK    2  A    between atoms: C_14  and  C_16
REMARK    3  A    between atoms: C_24  and  C_25
REMARK    4  A    between atoms: C_25  and  C_26
REMARK                            x       y       z     vdW  Elec       q    Type
REMARK                         _______ _______ _______ _____ _____    ______ ____
ROOT
ATOM      5  C   UNL     1      -3.836  -1.573  24.502  0.00  0.00    +0.246 C 
ATOM      6  O   UNL     1      -4.601  -1.371  24.733  0.00  0.00    -0.273 OA
ATOM      7  N   UNL     1      -3.265  -0.984  24.409  0.00  0.00    -0.154 NA
ATOM      8  C   UNL     1      -3.460  -0.194  24.547  0.00  0.00    +0.185 A 
ATOM      9  N   UNL     1      -2.950   0.450  24.477  0.00  0.00    -0.227 NA
ATOM     10  C   UNL     1      -3.374   1.132  24.666  0.00  0.00    +0.063 A 
ATOM     11  C   UNL     1      -4.146   0.909  24.853  0.00  0.00    +0.023 A 
ATOM     12  C   UNL     1      -4.700   1.482  25.066  0.00  0.00    +0.034 C 
ATOM     13  C   UNL     1      -4.483   2.276  25.092  0.00  0.00    +0.010 C 
ATOM     14  C   UNL     1      -5.037   2.848  25.305  0.00  0.00    +0.059 C 
ATOM     15  C   UNL     1      -5.503   2.170  25.360  0.00  0.00    +0.005 C 
ATOM     18  C   UNL     1      -4.821   3.644  25.331  0.00  0.00    +0.154 C 
ATOM     19  O   UNL     1      -5.375   4.217  25.545  0.00  0.00    -0.223 OA
ATOM     20  C   UNL     1      -4.049   3.868  25.144  0.00  0.00    +0.033 C 
ATOM     21  C   UNL     1      -3.494   3.295  24.931  0.00  0.00    +0.003 C 
ATOM     22  C   UNL     1      -3.711   2.500  24.905  0.00  0.00    +0.006 C 
ATOM     23  C   UNL     1      -2.940   2.723  24.718  0.00  0.00    +0.000 C 
ATOM     24  C   UNL     1      -3.156   1.928  24.692  0.00  0.00    +0.050 C 
ATOM     34  S   UNL     1      -4.199   0.088  24.780  0.00  0.00    -0.054 S 
ENDROOT
BRANCH   5   2
ATOM      1  C   UNL     1      -3.446  -3.152  24.226  0.00  0.00    +0.009 C 
ATOM      2  C   UNL     1      -3.641  -2.362  24.364  0.00  0.00    +0.071 C 
ATOM      3  C   UNL     1      -3.169  -2.364  25.041  0.00  0.00    +0.009 C 
ATOM      4  C   UNL     1      -4.113  -2.361  23.687  0.00  0.00    +0.009 C 
ENDBRANCH   5   2
BRANCH  14  16
ATOM     16  C   UNL     1      -5.754   3.186  25.537  0.00  0.00    +0.184 C 
ATOM     17  O   UNL     1      -6.333   2.720  25.894  0.00  0.00    -0.220 OA
ENDBRANCH  14  16
BRANCH  24  25
ATOM     25  C   UNL     1      -2.385   2.151  24.505  0.00  0.00    +0.091 C 
BRANCH  25  26
ATOM     26  C   UNL     1      -1.787   2.081  25.069  0.00  0.00    +0.226 C 
ATOM     27  O   UNL     1      -1.981   1.995  25.866  0.00  0.00    -0.275 OA
ATOM     28  N   UNL     1      -0.996   2.096  24.835  0.00  0.00    -0.274 N 
ATOM     29  C   UNL     1      -0.398   2.026  25.399  0.00  0.00    +0.125 C 
ATOM     30  C   UNL     1       0.393   2.041  25.165  0.00  0.00    +0.164 C 
ATOM     31  O   UNL     1       0.586   2.127  24.368  0.00  0.00    -0.350 OA
ATOM     32  C   UNL     1      -0.012   2.197  23.805  0.00  0.00    +0.164 C 
ATOM     33  C   UNL     1      -0.803   2.182  24.038  0.00  0.00    +0.125 C 
ENDBRANCH  25  26
ENDBRANCH  24  25
TORSDOF 4
ENDMDL
MODEL 2
REMARK VINA RESULT:     -14.0      1.224      4.089
REMARK  Name = 
REMARK  4 active torsions:
REMARK  status: ('A' for Active; 'I' for Inactive)
REMARK    1  A    between atoms: C_2  and  C_5
REMARK    2  A    between atoms: C_14  and  C_16
REMARK    3  A    between atoms: C_24  and  C_25
REMARK    4  A    between atoms: C_25  and  C_26
REMARK                            x       y       z     vdW  Elec       q    Type
REMARK                         _______ _______ _______ _____ _____    ______ ____
ROOT
ATOM      5  C   UNL     1      -5.043   2.370  25.162  0.00  0.00    +0.246 C 
ATOM      6  O   UNL     1      -5.533   1.745  24.940  0.00  0.00    -0.273 OA
ATOM      7  N   UNL     1      -4.233   2.244  25.255  0.00  0.00    -0.154 NA
ATOM      8  C   UNL     1      -3.914   1.494  25.127  0.00  0.00    +0.185 A 
ATOM      9  N   UNL     1      -3.118   1.288  25.199  0.00  0.00    -0.227 NA
ATOM     10  C   UNL     1      -3.047   0.485  25.021  0.00  0.00    +0.063 A 
ATOM     11  C   UNL     1      -3.798   0.196  24.839  0.00  0.00    +0.023 A 
ATOM     12  C   UNL     1      -3.897  -0.598  24.638  0.00  0.00    +0.034 C 
ATOM     13  C   UNL     1      -3.245  -1.103  24.618  0.00  0.00    +0.010 C 
ATOM     14  C   UNL     1      -3.345  -1.896  24.416  0.00  0.00    +0.059 C 
ATOM     15  C   UNL     1      -4.125  -1.635  24.359  0.00  0.00    +0.005 C 
ATOM     18  C   UNL     1      -2.693  -2.402  24.396  0.00  0.00    +0.154 C 
ATOM     19  O   UNL     1      -2.792  -3.196  24.194  0.00  0.00    -0.223 OA
ATOM     20  C   UNL     1      -1.942  -2.113  24.578  0.00  0.00    +0.033 C 
ATOM     21  C   UNL     1      -1.842  -1.319  24.780  0.00  0.00    +0.003 C 
ATOM     22  C   UNL     1      -2.494  -0.814  24.800  0.00  0.00    +0.006 C 
ATOM     23  C   UNL     1      -1.743  -0.526  24.982  0.00  0.00    +0.000 C 
ATOM     24  C   UNL     1      -2.394  -0.021  25.001  0.00  0.00    +0.050 C 
ATOM     34  S   UNL     1      -4.334   0.821  24.905  0.00  0.00    -0.054 S 
ENDROOT
BRANCH   5   2
ATOM      1  C   UNL     1      -5.681   3.870  25.418  0.00  0.00    +0.009 C 
ATOM      2  C   UNL     1      -5.362   3.120  25.290  0.00  0.00    +0.071 C 
ATOM      3  C   UNL     1      -4.816   3.442  24.761  0.00  0.00    +0.009 C 
ATOM      4  C   UNL     1      -5.907   2.798  25.818  0.00  0.00    +0.009 C 
ENDBRANCH   5   2
BRANCH  14  16
ATOM     16  C   UNL     1      -3.715  -2.599  24.194  0.00  0.00    +0.184 C 
ATOM     17  O   UNL     1      -4.452  -2.580  23.825  0.00  0.00    -0.220 OA
ENDBRANCH  14  16
BRANCH  24  25
ATOM     25  C   UNL     1      -1.644   0.268  25.183  0.00  0.00    +0.091 C 
BRANCH  25  26
ATOM     26  C   UNL     1      -1.218   0.694  24.620  0.00  0.00    +0.226 C 
ATOM     27  O   UNL     1      -1.357   0.568  23.817  0.00  0.00    -0.275 OA
ATOM     28  N   UNL     1      -0.653   1.246  24.860  0.00  0.00    -0.274 N 
ATOM     29  C   UNL     1      -0.228   1.671  24.297  0.00  0.00    +0.125 C 
ATOM     30  C   UNL     1       0.337   2.223  24.537  0.00  0.00    +0.164 C 
ATOM     31  O   UNL     1       0.476   2.349  25.340  0.00  0.00    -0.350 OA
ATOM     32  C   UNL     1       0.050   1.922  25.903  0.00  0.00    +0.164 C 
ATOM     33  C   UNL     1      -0.515   1.371  25.663  0.00  0.00    +0.125 C 
ENDBRANCH  25  26
ENDBRANCH  24  25
TORSDOF 4
ENDMDL
MODEL 3
REMARK VINA RESULT:     -13.7      0.986      3.715
REMARK  Name = 
REMARK  4 active torsions:
REMARK  status: ('A' for Active; 'I' for Inactive)
REMARK    1  A    between atoms: C_2  and  C_5
REMARK    2  A    between atoms: C_14  and  C_16
REMARK    3  A    between atoms: C_24  and  C_25
REMARK    4  A    between atoms: C_25  and  C_26
REMARK                            x       y       z     vdW  Elec       q    Type
REMARK                         _______ _______ _______ _____ _____    ______ ____
ROOT
ATOM      5  C   UNL     1      -0.395   1.503  24.113  0.00  0.00    +0.246 C 
ATOM      6  O   UNL     1      -0.595   2.273  24.333  0.00  0.00    -0.273 OA
ATOM      7  N   UNL     1      -0.976   0.918  24.090  0.00  0.00    -0.154 NA
ATOM      8  C   UNL     1      -1.756   1.102  24.287  0.00  0.00    +0.185 A 
ATOM      9  N   UNL     1      -2.392   0.576  24.289  0.00  0.00    -0.227 NA
ATOM     10  C   UNL     1      -3.066   0.993  24.519  0.00  0.00    +0.063 A 
ATOM     11  C   UNL     1      -2.845   1.776  24.660  0.00  0.00    +0.023 A 
ATOM     12  C   UNL     1      -3.411   2.326  24.901  0.00  0.00    +0.034 C 
ATOM     13  C   UNL     1      -4.196   2.095  25.001  0.00  0.00    +0.010 C 
ATOM     14  C   UNL     1      -4.761   2.645  25.242  0.00  0.00    +0.059 C 
ATOM     15  C   UNL     1      -4.091   3.126  25.223  0.00  0.00    +0.005 C 
ATOM     18  C   UNL     1      -5.547   2.413  25.343  0.00  0.00    +0.154 C 
ATOM     19  O   UNL     1      -6.112   2.963  25.584  0.00  0.00    -0.223 OA
ATOM     20  C   UNL     1      -5.767   1.631  25.202  0.00  0.00    +0.033 C 
ATOM     21  C   UNL     1      -5.201   1.080  24.961  0.00  0.00    +0.003 C 
ATOM     22  C   UNL     1      -4.416   1.312  24.861  0.00  0.00    +0.006 C 
ATOM     23  C   UNL     1      -4.636   0.530  24.720  0.00  0.00    +0.000 C 
ATOM     24  C   UNL     1      -3.852   0.761  24.620  0.00  0.00    +0.050 C 
ATOM     34  S   UNL     1      -2.035   1.843  24.516  0.00  0.00    -0.054 S 
ENDROOT
BRANCH   5   2
ATOM      1  C   UNL     1       1.164   1.135  23.719  0.00  0.00    +0.009 C 
ATOM      2  C   UNL     1       0.384   1.319  23.916  0.00  0.00    +0.071 C 
ATOM      3  C   UNL     1       0.641   2.010  24.287  0.00  0.00    +0.009 C 
ATOM      4  C   UNL     1       0.128   0.629  23.545  0.00  0.00    +0.009 C 
ENDBRANCH   5   2
BRANCH  14  16
ATOM     16  C   UNL     1      -5.094   3.362  25.477  0.00  0.00    +0.184 C 
ATOM     17  O   UNL     1      -4.629   4.043  25.507  0.00  0.00    -0.220 OA
ENDBRANCH  14  16
BRANCH  24  25
ATOM     25  C   UNL     1      -4.071  -0.021  24.479  0.00  0.00    +0.091 C 
BRANCH  25  26
ATOM     26  C   UNL     1      -3.841  -0.615  25.003  0.00  0.00    +0.226 C 
ATOM     27  O   UNL     1      -3.621  -0.421  25.774  0.00  0.00    -0.275 OA
ATOM     28  N   UNL     1      -3.830  -1.402  24.755  0.00  0.00    -0.274 N 
ATOM     29  C   UNL     1      -3.599  -1.995  25.279  0.00  0.00    +0.125 C 
ATOM     30  C   UNL     1      -3.588  -2.782  25.031  0.00  0.00    +0.164 C 
ATOM     31  O   UNL     1      -3.808  -2.976  24.260  0.00  0.00    -0.350 OA
ATOM     32  C   UNL     1      -4.039  -2.381  23.737  0.00  0.00    +0.164 C 
ATOM     33  C   UNL     1      -4.050  -1.594  23.984  0.00  0.00    +0.125 C 
ENDBRANCH  25  26
ENDBRANCH  24  25
TORSDOF 4
ENDMDL
MODEL 4
REMARK VINA RESULT:     -13.4      1.330      4.916
REMARK  Name = 
REMARK  4 active torsions:
REMARK  status: ('A' for Active; 'I' for Inactive)
REMARK    1  A    between atoms: C_2  and  C_5
REMARK    2  A    between atoms: C_14  and  C_16
REMARK    3  A    between atoms: C_24  and  C_25
REMARK    4  A    between atoms: C_25  and  C_26
REMARK                            x       y       z     vdW  Elec       q    Type
REMARK                         _______ _______ _______ _____ _____    ______ ____
ROOT
ATOM      5  C   UNL     1      -0.583   1.846  25.447  0.00  0.00    +0.246 C 
ATOM      6  O   UNL     1      -0.211   1.110  25.419  0.00  0.00    -0.273 OA
ATOM      7  N   UNL     1      -1.390   1.905  25.288  0.00  0.00    -0.154 NA
ATOM      8  C   UNL     1      -1.825   1.229  25.101  0.00  0.00    +0.185 A 
ATOM      9  N   UNL     1      -2.632   1.204  24.931  0.00  0.00    -0.227 NA
ATOM     10  C   UNL     1      -2.835   0.419  24.776  0.00  0.00    +0.063 A 
ATOM     11  C   UNL     1      -2.154  -0.040  24.852  0.00  0.00    +0.023 A 
ATOM     12  C   UNL     1      -2.190  -0.855  24.727  0.00  0.00    +0.034 C 
ATOM     13  C   UNL     1      -2.907  -1.210  24.528  0.00  0.00    +0.010 C 
ATOM     14  C   UNL     1      -2.943  -2.025  24.404  0.00  0.00    +0.059 C 
ATOM     15  C   UNL     1      -2.142  -1.942  24.582  0.00  0.00    +0.005 C 
ATOM     18  C   UNL     1      -3.660  -2.381  24.204  0.00  0.00    +0.154 C 
ATOM     19  O   UNL     1      -3.697  -3.196  24.080  0.00  0.00    -0.223 OA
ATOM     20  C   UNL     1      -4.341  -1.922  24.129  0.00  0.00    +0.033 C 
ATOM     21  C   UNL     1      -4.305  -1.106  24.253  0.00  0.00    +0.003 C 
ATOM     22  C   UNL     1      -3.588  -0.751  24.453  0.00  0.00    +0.006 C 
ATOM     23  C   UNL     1      -4.269  -0.292  24.377  0.00  0.00    +0.000 C 
ATOM     24  C   UNL     1      -3.553   0.064  24.577  0.00  0.00    +0.050 C 
ATOM     34  S   UNL     1      -1.529   0.461  25.053  0.00  0.00    -0.054 S 
ENDROOT
BRANCH   5   2
ATOM      1  C   UNL     1       0.286   3.197  25.820  0.00  0.00    +0.009 C 
ATOM      2  C   UNL     1      -0.148   2.521  25.634  0.00  0.00    +0.071 C 
ATOM      3  C   UNL     1      -0.216   2.343  26.436  0.00  0.00    +0.009 C 
ATOM      4  C   UNL     1      -0.081   2.700  24.831  0.00  0.00    +0.009 C 
ENDBRANCH   5   2
BRANCH  14  16
ATOM     16  C   UNL     1      -2.701  -2.811  24.342  0.00  0.00    +0.184 C 
ATOM     17  O   UNL     1      -1.898  -2.995  24.318  0.00  0.00    -0.220 OA
ENDBRANCH  14  16
BRANCH  24  25
ATOM     25  C   UNL     1      -4.233   0.522  24.501  0.00  0.00    +0.091 C 
BRANCH  25  26
ATOM     26  C   UNL     1      -4.661   0.740  25.172  0.00  0.00    +0.226 C 
ATOM     27  O   UNL     1      -4.653   0.256  25.840  0.00  0.00    -0.275 OA
ATOM     28  N   UNL     1      -5.096   1.441  25.175  0.00  0.00    -0.274 N 
ATOM     29  C   UNL     1      -5.523   1.658  25.846  0.00  0.00    +0.125 C 
ATOM     30  C   UNL     1      -5.958   2.359  25.849  0.00  0.00    +0.164 C 
ATOM     31  O   UNL     1      -5.966   2.843  25.181  0.00  0.00    -0.350 OA
ATOM     32  C   UNL     1      -5.538   2.625  24.511  0.00  0.00    +0.164 C 
ATOM     33  C   UNL     1      -5.103   1.924  24.507  0.00  0.00    +0.125 C 
ENDBRANCH  25  26
ENDBRANCH  24  25
TORSDOF 4
ENDMDL
MODEL 5
REMARK VINA RESULT:     -12.4      1.809      3.757
REMARK  Name = 
REMARK  4 active torsions:
REMARK  status: ('A' for Active; 'I' for Inactive)
REMARK    1  A    between atoms: C_2  and  C_5
REMARK    2  A    between atoms: C_14  and  C_16
REMARK    3  A    between atoms: C_24  and  C_25
REMARK    4  A    between atoms: C_25  and  C_26
REMARK                            x       y       z     vdW  Elec       q    Type
REMARK                         _______ _______ _______ _____ _____    ______ ____
ROOT
ATOM      5  C   UNL     1      -1.339  -0.515  24.819  0.00  0.00    +0.246 C 
ATOM      6  O   UNL     1      -0.645  -0.091  24.681  0.00  0.00    -0.273 OA
ATOM      7  N   UNL     1      -2.038  -0.114  24.997  0.00  0.00    -0.154 NA
ATOM      8  C   UNL     1      -2.042   0.710  25.037  0.00  0.00    +0.185 A 
ATOM      9  N   UNL     1      -2.696   1.183  25.209  0.00  0.00    -0.227 NA
ATOM     10  C   UNL     1      -2.451   1.971  25.191  0.00  0.00    +0.063 A 
ATOM     11  C   UNL     1      -1.647   1.984  25.008  0.00  0.00    +0.023 A 
ATOM     12  C   UNL     1      -1.249   2.705  24.952  0.00  0.00    +0.034 C 
ATOM     13  C   UNL     1      -1.654   3.411  25.078  0.00  0.00    +0.010 C 
ATOM     14  C   UNL     1      -1.256   4.131  25.022  0.00  0.00    +0.059 C 
ATOM     15  C   UNL     1      -0.637   3.612  24.856  0.00  0.00    +0.005 C 
ATOM     18  C   UNL     1      -1.661   4.839  25.148  0.00  0.00    +0.154 C 
ATOM     19  O   UNL     1      -1.263   5.559  25.092  0.00  0.00    -0.223 OA
ATOM     20  C   UNL     1      -2.466   4.825  25.331  0.00  0.00    +0.033 C 
ATOM     21  C   UNL     1      -2.865   4.105  25.387  0.00  0.00    +0.003 C 
ATOM     22  C   UNL     1      -2.459   3.398  25.261  0.00  0.00    +0.006 C 
ATOM     23  C   UNL     1      -3.263   3.385  25.443  0.00  0.00    +0.000 C 
ATOM     24  C   UNL     1      -2.858   2.679  25.317  0.00  0.00    +0.050 C 
ATOM     34  S   UNL     1      -1.394   1.204  24.914  0.00  0.00    -0.054 S 
ENDROOT
BRANCH   5   2
ATOM      1  C   UNL     1      -1.331  -2.163  24.738  0.00  0.00    +0.009 C 
ATOM      2  C   UNL     1      -1.335  -1.339  24.778  0.00  0.00    +0.071 C 
ATOM      3  C   UNL     1      -1.989  -1.318  24.276  0.00  0.00    +0.009 C 
ATOM      4  C   UNL     1      -0.681  -1.360  25.281  0.00  0.00    +0.009 C 
ENDBRANCH   5   2
BRANCH  14  16
ATOM     16  C   UNL     1      -0.643   4.671  24.908  0.00  0.00    +0.184 C 
ATOM     17  O   UNL     1      -0.006   4.477  24.421  0.00  0.00    -0.220 OA
ENDBRANCH  14  16
BRANCH  24  25
ATOM     25  C   UNL     1      -3.661   2.665  25.500  0.00  0.00    +0.091 C 
BRANCH  25  26
ATOM     26  C   UNL     1      -4.216   2.518  24.908  0.00  0.00    +0.226 C 
ATOM     27  O   UNL     1      -3.999   2.580  24.115  0.00  0.00    -0.275 OA
ATOM     28  N   UNL     1      -4.989   2.309  25.109  0.00  0.00    -0.274 N 
ATOM     29  C   UNL     1      -5.543   2.163  24.517  0.00  0.00    +0.125 C 
ATOM     30  C   UNL     1      -6.316   1.954  24.718  0.00  0.00    +0.164 C 
ATOM     31  O   UNL     1      -6.533   1.892  25.511  0.00  0.00    -0.350 OA
ATOM     32  C   UNL     1      -5.978   2.039  26.103  0.00  0.00    +0.164 C 
ATOM     33  C   UNL     1      -5.206   2.248  25.902  0.00  0.00    +0.125 C 
ENDBRANCH  25  26
ENDBRANCH  24  25
TORSDOF 4
ENDMDL
MODEL 6
REMARK VINA RESULT:     -11.7      1.936      3.611
REMARK  Name = 
REMARK  4 active torsions:
REMARK  status: ('A' for Active; 'I' for Inactive)
REMARK    1  A    between atoms: C_2  and  C_5
REMARK    2  A    between atoms: C_14  and  C_16
REMARK    3  A    between atoms: C_24  and  C_25
REMARK    4  A    between atoms: C_25  and  C_26
REMARK                            x       y       z     vdW  Elec       q    Type
REMARK                         _______ _______ _______ _____ _____    ______ ____
ROOT
ATOM      5  C   UNL     1      -5.312   2.263  25.353  0.00  0.00    +0.246 C 
ATOM      6  O   UNL     1      -5.252   3.079  25.460  0.00  0.00    -0.273 OA
ATOM      7  N   UNL     1      -4.639   1.822  25.169  0.00  0.00    -0.154 NA
ATOM      8  C   UNL     1      -3.908   2.197  25.092  0.00  0.00    +0.185 A 
ATOM      9  N   UNL     1      -3.193   1.829  24.910  0.00  0.00    -0.227 NA
ATOM     10  C   UNL     1      -2.607   2.410  24.889  0.00  0.00    +0.063 A 
ATOM     11  C   UNL     1      -2.961   3.136  25.057  0.00  0.00    +0.023 A 
ATOM     12  C   UNL     1      -2.504   3.823  25.074  0.00  0.00    +0.034 C 
ATOM     13  C   UNL     1      -1.694   3.784  24.924  0.00  0.00    +0.010 C 
ATOM     14  C   UNL     1      -1.239   4.471  24.941  0.00  0.00    +0.059 C 
ATOM     15  C   UNL     1      -1.980   4.786  25.120  0.00  0.00    +0.005 C 
ATOM     18  C   UNL     1      -0.428   4.433  24.790  0.00  0.00    +0.154 C 
ATOM     19  O   UNL     1       0.028   5.120  24.808  0.00  0.00    -0.223 OA
ATOM     20  C   UNL     1      -0.074   3.707  24.622  0.00  0.00    +0.033 C 
ATOM     21  C   UNL     1      -0.530   3.019  24.605  0.00  0.00    +0.003 C 
ATOM     22  C   UNL     1      -1.340   3.058  24.755  0.00  0.00    +0.006 C 
ATOM     23  C   UNL     1      -0.986   2.333  24.587  0.00  0.00    +0.000 C 
ATOM     24  C   UNL     1      -1.796   2.371  24.738  0.00  0.00    +0.050 C 
ATOM     34  S   UNL     1      -3.766   3.004  25.183  0.00  0.00    -0.054 S 
ENDROOT
BRANCH   5   2
ATOM      1  C   UNL     1      -6.774   1.514  25.507  0.00  0.00    +0.009 C 
ATOM      2  C   UNL     1      -6.043   1.889  25.430  0.00  0.00    +0.071 C 
ATOM      3  C   UNL     1      -6.105   1.840  24.609  0.00  0.00    +0.009 C 
ATOM      4  C   UNL     1      -5.981   1.937  26.251  0.00  0.00    +0.009 C 
ENDBRANCH   5   2
BRANCH  14  16
ATOM     16  C   UNL     1      -1.039   5.268  25.020  0.00  0.00    +0.184 C 
ATOM     17  O   UNL     1      -1.632   5.837  25.091  0.00  0.00    -0.220 OA
ENDBRANCH  14  16
BRANCH  24  25
ATOM     25  C   UNL     1      -1.442   1.646  24.570  0.00  0.00    +0.091 C 
BRANCH  25  26
ATOM     26  C   UNL     1      -1.264   1.122  25.181  0.00  0.00    +0.226 C 
ATOM     27  O   UNL     1      -1.239   1.391  25.960  0.00  0.00    -0.275 OA
ATOM     28  N   UNL     1      -1.112   0.328  25.014  0.00  0.00    -0.274 N 
ATOM     29  C   UNL     1      -0.934  -0.195  25.625  0.00  0.00    +0.125 C 
ATOM     30  C   UNL     1      -0.782  -0.988  25.458  0.00  0.00    +0.164 C 
ATOM     31  O   UNL     1      -0.806  -1.258  24.679  0.00  0.00    -0.350 OA
ATOM     32  C   UNL     1      -0.984  -0.734  24.067  0.00  0.00    +0.164 C 
ATOM     33  C   UNL     1      -1.137   0.059  24.235  0.00  0.00    +0.125 C 
ENDBRANCH  25  26
ENDBRANCH  24  25
TORSDOF 4
ENDMDL
MODEL 7
REMARK VINA RESULT:     -11.5      1.228      4.653
REMARK  Name = 
REMARK  4 active torsions:
REMARK  status: ('A' for Active; 'I' for Inactive)
REMARK    1  A    between atoms: C_2  and  C_5
REMARK    2  A    between atoms: C_14  and  C_16
REMARK    3  A    between atoms: C_24  and  C_25
REMARK    4  A    between atoms: C_25  and  C_26
REMARK                            x       y       z     vdW  Elec       q    Type
REMARK                         _______ _______ _______ _____ _____    ______ ____
ROOT
ATOM      5  C   UNL     1      -4.693   2.839  25.372  0.00  0.00    +0.246 C 
ATOM      6  O   UNL     1      -4.094   3.405  25.375  0.00  0.00    -0.273 OA
ATOM      7  N   UNL     1      -4.519   2.057  25.176  0.00  0.00    -0.154 NA
ATOM      8  C   UNL     1      -3.746   1.841  24.985  0.00  0.00    +0.185 A 
ATOM      9  N   UNL     1      -3.491   1.084  24.780  0.00  0.00    -0.227 NA
ATOM     10  C   UNL     1      -2.679   1.120  24.633  0.00  0.00    +0.063 A 
ATOM     11  C   UNL     1      -2.434   1.899  24.748  0.00  0.00    +0.023 A 
ATOM     12  C   UNL     1      -1.641   2.102  24.640  0.00  0.00    +0.034 C 
ATOM     13  C   UNL     1      -1.095   1.527  24.417  0.00  0.00    +0.010 C 
ATOM     14  C   UNL     1      -0.303   1.729  24.308  0.00  0.00    +0.059 C 
ATOM     15  C   UNL     1      -0.612   2.465  24.519  0.00  0.00    +0.005 C 
ATOM     18  C   UNL     1       0.244   1.154  24.085  0.00  0.00    +0.154 C 
ATOM     19  O   UNL     1       1.037   1.356  23.977  0.00  0.00    -0.223 OA
ATOM     20  C   UNL     1      -0.001   0.374  23.970  0.00  0.00    +0.033 C 
ATOM     21  C   UNL     1      -0.794   0.171  24.079  0.00  0.00    +0.003 C 
ATOM     22  C   UNL     1      -1.340   0.747  24.302  0.00  0.00    +0.006 C 
ATOM     23  C   UNL     1      -1.586  -0.032  24.187  0.00  0.00    +0.000 C 
ATOM     24  C   UNL     1      -2.132   0.544  24.410  0.00  0.00    +0.050 C 
ATOM     34  S   UNL     1      -3.094   2.345  24.966  0.00  0.00    -0.054 S 
ENDROOT
BRANCH   5   2
ATOM      1  C   UNL     1      -6.239   3.269  25.755  0.00  0.00    +0.009 C 
ATOM      2  C   UNL     1      -5.466   3.054  25.563  0.00  0.00    +0.071 C 
ATOM      3  C   UNL     1      -5.637   2.270  25.757  0.00  0.00    +0.009 C 
ATOM      4  C   UNL     1      -5.296   3.838  25.370  0.00  0.00    +0.009 C 
ENDBRANCH   5   2
BRANCH  14  16
ATOM     16  C   UNL     1       0.382   2.188  24.273  0.00  0.00    +0.184 C 
ATOM     17  O   UNL     1       0.338   3.005  24.371  0.00  0.00    -0.220 OA
ENDBRANCH  14  16
BRANCH  24  25
ATOM     25  C   UNL     1      -2.377  -0.235  24.295  0.00  0.00    +0.091 C 
BRANCH  25  26
ATOM     26  C   UNL     1      -2.485  -0.734  24.943  0.00  0.00    +0.226 C 
ATOM     27  O   UNL     1      -2.155  -0.537  25.673  0.00  0.00    -0.275 OA
ATOM     28  N   UNL     1      -2.921  -1.429  24.861  0.00  0.00    -0.274 N 
ATOM     29  C   UNL     1      -3.028  -1.927  25.509  0.00  0.00    +0.125 C 
ATOM     30  C   UNL     1      -3.465  -2.622  25.427  0.00  0.00    +0.164 C 
ATOM     31  O   UNL     1      -3.794  -2.819  24.697  0.00  0.00    -0.350 OA
ATOM     32  C   UNL     1      -3.687  -2.321  24.049  0.00  0.00    +0.164 C 
ATOM     33  C   UNL     1      -3.250  -1.625  24.131  0.00  0.00    +0.125 C 
ENDBRANCH  25  26
ENDBRANCH  24  25
TORSDOF 4
ENDMDL
MODEL 8
REMARK VINA RESULT:     -11.4      1.890      3.953
REMARK  Name = 
REMARK  4 active torsions:
REMARK  status: ('A' for Active; 'I' for Inactive)
REMARK    1  A    between atoms: C_2  and  C_5
REMARK    2  A    between atoms: C_14  and  C_16
REMARK    3  A    between atoms: C_24  and  C_25
REMARK    4  A    between atoms: C_25  and  C_26
REMARK                            x       y       z     vdW  Elec       q    Type
REMARK                         _______ _______ _______ _____ _____    ______ ____
ROOT
ATOM      5  C   UNL     1      -1.520   4.400  24.907  0.00  0.00    +0.246 C 
ATOM      6  O   UNL     1      -2.272   4.709  25.048  0.00  0.00    -0.273 OA
ATOM      7  N   UNL     1      -1.426   3.591  24.776  0.00  0.00    -0.154 NA
ATOM      8  C   UNL     1      -2.082   3.091  24.785  0.00  0.00    +0.185 A 
ATOM      9  N   UNL     1      -2.072   2.276  24.663  0.00  0.00    -0.227 NA
ATOM     10  C   UNL     1      -2.848   2.000  24.721  0.00  0.00    +0.063 A 
ATOM     11  C   UNL     1      -3.336   2.646  24.878  0.00  0.00    +0.023 A 
ATOM     12  C   UNL     1      -4.150   2.536  24.965  0.00  0.00    +0.034 C 
ATOM     13  C   UNL     1      -4.474   1.781  24.895  0.00  0.00    +0.010 C 
ATOM     14  C   UNL     1      -5.286   1.671  24.981  0.00  0.00    +0.059 C 
ATOM     15  C   UNL     1      -5.239   2.487  25.096  0.00  0.00    +0.005 C 
ATOM     18  C   UNL     1      -5.611   0.916  24.911  0.00  0.00    +0.154 C 
ATOM     19  O   UNL     1      -6.425   0.806  24.998  0.00  0.00    -0.223 OA
ATOM     20  C   UNL     1      -5.123   0.270  24.754  0.00  0.00    +0.033 C 
ATOM     21  C   UNL     1      -4.309   0.380  24.667  0.00  0.00    +0.003 C 
ATOM     22  C   UNL     1      -3.985   1.135  24.738  0.00  0.00    +0.006 C 
ATOM     23  C   UNL     1      -3.496   0.489  24.580  0.00  0.00    +0.000 C 
ATOM     24  C   UNL     1      -3.172   1.244  24.651  0.00  0.00    +0.050 C 
ATOM     34  S   UNL     1      -2.863   3.321  24.918  0.00  0.00    -0.054 S 
ENDROOT
BRANCH   5   2
ATOM      1  C   UNL     1      -0.206   5.398  24.888  0.00  0.00    +0.009 C 
ATOM      2  C   UNL     1      -0.863   4.899  24.897  0.00  0.00    +0.071 C 
ATOM      3  C   UNL     1      -0.364   4.242  24.907  0.00  0.00    +0.009 C 
ATOM      4  C   UNL     1      -1.363   5.555  24.887  0.00  0.00    +0.009 C 
ENDBRANCH   5   2
BRANCH  14  16
ATOM     16  C   UNL     1      -6.083   1.845  25.108  0.00  0.00    +0.184 C 
ATOM     17  O   UNL     1      -6.304   2.583  25.401  0.00  0.00    -0.220 OA
ENDBRANCH  14  16
BRANCH  24  25
ATOM     25  C   UNL     1      -2.684   0.599  24.494  0.00  0.00    +0.091 C 
BRANCH  25  26
ATOM     26  C   UNL     1      -2.287   0.222  25.111  0.00  0.00    +0.226 C 
ATOM     27  O   UNL     1      -2.541   0.327  25.888  0.00  0.00    -0.275 OA
ATOM     28  N   UNL     1      -1.637  -0.260  24.950  0.00  0.00    -0.274 N 
ATOM     29  C   UNL     1      -1.241  -0.637  25.567  0.00  0.00    +0.125 C 
ATOM     30  C   UNL     1      -0.591  -1.119  25.406  0.00  0.00    +0.164 C 
ATOM     31  O   UNL     1      -0.337  -1.225  24.629  0.00  0.00    -0.350 OA
ATOM     32  C   UNL     1      -0.734  -0.847  24.012  0.00  0.00    +0.164 C 
ATOM     33  C   UNL     1      -1.384  -0.365  24.172  0.00  0.00    +0.125 C 
ENDBRANCH  25  26
ENDBRANCH  24  25
TORSDOF 4
ENDMDL
MODEL 9
REMARK VINA RESULT:     -11.1      1.425      2.115
REMARK  Name = 
REMARK  4 active torsions:
REMARK  status: ('A' for Active; 'I' for Inactive)
REMARK    1  A    between atoms: C_2  and  C_5
REMARK    2  A    between atoms: C_14  and  C_16
REMARK    3  A    between atoms: C_24  and  C_25
REMARK    4  A    between atoms: C_25  and  C_26
REMARK                            x       y       z     vdW  Elec       q    Type
REMARK                         _______ _______ _______ _____ _____    ______ ____
ROOT
ATOM      5  C   UNL     1      -3.669  -1.142  24.579  0.00  0.00    +0.246 C 
ATOM      6  O   UNL     1      -4.158  -0.630  25.002  0.00  0.00    -0.273 OA
ATOM      7  N   UNL     1      -2.953  -0.869  24.274  0.00  0.00    -0.154 NA
ATOM      8  C   UNL     1      -2.726  -0.085  24.392  0.00  0.00    +0.185 A 
ATOM      9  N   UNL     1      -2.029   0.263  24.121  0.00  0.00    -0.227 NA
ATOM     10  C   UNL     1      -2.028   1.052  24.364  0.00  0.00    +0.063 A 
ATOM     11  C   UNL     1      -2.724   1.191  24.784  0.00  0.00    +0.023 A 
ATOM     12  C   UNL     1      -2.875   1.939  25.096  0.00  0.00    +0.034 C 
ATOM     13  C   UNL     1      -2.330   2.549  24.989  0.00  0.00    +0.010 C 
ATOM     14  C   UNL     1      -2.482   3.297  25.301  0.00  0.00    +0.059 C 
ATOM     15  C   UNL     1      -3.161   2.899  25.547  0.00  0.00    +0.005 C 
ATOM     18  C   UNL     1      -1.937   3.907  25.194  0.00  0.00    +0.154 C 
ATOM     19  O   UNL     1      -2.088   4.656  25.506  0.00  0.00    -0.223 OA
ATOM     20  C   UNL     1      -1.241   3.769  24.773  0.00  0.00    +0.033 C 
ATOM     21  C   UNL     1      -1.089   3.020  24.460  0.00  0.00    +0.003 C 
ATOM     22  C   UNL     1      -1.634   2.411  24.568  0.00  0.00    +0.006 C 
ATOM     23  C   UNL     1      -0.938   2.272  24.148  0.00  0.00    +0.000 C 
ATOM     24  C   UNL     1      -1.482   1.663  24.256  0.00  0.00    +0.050 C 
ATOM     34  S   UNL     1      -3.155   0.487  24.801  0.00  0.00    -0.054 S 
ENDROOT
BRANCH   5   2
ATOM      1  C   UNL     1      -4.123  -2.710  24.342  0.00  0.00    +0.009 C 
ATOM      2  C   UNL     1      -3.896  -1.926  24.461  0.00  0.00    +0.071 C 
ATOM      3  C   UNL     1      -4.337  -1.699  23.801  0.00  0.00    +0.009 C 
ATOM      4  C   UNL     1      -3.456  -2.153  25.120  0.00  0.00    +0.009 C 
ENDBRANCH   5   2
BRANCH  14  16
ATOM     16  C   UNL     1      -2.869   3.908  25.699  0.00  0.00    +0.184 C 
ATOM     17  O   UNL     1      -3.649   3.809  25.947  0.00  0.00    -0.220 OA
ENDBRANCH  14  16
BRANCH  24  25
ATOM     25  C   UNL     1      -0.787   1.525  23.836  0.00  0.00    +0.091 C 
BRANCH  25  26
ATOM     26  C   UNL     1      -0.175   1.093  24.181  0.00  0.00    +0.226 C 
ATOM     27  O   UNL     1      -0.085   1.090  25.001  0.00  0.00    -0.275 OA
ATOM     28  N   UNL     1       0.347   0.664  23.707  0.00  0.00    -0.274 N 
ATOM     29  C   UNL     1       0.958   0.233  24.053  0.00  0.00    +0.125 C 
ATOM     30  C   UNL     1       1.480  -0.196  23.579  0.00  0.00    +0.164 C 
ATOM     31  O   UNL     1       1.391  -0.193  22.759  0.00  0.00    -0.350 OA
ATOM     32  C   UNL     1       0.779   0.239  22.413  0.00  0.00    +0.164 C 
ATOM     33  C   UNL     1       0.257   0.668  22.888  0.00  0.00    +0.125 C 
ENDBRANCH  25  26
ENDBRANCH  24  25
TORSDOF 4
ENDMDL
MODEL 10
REMARK VINA RESULT:     -10.8      1.949      4.573
REMARK  Name = 
REMARK  4 active torsions:
REMARK  status: ('A' for Active; 'I' for Inactive)
REMARK    1  A    between atoms: C_2  and  C_5
REMARK    2  A    between atoms: C_14  and  C_16
REMARK    3  A    between atoms: C_24  and  C_25
REMARK    4  A    between atoms: C_25  and  C_26
REMARK                            x       y       z     vdW  Elec       q    Type
REMARK                         _______ _______ _______ _____ _____    ______ ____
ROOT
ATOM      5  C   UNL     1       1.141   0.165  23.304  0.00  0.00    +0.246 C 
ATOM      6  O   UNL     1       1.053  -0.655  23.305  0.00  0.00    -0.273 OA
ATOM      7  N   UNL     1       0.531   0.644  23.585  0.00  0.00    -0.154 NA
ATOM      8  C   UNL     1      -0.166   0.304  23.867  0.00  0.00    +0.185 A 
ATOM      9  N   UNL     1      -0.818   0.712  24.163  0.00  0.00    -0.227 NA
ATOM     10  C   UNL     1      -1.388   0.156  24.381  0.00  0.00    +0.063 A 
ATOM     11  C   UNL     1      -1.087  -0.595  24.219  0.00  0.00    +0.023 A 
ATOM     12  C   UNL     1      -1.540  -1.265  24.382  0.00  0.00    +0.034 C 
ATOM     13  C   UNL     1      -2.293  -1.184  24.707  0.00  0.00    +0.010 C 
ATOM     14  C   UNL     1      -2.746  -1.854  24.870  0.00  0.00    +0.059 C 
ATOM     15  C   UNL     1      -2.067  -2.210  24.565  0.00  0.00    +0.005 C 
ATOM     18  C   UNL     1      -3.500  -1.774  25.195  0.00  0.00    +0.154 C 
ATOM     19  O   UNL     1      -3.954  -2.444  25.358  0.00  0.00    -0.223 OA
ATOM     20  C   UNL     1      -3.802  -1.023  25.357  0.00  0.00    +0.033 C 
ATOM     21  C   UNL     1      -3.349  -0.352  25.194  0.00  0.00    +0.003 C 
ATOM     22  C   UNL     1      -2.595  -0.434  24.869  0.00  0.00    +0.006 C 
ATOM     23  C   UNL     1      -2.896   0.317  25.031  0.00  0.00    +0.000 C 
ATOM     24  C   UNL     1      -2.143   0.237  24.706  0.00  0.00    +0.050 C 
ATOM     34  S   UNL     1      -0.331  -0.503  23.901  0.00  0.00    -0.054 S 
ENDROOT
BRANCH   5   2
ATOM      1  C   UNL     1       2.534   0.846  22.741  0.00  0.00    +0.009 C 
ATOM      2  C   UNL     1       1.838   0.505  23.022  0.00  0.00    +0.071 C 
ATOM      3  C   UNL     1       1.906  -0.097  22.463  0.00  0.00    +0.009 C 
ATOM      4  C   UNL     1       1.769   1.108  23.581  0.00  0.00    +0.009 C 
ENDBRANCH   5   2
BRANCH  14  16
ATOM     16  C   UNL     1      -2.963  -2.648  24.927  0.00  0.00    +0.184 C 
ATOM     17  O   UNL     1      -2.586  -3.214  24.461  0.00  0.00    -0.220 OA
ENDBRANCH  14  16
BRANCH  24  25
ATOM     25  C   UNL     1      -2.444   0.987  24.868  0.00  0.00    +0.091 C 
BRANCH  25  26
ATOM     26  C   UNL     1      -2.799   1.427  24.268  0.00  0.00    +0.226 C 
ATOM     27  O   UNL     1      -2.995   1.065  23.552  0.00  0.00    -0.275 OA
ATOM     28  N   UNL     1      -2.959   2.228  24.383  0.00  0.00    -0.274 N 
ATOM     29  C   UNL     1      -3.315   2.668  23.782  0.00  0.00    +0.125 C 
ATOM     30  C   UNL     1      -3.475   3.469  23.897  0.00  0.00    +0.164 C 
ATOM     31  O   UNL     1      -3.280   3.830  24.613  0.00  0.00    -0.350 OA
ATOM     32  C   UNL     1      -2.924   3.390  25.213  0.00  0.00    +0.164 C 
ATOM     33  C   UNL     1      -2.764   2.589  25.098  0.00  0.00    +0.125 C 
ENDBRANCH  25  26
ENDBRANCH  24  25
TORSDOF 4
ENDMDL
