MODEL 1
REMARK VINA RESULT:     -10.8      0.000      0.000
REMARK  Name = 
REMARK  7 active torsions:
REMARK  status: ('A' for Active; 'I' for Inactive)
REMARK    1  A    between atoms: C_2  and  C_3
REMARK    2  A    between atoms: C_3  and  C_4
REMARK    3  A    between atoms: C_3  and  C_6
REMARK    4  A    between atoms: N_8  and  C_9
REMARK    5  A    between atoms: C_9  and  C_10
REMARK    6  A    between atoms: C_17  and  C_18
REMARK    7  A    between atoms: C_20  and  C_25
REMARK                            x       y       z     vdW  Elec       q    Type
REMARK                         _______ _______ _______ _____ _____    ______ ____
ROOT
ATOM     10  C   UNL     1      -0.877  -0.486  24.279  0.00  0.00    +0.079 C 
ATOM     11  C   UNL     1      -0.413   0.100  24.061  0.00  0.00    +0.018 C 
ATOM     12  C   UNL     1      -0.307   0.793  24.465  0.00  0.00    +0.010 C 
ATOM     13  C   UNL     1       0.269   1.339  24.047  0.00  0.00    +0.018 C 
ATOM     14  C   UNL     1      -0.082   0.794  24.129  0.00  0.00    +0.072 C 
ATOM     15  N   UNL     1      -0.763   0.224  24.686  0.00  0.00    -0.272 NA
ATOM     16  C   UNL     1      -1.112   0.542  25.467  0.00  0.00    +0.078 C 
ATOM     17  C   UNL     1      -0.646   1.093  25.217  0.00  0.00    +0.056 C 
ENDROOT
BRANCH  17  18
ATOM     18  C   UNL     1      -0.493   1.820  25.579  0.00  0.00    +0.063 A 
ATOM     19  C   UNL     1      -0.865   2.503  25.304  0.00  0.00    +0.034 A 
ATOM     20  C   UNL     1      -0.712   3.228  25.666  0.00  0.00    +0.084 A 
ATOM     21  N   UNL     1      -0.188   3.271  26.302  0.00  0.00    -0.231 NA
ATOM     22  C   UNL     1       0.184   2.587  26.576  0.00  0.00    +0.139 A 
ATOM     23  C   UNL     1       0.708   2.629  27.212  0.00  0.00    +0.074 C 
ATOM     24  N   UNL     1       0.031   1.861  26.214  0.00  0.00    -0.235 NA
BRANCH  20  25
ATOM     25  C   UNL     1      -1.083   3.913  25.392  0.00  0.00    +0.024 A 
ATOM     26  C   UNL     1      -1.859   4.079  25.618  0.00  0.00    +0.036 A 
ATOM     27 BR   UNL     1      -2.263   3.562  26.117  0.00  0.00    -0.049 Br
ATOM     28  C   UNL     1      -2.230   4.763  25.344  0.00  0.00    +0.007 A 
ATOM     29  C   UNL     1      -1.826   5.280  24.844  0.00  0.00    +0.001 A 
ATOM     30  C   UNL     1      -1.051   5.113  24.619  0.00  0.00    +0.000 A 
ATOM     31  C   UNL     1      -0.678   4.429  24.892  0.00  0.00    +0.002 A 
ENDBRANCH  20  25
ENDBRANCH  17  18
BRANCH  10   9
ATOM      9  C   UNL     1      -1.217  -1.231  24.182  0.00  0.00    +0.131 C 
BRANCH   9   8
ATOM      6  C   UNL     1      -2.339  -2.103  24.326  0.00  0.00    +0.241 C 
ATOM      7  O   UNL     1      -1.859  -2.750  24.153  0.00  0.00    -0.273 OA
ATOM      8  N   UNL     1      -2.018  -1.343  24.341  0.00  0.00    -0.204 NA
BRANCH   6   3
ATOM      3  C   UNL     1      -3.141  -2.215  24.485  0.00  0.00    +0.078 C 
BRANCH   3   2
ATOM      1  C   UNL     1      -4.354  -2.425  23.761  0.00  0.00    +0.001 C 
ATOM      2  C   UNL     1      -3.709  -1.948  23.950  0.00  0.00    +0.009 C 
ENDBRANCH   3   2
BRANCH   3   4
ATOM      4  C   UNL     1      -3.375  -2.595  25.180  0.00  0.00    +0.009 C 
ATOM      5  C   UNL     1      -3.597  -2.150  25.838  0.00  0.00    +0.001 C 
ENDBRANCH   3   4
ENDBRANCH   6   3
ENDBRANCH   9   8
ENDBRANCH  10   9
TORSDOF 7
ENDMDL
MODEL 2
REMARK VINA RESULT:     -10.5      1.859      5.360
REMARK  Name = 
REMARK  7 active torsions:
REMARK  status: ('A' for Active; 'I' for Inactive)
REMARK    1  A    between atoms: C_2  and  C_3
REMARK    2  A    between atoms: C_3  and  C_4
REMARK    3  A    between atoms: C_3  and  C_6
REMARK    4  A    between atoms: N_8  and  C_9
REMARK    5  A    between atoms: C_9  and  C_10
REMARK    6  A    between atoms: C_17  and  C_18
REMARK    7  A    between atoms: C_20  and  C_25
REMARK                            x       y       z     vdW  Elec       q    Type
REMARK                         _______ _______ _______ _____ _____    ______ ____
ROOT
ATOM     10  C   UNL     1      -0.314   1.905  24.594  0.00  0.00    +0.079 C 
ATOM     11  C   UNL     1      -0.210   1.324  24.087  0.00  0.00    +0.018 C 
ATOM     12  C   UNL     1      -0.405   0.548  24.213  0.00  0.00    +0.010 C 
ATOM     13  C   UNL     1      -0.205   0.035  23.505  0.00  0.00    +0.018 C 
ATOM     14  C   UNL     1      -0.244   0.592  23.844  0.00  0.00    +0.072 C 
ATOM     15  N   UNL     1      -0.510   1.112  24.714  0.00  0.00    -0.272 NA
ATOM     16  C   UNL     1      -0.885   0.677  25.424  0.00  0.00    +0.078 C 
ATOM     17  C   UNL     1      -0.766   0.136  24.898  0.00  0.00    +0.056 C 
ENDROOT
BRANCH  17  18
ATOM     18  C   UNL     1      -0.940  -0.668  24.962  0.00  0.00    +0.063 A 
ATOM     19  C   UNL     1      -1.695  -0.943  24.772  0.00  0.00    +0.034 A 
ATOM     20  C   UNL     1      -1.868  -1.746  24.836  0.00  0.00    +0.084 A 
ATOM     21  N   UNL     1      -1.288  -2.276  25.089  0.00  0.00    -0.231 NA
ATOM     22  C   UNL     1      -0.534  -2.001  25.279  0.00  0.00    +0.139 A 
ATOM     23  C   UNL     1       0.046  -2.529  25.533  0.00  0.00    +0.074 C 
ATOM     24  N   UNL     1      -0.360  -1.196  25.215  0.00  0.00    -0.235 NA
BRANCH  20  25
ATOM     25  C   UNL     1      -2.623  -2.022  24.646  0.00  0.00    +0.024 A 
ATOM     26  C   UNL     1      -3.249  -1.902  25.169  0.00  0.00    +0.036 A 
ATOM     27 BR   UNL     1      -3.122  -1.506  25.882  0.00  0.00    -0.049 Br
ATOM     28  C   UNL     1      -4.003  -2.177  24.980  0.00  0.00    +0.007 A 
ATOM     29  C   UNL     1      -4.131  -2.573  24.267  0.00  0.00    +0.001 A 
ATOM     30  C   UNL     1      -3.505  -2.693  23.745  0.00  0.00    +0.000 A 
ATOM     31  C   UNL     1      -2.750  -2.418  23.933  0.00  0.00    +0.002 A 
ENDBRANCH  20  25
ENDBRANCH  17  18
BRANCH  10   9
ATOM      9  C   UNL     1      -0.267   2.695  24.828  0.00  0.00    +0.131 C 
BRANCH   9   8
ATOM      6  C   UNL     1      -0.911   3.913  25.206  0.00  0.00    +0.241 C 
ATOM      7  O   UNL     1      -0.179   4.240  25.399  0.00  0.00    -0.273 OA
ATOM      8  N   UNL     1      -0.955   3.140  24.921  0.00  0.00    -0.204 NA
BRANCH   6   3
ATOM      3  C   UNL     1      -1.599   4.358  25.299  0.00  0.00    +0.078 C 
BRANCH   3   2
ATOM      1  C   UNL     1      -1.644   5.764  25.050  0.00  0.00    +0.001 C 
ATOM      2  C   UNL     1      -1.754   4.988  24.791  0.00  0.00    +0.009 C 
ENDBRANCH   3   2
BRANCH   3   4
ATOM      4  C   UNL     1      -2.133   4.172  25.901  0.00  0.00    +0.009 C 
ATOM      5  C   UNL     1      -2.944   4.180  25.750  0.00  0.00    +0.001 C 
ENDBRANCH   3   4
ENDBRANCH   6   3
ENDBRANCH   9   8
ENDBRANCH  10   9
TORSDOF 7
ENDMDL
MODEL 3
REMARK VINA RESULT:     -10.4      2.429      4.245
REMARK  Name = 
REMARK  7 active torsions:
REMARK  status: ('A' for Active; 'I' for Inactive)
REMARK    1  A    between atoms: C_2  and  C_3
REMARK    2  A    between atoms: C_3  and  C_4
REMARK    3  A    between atoms: C_3  and  C_6
REMARK    4  A    between atoms: N_8  and  C_9
REMARK    5  A    between atoms: C_9  and  C_10
REMARK    6  A    between atoms: C_17  and  C_18
REMARK    7  A    between atoms: C_20  and  C_25
REMARK                            x       y       z     vdW  Elec       q    Type
REMARK                         _______ _______ _______ _____ _____    ______ ____
ROOT
ATOM     10  C   UNL     1       0.309   0.131  23.487  0.00  0.00    +0.079 C 
ATOM     11  C   UNL     1       0.009   0.064  24.202  0.00  0.00    +0.018 C 
ATOM     12  C   UNL     1      -0.720   0.328  24.435  0.00  0.00    +0.010 C 
ATOM     13  C   UNL     1      -0.877   0.154  25.300  0.00  0.00    +0.018 C 
ATOM     14  C   UNL     1      -0.530   0.154  24.747  0.00  0.00    +0.072 C 
ATOM     15  N   UNL     1      -0.433   0.398  23.732  0.00  0.00    -0.272 NA
ATOM     16  C   UNL     1      -1.104   0.828  23.288  0.00  0.00    +0.078 C 
ATOM     17  C   UNL     1      -1.361   0.742  24.002  0.00  0.00    +0.056 C 
ENDROOT
BRANCH  17  18
ATOM     18  C   UNL     1      -2.090   0.987  24.303  0.00  0.00    +0.063 A 
ATOM     19  C   UNL     1      -2.202   1.776  24.517  0.00  0.00    +0.034 A 
ATOM     20  C   UNL     1      -2.930   2.020  24.818  0.00  0.00    +0.084 A 
ATOM     21  N   UNL     1      -3.545   1.477  24.904  0.00  0.00    -0.231 NA
ATOM     22  C   UNL     1      -3.432   0.689  24.690  0.00  0.00    +0.139 A 
ATOM     23  C   UNL     1      -4.046   0.145  24.776  0.00  0.00    +0.074 C 
ATOM     24  N   UNL     1      -2.703   0.444  24.389  0.00  0.00    -0.235 NA
BRANCH  20  25
ATOM     25  C   UNL     1      -3.045   2.809  25.033  0.00  0.00    +0.024 A 
ATOM     26  C   UNL     1      -3.476   3.311  24.540  0.00  0.00    +0.036 A 
ATOM     27 BR   UNL     1      -3.792   3.027  23.834  0.00  0.00    -0.049 Br
ATOM     28  C   UNL     1      -3.590   4.100  24.755  0.00  0.00    +0.007 A 
ATOM     29  C   UNL     1      -3.274   4.385  25.462  0.00  0.00    +0.001 A 
ATOM     30  C   UNL     1      -2.843   3.883  25.953  0.00  0.00    +0.000 A 
ATOM     31  C   UNL     1      -2.728   3.094  25.739  0.00  0.00    +0.002 A 
ENDBRANCH  20  25
ENDBRANCH  17  18
BRANCH  10   9
ATOM      9  C   UNL     1       0.902   0.022  22.925  0.00  0.00    +0.131 C 
BRANCH   9   8
ATOM      6  C   UNL     1       2.282   0.067  22.558  0.00  0.00    +0.241 C 
ATOM      7  O   UNL     1       2.083  -0.131  21.782  0.00  0.00    -0.273 OA
ATOM      8  N   UNL     1       1.692   0.144  23.129  0.00  0.00    -0.204 NA
BRANCH   6   3
ATOM      3  C   UNL     1       3.072   0.189  22.762  0.00  0.00    +0.078 C 
BRANCH   3   2
ATOM      1  C   UNL     1       4.147  -0.436  23.465  0.00  0.00    +0.001 C 
ATOM      2  C   UNL     1       3.574  -0.456  22.873  0.00  0.00    +0.009 C 
ENDBRANCH   3   2
BRANCH   3   4
ATOM      4  C   UNL     1       3.360   0.957  22.855  0.00  0.00    +0.009 C 
ATOM      5  C   UNL     1       4.065   1.180  22.489  0.00  0.00    +0.001 C 
ENDBRANCH   3   4
ENDBRANCH   6   3
ENDBRANCH   9   8
ENDBRANCH  10   9
TORSDOF 7
ENDMDL
MODEL 4
REMARK VINA RESULT:     -10.4      2.667      4.256
REMARK  Name = 
REMARK  7 active torsions:
REMARK  status: ('A' for Active; 'I' for Inactive)
REMARK    1  A    between atoms: C_2  and  C_3
REMARK    2  A    between atoms: C_3  and  C_4
REMARK    3  A    between atoms: C_3  and  C_6
REMARK    4  A    between atoms: N_8  and  C_9
REMARK    5  A    between atoms: C_9  and  C_10
REMARK    6  A    between atoms: C_17  and  C_18
REMARK    7  A    between atoms: C_20  and  C_25
REMARK                            x       y       z     vdW  Elec       q    Type
REMARK                         _______ _______ _______ _____ _____    ______ ____
ROOT
ATOM     10  C   UNL     1       0.162   0.493  23.698  0.00  0.00    +0.079 C 
ATOM     11  C   UNL     1      -0.164   0.448  24.404  0.00  0.00    +0.018 C 
ATOM     12  C   UNL     1      -0.738   0.941  24.691  0.00  0.00    +0.010 C 
ATOM     13  C   UNL     1      -0.980   0.720  25.526  0.00  0.00    +0.018 C 
ATOM     14  C   UNL     1      -0.643   0.663  24.969  0.00  0.00    +0.072 C 
ATOM     15  N   UNL     1      -0.424   0.992  23.998  0.00  0.00    -0.272 NA
ATOM     16  C   UNL     1      -0.858   1.710  23.638  0.00  0.00    +0.078 C 
ATOM     17  C   UNL     1      -1.151   1.630  24.339  0.00  0.00    +0.056 C 
ENDROOT
BRANCH  17  18
ATOM     18  C   UNL     1      -1.735   2.095  24.691  0.00  0.00    +0.063 A 
ATOM     19  C   UNL     1      -2.530   1.886  24.615  0.00  0.00    +0.034 A 
ATOM     20  C   UNL     1      -3.113   2.351  24.967  0.00  0.00    +0.084 A 
ATOM     21  N   UNL     1      -2.903   3.025  25.394  0.00  0.00    -0.231 NA
ATOM     22  C   UNL     1      -2.108   3.233  25.470  0.00  0.00    +0.139 A 
ATOM     23  C   UNL     1      -1.897   3.907  25.897  0.00  0.00    +0.074 C 
ATOM     24  N   UNL     1      -1.524   2.768  25.118  0.00  0.00    -0.235 NA
BRANCH  20  25
ATOM     25  C   UNL     1      -3.908   2.143  24.892  0.00  0.00    +0.024 A 
ATOM     26  C   UNL     1      -4.391   2.548  24.359  0.00  0.00    +0.036 A 
ATOM     27 BR   UNL     1      -4.080   3.160  23.902  0.00  0.00    -0.049 Br
ATOM     28  C   UNL     1      -5.186   2.340  24.284  0.00  0.00    +0.007 A 
ATOM     29  C   UNL     1      -5.498   1.728  24.741  0.00  0.00    +0.001 A 
ATOM     30  C   UNL     1      -5.015   1.324  25.273  0.00  0.00    +0.000 A 
ATOM     31  C   UNL     1      -4.220   1.531  25.349  0.00  0.00    +0.002 A 
ENDBRANCH  20  25
ENDBRANCH  17  18
BRANCH  10   9
ATOM      9  C   UNL     1       0.683   0.242  23.111  0.00  0.00    +0.131 C 
BRANCH   9   8
ATOM      6  C   UNL     1       2.018   0.078  22.629  0.00  0.00    +0.241 C 
ATOM      7  O   UNL     1       1.725  -0.173  21.901  0.00  0.00    -0.273 OA
ATOM      8  N   UNL     1       1.497   0.286  23.235  0.00  0.00    -0.204 NA
BRANCH   6   3
ATOM      3  C   UNL     1       2.832   0.123  22.753  0.00  0.00    +0.078 C 
BRANCH   3   2
ATOM      1  C   UNL     1       3.854  -0.647  23.389  0.00  0.00    +0.001 C 
ATOM      2  C   UNL     1       3.280  -0.568  22.802  0.00  0.00    +0.009 C 
ENDBRANCH   3   2
BRANCH   3   4
ATOM      4  C   UNL     1       3.199   0.858  22.829  0.00  0.00    +0.009 C 
ATOM      5  C   UNL     1       3.933   0.991  22.478  0.00  0.00    +0.001 C 
ENDBRANCH   3   4
ENDBRANCH   6   3
ENDBRANCH   9   8
ENDBRANCH  10   9
TORSDOF 7
ENDMDL
MODEL 5
REMARK VINA RESULT:     -10.0      2.051      2.700
REMARK  Name = 
REMARK  7 active torsions:
REMARK  status: ('A' for Active; 'I' for Inactive)
REMARK    1  A    between atoms: C_2  and  C_3
REMARK    2  A    between atoms: C_3  and  C_4
REMARK    3  A    between atoms: C_3  and  C_6
REMARK    4  A    between atoms: N_8  and  C_9
REMARK    5  A    between atoms: C_9  and  C_10
REMARK    6  A    between atoms: C_17  and  C_18
REMARK    7  A    between atoms: C_20  and  C_25
REMARK                            x       y       z     vdW  Elec       q    Type
REMARK                         _______ _______ _______ _____ _____    ______ ____
ROOT
ATOM     10  C   UNL     1      -3.887   0.270  23.845  0.00  0.00    +0.079 C 
ATOM     11  C   UNL     1      -3.780   0.957  23.495  0.00  0.00    +0.018 C 
ATOM     12  C   UNL     1      -3.650   1.663  23.871  0.00  0.00    +0.010 C 
ATOM     13  C   UNL     1      -3.550   2.338  23.288  0.00  0.00    +0.018 C 
ATOM     14  C   UNL     1      -3.651   1.718  23.470  0.00  0.00    +0.072 C 
ATOM     15  N   UNL     1      -3.754   0.993  24.220  0.00  0.00    -0.272 NA
ATOM     16  C   UNL     1      -3.692   1.221  25.102  0.00  0.00    +0.078 C 
ATOM     17  C   UNL     1      -3.591   1.874  24.720  0.00  0.00    +0.056 C 
ENDROOT
BRANCH  17  18
ATOM     18  C   UNL     1      -3.455   2.623  25.040  0.00  0.00    +0.063 A 
ATOM     19  C   UNL     1      -2.720   2.985  24.944  0.00  0.00    +0.034 A 
ATOM     20  C   UNL     1      -2.585   3.733  25.263  0.00  0.00    +0.084 A 
ATOM     21  N   UNL     1      -3.183   4.119  25.679  0.00  0.00    -0.231 NA
ATOM     22  C   UNL     1      -3.918   3.757  25.775  0.00  0.00    +0.139 A 
ATOM     23  C   UNL     1      -4.518   4.143  26.190  0.00  0.00    +0.074 C 
ATOM     24  N   UNL     1      -4.054   3.008  25.455  0.00  0.00    -0.235 NA
BRANCH  20  25
ATOM     25  C   UNL     1      -1.849   4.096  25.168  0.00  0.00    +0.024 A 
ATOM     26  C   UNL     1      -1.185   3.786  25.546  0.00  0.00    +0.036 A 
ATOM     27 BR   UNL     1      -1.255   3.115  26.020  0.00  0.00    -0.049 Br
ATOM     28  C   UNL     1      -0.450   4.148  25.451  0.00  0.00    +0.007 A 
ATOM     29  C   UNL     1      -0.380   4.820  24.977  0.00  0.00    +0.001 A 
ATOM     30  C   UNL     1      -1.044   5.129  24.599  0.00  0.00    +0.000 A 
ATOM     31  C   UNL     1      -1.780   4.767  24.694  0.00  0.00    +0.002 A 
ENDBRANCH  20  25
ENDBRANCH  17  18
BRANCH  10   9
ATOM      9  C   UNL     1      -4.026  -0.542  23.843  0.00  0.00    +0.131 C 
BRANCH   9   8
ATOM      6  C   UNL     1      -3.595  -1.871  24.143  0.00  0.00    +0.241 C 
ATOM      7  O   UNL     1      -4.261  -2.173  23.763  0.00  0.00    -0.273 OA
ATOM      8  N   UNL     1      -3.477  -1.055  24.183  0.00  0.00    -0.204 NA
BRANCH   6   3
ATOM      3  C   UNL     1      -3.047  -2.384  24.484  0.00  0.00    +0.078 C 
BRANCH   3   2
ATOM      1  C   UNL     1      -1.742  -2.883  24.184  0.00  0.00    +0.001 C 
ATOM      2  C   UNL     1      -2.239  -2.254  24.379  0.00  0.00    +0.009 C 
ENDBRANCH   3   2
BRANCH   3   4
ATOM      4  C   UNL     1      -3.306  -3.028  24.931  0.00  0.00    +0.009 C 
ATOM      5  C   UNL     1      -3.227  -3.018  25.752  0.00  0.00    +0.001 C 
ENDBRANCH   3   4
ENDBRANCH   6   3
ENDBRANCH   9   8
ENDBRANCH  10   9
TORSDOF 7
ENDMDL
MODEL 6
REMARK VINA RESULT:      -9.9      2.774      5.443
REMARK  Name = 
REMARK  7 active torsions:
REMARK  status: ('A' for Active; 'I' for Inactive)
REMARK    1  A    between atoms: C_2  and  C_3
REMARK    2  A    between atoms: C_3  and  C_4
REMARK    3  A    between atoms: C_3  and  C_6
REMARK    4  A    between atoms: N_8  and  C_9
REMARK    5  A    between atoms: C_9  and  C_10
REMARK    6  A    between atoms: C_17  and  C_18
REMARK    7  A    between atoms: C_20  and  C_25
REMARK                            x       y       z     vdW  Elec       q    Type
REMARK                         _______ _______ _______ _____ _____    ______ ____
ROOT
ATOM     10  C   UNL     1       0.963   0.226  23.126  0.00  0.00    +0.079 C 
ATOM     11  C   UNL     1       0.402   0.664  23.439  0.00  0.00    +0.018 C 
ATOM     12  C   UNL     1      -0.198   0.395  23.912  0.00  0.00    +0.010 C 
ATOM     13  C   UNL     1      -0.743   1.059  24.171  0.00  0.00    +0.018 C 
ATOM     14  C   UNL     1      -0.232   0.795  23.861  0.00  0.00    +0.072 C 
ATOM     15  N   UNL     1       0.349  -0.041  23.609  0.00  0.00    -0.272 NA
ATOM     16  C   UNL     1       0.132  -0.872  23.918  0.00  0.00    +0.078 C 
ATOM     17  C   UNL     1      -0.401  -0.407  24.206  0.00  0.00    +0.056 C 
ENDROOT
BRANCH  17  18
ATOM     18  C   UNL     1      -1.035  -0.615  24.691  0.00  0.00    +0.063 A 
ATOM     19  C   UNL     1      -1.742  -0.877  24.356  0.00  0.00    +0.034 A 
ATOM     20  C   UNL     1      -2.376  -1.085  24.842  0.00  0.00    +0.084 A 
ATOM     21  N   UNL     1      -2.303  -1.031  25.662  0.00  0.00    -0.231 NA
ATOM     22  C   UNL     1      -1.595  -0.770  25.996  0.00  0.00    +0.139 A 
ATOM     23  C   UNL     1      -1.522  -0.717  26.816  0.00  0.00    +0.074 C 
ATOM     24  N   UNL     1      -0.961  -0.562  25.510  0.00  0.00    -0.235 NA
BRANCH  20  25
ATOM     25  C   UNL     1      -3.084  -1.346  24.507  0.00  0.00    +0.024 A 
ATOM     26  C   UNL     1      -3.209  -2.153  24.388  0.00  0.00    +0.036 A 
ATOM     27 BR   UNL     1      -2.628  -2.698  24.603  0.00  0.00    -0.049 Br
ATOM     28  C   UNL     1      -3.916  -2.415  24.054  0.00  0.00    +0.007 A 
ATOM     29  C   UNL     1      -4.498  -1.870  23.839  0.00  0.00    +0.001 A 
ATOM     30  C   UNL     1      -4.372  -1.064  23.959  0.00  0.00    +0.000 A 
ATOM     31  C   UNL     1      -3.665  -0.802  24.293  0.00  0.00    +0.002 A 
ENDBRANCH  20  25
ENDBRANCH  17  18
BRANCH  10   9
ATOM      9  C   UNL     1       1.641   0.114  22.670  0.00  0.00    +0.131 C 
BRANCH   9   8
ATOM      6  C   UNL     1       3.066   0.114  22.565  0.00  0.00    +0.241 C 
ATOM      7  O   UNL     1       3.006   0.136  21.743  0.00  0.00    -0.273 OA
ATOM      8  N   UNL     1       2.383   0.103  23.029  0.00  0.00    -0.204 NA
BRANCH   6   3
ATOM      3  C   UNL     1       3.808   0.103  22.925  0.00  0.00    +0.078 C 
BRANCH   3   2
ATOM      1  C   UNL     1       4.927   0.904  23.308  0.00  0.00    +0.001 C 
ATOM      2  C   UNL     1       4.361   0.689  22.748  0.00  0.00    +0.009 C 
ENDBRANCH   3   2
BRANCH   3   4
ATOM      4  C   UNL     1       3.998  -0.495  23.461  0.00  0.00    +0.009 C 
ATOM      5  C   UNL     1       4.762  -0.805  23.480  0.00  0.00    +0.001 C 
ENDBRANCH   3   4
ENDBRANCH   6   3
ENDBRANCH   9   8
ENDBRANCH  10   9
TORSDOF 7
ENDMDL
