MODEL 1
REMARK VINA RESULT:     -12.8      0.000      0.000
REMARK  Name = 
REMARK  4 active torsions:
REMARK  status: ('A' for Active; 'I' for Inactive)
REMARK    1  A    between atoms: C_2  and  C_4
REMARK    2  A    between atoms: N_7  and  C_10
REMARK    3  A    between atoms: C_16  and  N_17
REMARK    4  A    between atoms: N_20  and  C_21
REMARK                            x       y       z     vdW  Elec       q    Type
REMARK                         _______ _______ _______ _____ _____    ______ ____
ROOT
ATOM     10  C   UNL     1      -3.631   2.353  24.771  0.00  0.00    +0.147 C 
ATOM     11  C   UNL     1      -3.784   3.058  24.121  0.00  0.00    +0.253 C 
ATOM     12  O   UNL     1      -3.287   3.779  24.009  0.00  0.00    -0.327 OA
ATOM     13  C   UNL     1      -3.496   3.147  24.299  0.00  0.00    +0.176 C 
ATOM     14  C   UNL     1      -4.021   2.574  24.279  0.00  0.00    +0.170 C 
ATOM     15  O   UNL     1      -4.466   2.769  23.758  0.00  0.00    -0.327 OA
ATOM     16  C   UNL     1      -3.887   1.892  24.895  0.00  0.00    +0.158 C 
ATOM     27  C   UNL     1      -3.201   2.184  25.258  0.00  0.00    +0.194 C 
ATOM     28  O   UNL     1      -2.556   2.229  25.770  0.00  0.00    -0.220 OA
ENDROOT
BRANCH  10   7
ATOM      4  C   UNL     1      -1.873   4.082  24.979  0.00  0.00    +0.083 C 
ATOM      5  C   UNL     1      -1.772   3.453  24.455  0.00  0.00    +0.027 C 
ATOM      6  C   UNL     1      -2.358   2.877  24.386  0.00  0.00    +0.073 C 
ATOM      7  N   UNL     1      -3.045   2.929  24.840  0.00  0.00    -0.268 NA
ATOM      8  C   UNL     1      -3.145   3.559  25.364  0.00  0.00    +0.073 C 
ATOM      9  C   UNL     1      -2.559   4.135  25.434  0.00  0.00    +0.027 C 
BRANCH   4   2
ATOM      1  N   UNL     1      -0.505   4.476  24.857  0.00  0.00    -0.088 NA
ATOM      2  C   UNL     1      -1.286   4.659  25.048  0.00  0.00    +0.260 C 
ATOM      3  O   UNL     1      -1.480   5.417  25.308  0.00  0.00    -0.272 OA
ENDBRANCH   4   2
ENDBRANCH  10   7
BRANCH  16  17
ATOM     17  N   UNL     1      -4.319   1.203  25.038  0.00  0.00    -0.183 NA
ATOM     18  C   UNL     1      -4.006   0.468  24.831  0.00  0.00    +0.344 C 
ATOM     19  O   UNL     1      -3.261   0.422  24.480  0.00  0.00    -0.249 OA
ATOM     20  N   UNL     1      -4.438  -0.219  24.974  0.00  0.00    -0.161 NA
BRANCH  20  21
ATOM     21  C   UNL     1      -4.125  -0.954  24.767  0.00  0.00    +0.075 A 
ATOM     22  C   UNL     1      -3.640  -1.360  25.296  0.00  0.00    +0.017 A 
ATOM     23  C   UNL     1      -3.327  -2.095  25.088  0.00  0.00    +0.001 A 
ATOM     24  C   UNL     1      -3.500  -2.423  24.351  0.00  0.00    +0.000 A 
ATOM     25  C   UNL     1      -3.985  -2.017  23.821  0.00  0.00    +0.001 A 
ATOM     26  C   UNL     1      -4.297  -1.282  24.029  0.00  0.00    +0.017 A 
ENDBRANCH  20  21
ENDBRANCH  16  17
TORSDOF 4
ENDMDL
MODEL 2
REMARK VINA RESULT:     -12.3      1.243      4.864
REMARK  Name = 
REMARK  4 active torsions:
REMARK  status: ('A' for Active; 'I' for Inactive)
REMARK    1  A    between atoms: C_2  and  C_4
REMARK    2  A    between atoms: N_7  and  C_10
REMARK    3  A    between atoms: C_16  and  N_17
REMARK    4  A    between atoms: N_20  and  C_21
REMARK                            x       y       z     vdW  Elec       q    Type
REMARK                         _______ _______ _______ _____ _____    ______ ____
ROOT
ATOM     10  C   UNL     1      -3.803   0.765  24.476  0.00  0.00    +0.147 C 
ATOM     11  C   UNL     1      -4.541   0.441  25.017  0.00  0.00    +0.253 C 
ATOM     12  O   UNL     1      -4.682  -0.396  25.257  0.00  0.00    -0.327 OA
ATOM     13  C   UNL     1      -4.345   0.162  24.938  0.00  0.00    +0.176 C 
ATOM     14  C   UNL     1      -4.355   0.929  24.809  0.00  0.00    +0.170 C 
ATOM     15  O   UNL     1      -4.938   1.152  25.152  0.00  0.00    -0.327 OA
ATOM     16  C   UNL     1      -3.654   1.252  24.292  0.00  0.00    +0.158 C 
ATOM     27  C   UNL     1      -3.257   0.538  24.158  0.00  0.00    +0.194 C 
ATOM     28  O   UNL     1      -2.689   0.009  23.879  0.00  0.00    -0.220 OA
ENDROOT
BRANCH  10   7
ATOM      4  C   UNL     1      -3.610  -1.683  24.781  0.00  0.00    +0.083 C 
ATOM      5  C   UNL     1      -3.295  -1.172  25.346  0.00  0.00    +0.027 C 
ATOM      6  C   UNL     1      -3.360  -0.356  25.244  0.00  0.00    +0.073 C 
ATOM      7  N   UNL     1      -3.739  -0.051  24.578  0.00  0.00    -0.268 NA
ATOM      8  C   UNL     1      -4.053  -0.564  24.013  0.00  0.00    +0.073 C 
ATOM      9  C   UNL     1      -3.989  -1.380  24.114  0.00  0.00    +0.027 C 
BRANCH   4   2
ATOM      1  N   UNL     1      -3.695  -3.008  24.251  0.00  0.00    -0.088 NA
ATOM      2  C   UNL     1      -3.545  -2.500  24.884  0.00  0.00    +0.260 C 
ATOM      3  O   UNL     1      -3.331  -2.809  25.618  0.00  0.00    -0.272 OA
ENDBRANCH   4   2
ENDBRANCH  10   7
BRANCH  16  17
ATOM     17  N   UNL     1      -3.480   2.020  24.043  0.00  0.00    -0.183 NA
ATOM     18  C   UNL     1      -2.896   2.457  24.428  0.00  0.00    +0.344 C 
ATOM     19  O   UNL     1      -2.486   2.127  25.064  0.00  0.00    -0.249 OA
ATOM     20  N   UNL     1      -2.722   3.223  24.179  0.00  0.00    -0.161 NA
BRANCH  20  21
ATOM     21  C   UNL     1      -2.138   3.660  24.564  0.00  0.00    +0.075 A 
ATOM     22  C   UNL     1      -1.342   3.516  24.404  0.00  0.00    +0.017 A 
ATOM     23  C   UNL     1      -0.757   3.954  24.790  0.00  0.00    +0.001 A 
ATOM     24  C   UNL     1      -0.971   4.535  25.336  0.00  0.00    +0.000 A 
ATOM     25  C   UNL     1      -1.767   4.679  25.496  0.00  0.00    +0.001 A 
ATOM     26  C   UNL     1      -2.351   4.241  25.110  0.00  0.00    +0.017 A 
ENDBRANCH  20  21
ENDBRANCH  16  17
TORSDOF 4
ENDMDL
MODEL 3
REMARK VINA RESULT:     -11.8      1.980      5.250
REMARK  Name = 
REMARK  4 active torsions:
REMARK  status: ('A' for Active; 'I' for Inactive)
REMARK    1  A    between atoms: C_2  and  C_4
REMARK    2  A    between atoms: N_7  and  C_10
REMARK    3  A    between atoms: C_16  and  N_17
REMARK    4  A    between atoms: N_20  and  C_21
REMARK                            x       y       z     vdW  Elec       q    Type
REMARK                         _______ _______ _______ _____ _____    ______ ____
ROOT
ATOM     10  C   UNL     1      -1.489   0.025  25.154  0.00  0.00    +0.147 C 
ATOM     11  C   UNL     1      -1.086  -0.637  24.569  0.00  0.00    +0.253 C 
ATOM     12  O   UNL     1      -1.492  -1.339  24.221  0.00  0.00    -0.327 OA
ATOM     13  C   UNL     1      -1.421  -0.733  24.613  0.00  0.00    +0.176 C 
ATOM     14  C   UNL     1      -0.935  -0.169  24.840  0.00  0.00    +0.170 C 
ATOM     15  O   UNL     1      -0.319  -0.337  24.524  0.00  0.00    -0.327 OA
ATOM     16  C   UNL     1      -1.307   0.472  25.401  0.00  0.00    +0.158 C 
ATOM     27  C   UNL     1      -2.077   0.167  25.444  0.00  0.00    +0.194 C 
ATOM     28  O   UNL     1      -2.871   0.100  25.657  0.00  0.00    -0.220 OA
ENDROOT
BRANCH  10   7
ATOM      4  C   UNL     1      -3.170  -1.683  24.534  0.00  0.00    +0.083 C 
ATOM      5  C   UNL     1      -3.072  -1.012  24.065  0.00  0.00    +0.027 C 
ATOM      6  C   UNL     1      -2.512  -0.442  24.272  0.00  0.00    +0.073 C 
ATOM      7  N   UNL     1      -2.049  -0.544  24.947  0.00  0.00    -0.268 NA
ATOM      8  C   UNL     1      -2.148  -1.216  25.417  0.00  0.00    +0.073 C 
ATOM      9  C   UNL     1      -2.708  -1.785  25.210  0.00  0.00    +0.027 C 
BRANCH   4   2
ATOM      1  N   UNL     1      -4.352  -2.053  23.821  0.00  0.00    -0.088 NA
ATOM      2  C   UNL     1      -3.731  -2.251  24.327  0.00  0.00    +0.260 C 
ATOM      3  O   UNL     1      -3.672  -3.018  24.625  0.00  0.00    -0.272 OA
ENDBRANCH   4   2
ENDBRANCH  10   7
BRANCH  16  17
ATOM     17  N   UNL     1      -0.973   1.141  25.750  0.00  0.00    -0.183 NA
ATOM     18  C   UNL     1      -1.204   1.894  25.505  0.00  0.00    +0.344 C 
ATOM     19  O   UNL     1      -1.770   1.978  24.910  0.00  0.00    -0.249 OA
ATOM     20  N   UNL     1      -0.870   2.562  25.853  0.00  0.00    -0.161 NA
BRANCH  20  21
ATOM     21  C   UNL     1      -1.101   3.315  25.608  0.00  0.00    +0.075 A 
ATOM     22  C   UNL     1      -1.805   3.642  25.887  0.00  0.00    +0.017 A 
ATOM     23  C   UNL     1      -2.036   4.396  25.642  0.00  0.00    +0.001 A 
ATOM     24  C   UNL     1      -1.563   4.821  25.117  0.00  0.00    +0.000 A 
ATOM     25  C   UNL     1      -0.859   4.494  24.837  0.00  0.00    +0.001 A 
ATOM     26  C   UNL     1      -0.628   3.741  25.083  0.00  0.00    +0.017 A 
ENDBRANCH  20  21
ENDBRANCH  16  17
TORSDOF 4
ENDMDL
MODEL 4
REMARK VINA RESULT:     -11.6      1.663      2.328
REMARK  Name = 
REMARK  4 active torsions:
REMARK  status: ('A' for Active; 'I' for Inactive)
REMARK    1  A    between atoms: C_2  and  C_4
REMARK    2  A    between atoms: N_7  and  C_10
REMARK    3  A    between atoms: C_16  and  N_17
REMARK    4  A    between atoms: N_20  and  C_21
REMARK                            x       y       z     vdW  Elec       q    Type
REMARK                         _______ _______ _______ _____ _____    ______ ____
ROOT
ATOM     10  C   UNL     1      -1.101   1.592  25.010  0.00  0.00    +0.147 C 
ATOM     11  C   UNL     1      -0.669   1.929  25.811  0.00  0.00    +0.253 C 
ATOM     12  O   UNL     1      -0.631   2.773  26.066  0.00  0.00    -0.327 OA
ATOM     13  C   UNL     1      -0.805   2.207  25.646  0.00  0.00    +0.176 C 
ATOM     14  C   UNL     1      -0.754   1.436  25.556  0.00  0.00    +0.170 C 
ATOM     15  O   UNL     1      -0.385   1.221  26.126  0.00  0.00    -0.327 OA
ATOM     16  C   UNL     1      -1.164   1.099  24.793  0.00  0.00    +0.158 C 
ATOM     27  C   UNL     1      -1.448   1.812  24.479  0.00  0.00    +0.194 C 
ATOM     28  O   UNL     1      -1.826   2.334  23.964  0.00  0.00    -0.220 OA
ENDROOT
BRANCH  10   7
ATOM      4  C   UNL     1      -1.362   4.050  25.133  0.00  0.00    +0.083 C 
ATOM      5  C   UNL     1      -1.913   3.558  25.500  0.00  0.00    +0.027 C 
ATOM      6  C   UNL     1      -1.826   2.739  25.459  0.00  0.00    +0.073 C 
ATOM      7  N   UNL     1      -1.188   2.411  25.051  0.00  0.00    -0.268 NA
ATOM      8  C   UNL     1      -0.637   2.904  24.684  0.00  0.00    +0.073 C 
ATOM      9  C   UNL     1      -0.724   3.723  24.725  0.00  0.00    +0.027 C 
BRANCH   4   2
ATOM      1  N   UNL     1      -0.859   5.363  24.876  0.00  0.00    -0.088 NA
ATOM      2  C   UNL     1      -1.449   4.869  25.175  0.00  0.00    +0.260 C 
ATOM      3  O   UNL     1      -2.126   5.196  25.514  0.00  0.00    -0.272 OA
ENDBRANCH   4   2
ENDBRANCH  10   7
BRANCH  16  17
ATOM     17  N   UNL     1      -1.226   0.325  24.513  0.00  0.00    -0.183 NA
ATOM     18  C   UNL     1      -1.929  -0.095  24.611  0.00  0.00    +0.344 C 
ATOM     19  O   UNL     1      -2.571   0.260  24.989  0.00  0.00    -0.249 OA
ATOM     20  N   UNL     1      -1.991  -0.868  24.331  0.00  0.00    -0.161 NA
BRANCH  20  21
ATOM     21  C   UNL     1      -2.694  -1.287  24.429  0.00  0.00    +0.075 A 
ATOM     22  C   UNL     1      -3.327  -1.159  23.916  0.00  0.00    +0.017 A 
ATOM     23  C   UNL     1      -4.031  -1.579  24.014  0.00  0.00    +0.001 A 
ATOM     24  C   UNL     1      -4.101  -2.127  24.627  0.00  0.00    +0.000 A 
ATOM     25  C   UNL     1      -3.468  -2.256  25.141  0.00  0.00    +0.001 A 
ATOM     26  C   UNL     1      -2.765  -1.836  25.042  0.00  0.00    +0.017 A 
ENDBRANCH  20  21
ENDBRANCH  16  17
TORSDOF 4
ENDMDL
