MODEL 1
REMARK VINA RESULT:     -13.8      0.000      0.000
REMARK  Name = 
REMARK  4 active torsions:
REMARK  status: ('A' for Active; 'I' for Inactive)
REMARK    1  A    between atoms: C_2  and  N_4
REMARK    2  A    between atoms: N_7  and  C_8
REMARK    3  A    between atoms: C_10  and  C_14
REMARK    4  A    between atoms: C_16  and  C_19
REMARK                            x       y       z     vdW  Elec       q    Type
REMARK                         _______ _______ _______ _____ _____    ______ ____
ROOT
ATOM     14  C   UNL     1      -4.418   1.808  25.124  0.00  0.00    +0.251 A 
ATOM     15  N   UNL     1      -3.972   1.131  25.276  0.00  0.00    -0.190 NA
ATOM     16  C   UNL     1      -4.369   0.486  24.950  0.00  0.00    +0.203 A 
ATOM     17  N   UNL     1      -5.061   0.763  24.596  0.00  0.00    -0.056 NA
ATOM     18  O   UNL     1      -5.091   1.581  24.704  0.00  0.00    -0.336 OA
ENDROOT
BRANCH  16  19
ATOM     19  C   UNL     1      -4.117  -0.300  24.973  0.00  0.00    +0.039 A 
ATOM     20  C   UNL     1      -4.267  -0.801  24.336  0.00  0.00    +0.003 A 
ATOM     21  C   UNL     1      -4.015  -1.585  24.360  0.00  0.00    +0.000 A 
ATOM     22  C   UNL     1      -4.165  -2.087  23.722  0.00  0.00    +0.000 A 
ATOM     23  C   UNL     1      -3.914  -2.872  23.746  0.00  0.00    +0.000 A 
ATOM     24  C   UNL     1      -3.511  -3.156  24.409  0.00  0.00    +0.000 A 
ATOM     25  C   UNL     1      -3.362  -2.656  25.046  0.00  0.00    +0.000 A 
ATOM     26  C   UNL     1      -3.613  -1.870  25.023  0.00  0.00    +0.000 A 
ATOM     27  C   UNL     1      -3.464  -1.369  25.660  0.00  0.00    +0.000 A 
ATOM     28  C   UNL     1      -3.715  -0.585  25.636  0.00  0.00    +0.003 A 
ENDBRANCH  16  19
BRANCH  14  10
ATOM      8  C   UNL     1      -3.531   3.656  25.717  0.00  0.00    +0.115 C 
ATOM      9  C   UNL     1      -3.467   2.861  25.509  0.00  0.00    +0.049 C 
ATOM     10  C   UNL     1      -4.226   2.578  25.352  0.00  0.00    +0.139 C 
ATOM     11  N   UNL     1      -4.759   3.198  25.463  0.00  0.00    -0.264 NA
ATOM     12  C   UNL     1      -5.577   3.158  25.366  0.00  0.00    +0.090 C 
ATOM     13  C   UNL     1      -4.329   3.865  25.689  0.00  0.00    +0.094 C 
BRANCH   8   7
ATOM      4  N   UNL     1      -1.695   4.828  25.567  0.00  0.00    -0.189 NA
ATOM      5  C   UNL     1      -2.319   4.328  25.364  0.00  0.00    +0.339 C 
ATOM      6  O   UNL     1      -2.357   3.998  24.609  0.00  0.00    -0.249 OA
ATOM      7  N   UNL     1      -2.906   4.157  25.918  0.00  0.00    -0.187 NA
BRANCH   4   2
ATOM      1  C   UNL     1      -1.097   5.733  24.636  0.00  0.00    +0.023 C 
ATOM      2  C   UNL     1      -1.108   4.999  25.013  0.00  0.00    +0.097 C 
ATOM      3  C   UNL     1      -0.532   4.436  24.835  0.00  0.00    +0.023 C 
ENDBRANCH   4   2
ENDBRANCH   8   7
ENDBRANCH  14  10
TORSDOF 4
ENDMDL
MODEL 2
REMARK VINA RESULT:     -12.8      2.311      3.131
REMARK  Name = 
REMARK  4 active torsions:
REMARK  status: ('A' for Active; 'I' for Inactive)
REMARK    1  A    between atoms: C_2  and  N_4
REMARK    2  A    between atoms: N_7  and  C_8
REMARK    3  A    between atoms: C_10  and  C_14
REMARK    4  A    between atoms: C_16  and  C_19
REMARK                            x       y       z     vdW  Elec       q    Type
REMARK                         _______ _______ _______ _____ _____    ______ ____
ROOT
ATOM     14  C   UNL     1      -0.614   0.202  24.918  0.00  0.00    +0.251 A 
ATOM     15  N   UNL     1      -1.328  -0.103  24.641  0.00  0.00    -0.190 NA
ATOM     16  C   UNL     1      -1.351  -0.907  24.828  0.00  0.00    +0.203 A 
ATOM     17  N   UNL     1      -0.651  -1.098  25.221  0.00  0.00    -0.056 NA
ATOM     18  O   UNL     1      -0.195  -0.412  25.276  0.00  0.00    -0.336 OA
ENDROOT
BRANCH  16  19
ATOM     19  C   UNL     1      -1.967  -1.427  24.653  0.00  0.00    +0.039 A 
ATOM     20  C   UNL     1      -2.701  -1.135  24.418  0.00  0.00    +0.003 A 
ATOM     21  C   UNL     1      -3.316  -1.655  24.244  0.00  0.00    +0.000 A 
ATOM     22  C   UNL     1      -4.051  -1.363  24.009  0.00  0.00    +0.000 A 
ATOM     23  C   UNL     1      -4.666  -1.883  23.834  0.00  0.00    +0.000 A 
ATOM     24  C   UNL     1      -4.546  -2.698  23.894  0.00  0.00    +0.000 A 
ATOM     25  C   UNL     1      -3.812  -2.991  24.129  0.00  0.00    +0.000 A 
ATOM     26  C   UNL     1      -3.197  -2.470  24.304  0.00  0.00    +0.000 A 
ATOM     27  C   UNL     1      -2.463  -2.763  24.538  0.00  0.00    +0.000 A 
ATOM     28  C   UNL     1      -1.848  -2.243  24.713  0.00  0.00    +0.003 A 
ENDBRANCH  16  19
BRANCH  14  10
ATOM      8  C   UNL     1      -0.192   2.288  25.078  0.00  0.00    +0.115 C 
ATOM      9  C   UNL     1      -0.567   1.606  25.350  0.00  0.00    +0.049 C 
ATOM     10  C   UNL     1      -0.361   0.985  24.848  0.00  0.00    +0.139 C 
ATOM     11  N   UNL     1       0.141   1.282  24.265  0.00  0.00    -0.264 NA
ATOM     12  C   UNL     1       0.479   0.850  23.649  0.00  0.00    +0.090 C 
ATOM     13  C   UNL     1       0.245   2.089  24.407  0.00  0.00    +0.094 C 
BRANCH   8   7
ATOM      4  N   UNL     1      -0.883   4.315  25.504  0.00  0.00    -0.189 NA
ATOM      5  C   UNL     1      -0.831   3.564  25.166  0.00  0.00    +0.339 C 
ATOM      6  O   UNL     1      -1.364   3.338  24.578  0.00  0.00    -0.249 OA
ATOM      7  N   UNL     1      -0.245   3.039  25.415  0.00  0.00    -0.187 NA
BRANCH   4   2
ATOM      1  C   UNL     1      -2.250   4.730  25.494  0.00  0.00    +0.023 C 
ATOM      2  C   UNL     1      -1.468   4.840  25.255  0.00  0.00    +0.097 C 
ATOM      3  C   UNL     1      -1.272   5.474  24.765  0.00  0.00    +0.023 C 
ENDBRANCH   4   2
ENDBRANCH   8   7
ENDBRANCH  14  10
TORSDOF 4
ENDMDL
MODEL 3
REMARK VINA RESULT:     -12.4      2.681      6.314
REMARK  Name = 
REMARK  4 active torsions:
REMARK  status: ('A' for Active; 'I' for Inactive)
REMARK    1  A    between atoms: C_2  and  N_4
REMARK    2  A    between atoms: N_7  and  C_8
REMARK    3  A    between atoms: C_10  and  C_14
REMARK    4  A    between atoms: C_16  and  C_19
REMARK                            x       y       z     vdW  Elec       q    Type
REMARK                         _______ _______ _______ _____ _____    ______ ____
ROOT
ATOM     14  C   UNL     1      -0.139   1.024  24.622  0.00  0.00    +0.251 A 
ATOM     15  N   UNL     1      -0.707   1.621  24.660  0.00  0.00    -0.190 NA
ATOM     16  C   UNL     1      -0.322   2.327  24.846  0.00  0.00    +0.203 A 
ATOM     17  N   UNL     1       0.484   2.166  24.924  0.00  0.00    -0.056 NA
ATOM     18  O   UNL     1       0.597   1.360  24.785  0.00  0.00    -0.336 OA
ENDROOT
BRANCH  16  19
ATOM     19  C   UNL     1      -0.681   3.065  24.938  0.00  0.00    +0.039 A 
ATOM     20  C   UNL     1      -1.395   3.128  25.344  0.00  0.00    +0.003 A 
ATOM     21  C   UNL     1      -1.753   3.865  25.436  0.00  0.00    +0.000 A 
ATOM     22  C   UNL     1      -2.469   3.929  25.843  0.00  0.00    +0.000 A 
ATOM     23  C   UNL     1      -2.827   4.666  25.935  0.00  0.00    +0.000 A 
ATOM     24  C   UNL     1      -2.470   5.341  25.620  0.00  0.00    +0.000 A 
ATOM     25  C   UNL     1      -1.755   5.277  25.214  0.00  0.00    +0.000 A 
ATOM     26  C   UNL     1      -1.396   4.540  25.121  0.00  0.00    +0.000 A 
ATOM     27  C   UNL     1      -0.682   4.476  24.715  0.00  0.00    +0.000 A 
ATOM     28  C   UNL     1      -0.323   3.739  24.623  0.00  0.00    +0.003 A 
ENDBRANCH  16  19
BRANCH  14  10
ATOM      8  C   UNL     1      -0.746  -1.020  24.520  0.00  0.00    +0.115 C 
ATOM      9  C   UNL     1      -0.762  -0.281  24.886  0.00  0.00    +0.049 C 
ATOM     10  C   UNL     1      -0.281   0.229  24.451  0.00  0.00    +0.139 C 
ATOM     11  N   UNL     1       0.034  -0.194  23.817  0.00  0.00    -0.264 NA
ATOM     12  C   UNL     1       0.545   0.102  23.242  0.00  0.00    +0.090 C 
ATOM     13  C   UNL     1      -0.254  -0.967  23.859  0.00  0.00    +0.094 C 
BRANCH   8   7
ATOM      4  N   UNL     1      -2.369  -2.424  24.915  0.00  0.00    -0.189 NA
ATOM      5  C   UNL     1      -1.966  -1.749  24.665  0.00  0.00    +0.339 C 
ATOM      6  O   UNL     1      -2.379  -1.128  24.311  0.00  0.00    -0.249 OA
ATOM      7  N   UNL     1      -1.150  -1.694  24.770  0.00  0.00    -0.187 NA
BRANCH   4   2
ATOM      1  C   UNL     1      -3.696  -2.125  25.354  0.00  0.00    +0.023 C 
ATOM      2  C   UNL     1      -3.186  -2.478  24.811  0.00  0.00    +0.097 C 
ATOM      3  C   UNL     1      -3.493  -2.887  24.163  0.00  0.00    +0.023 C 
ENDBRANCH   4   2
ENDBRANCH   8   7
ENDBRANCH  14  10
TORSDOF 4
ENDMDL
MODEL 4
REMARK VINA RESULT:     -11.5      1.294      5.554
REMARK  Name = 
REMARK  4 active torsions:
REMARK  status: ('A' for Active; 'I' for Inactive)
REMARK    1  A    between atoms: C_2  and  N_4
REMARK    2  A    between atoms: N_7  and  C_8
REMARK    3  A    between atoms: C_10  and  C_14
REMARK    4  A    between atoms: C_16  and  C_19
REMARK                            x       y       z     vdW  Elec       q    Type
REMARK                         _______ _______ _______ _____ _____    ______ ____
ROOT
ATOM     14  C   UNL     1      -4.234   1.925  24.567  0.00  0.00    +0.251 A 
ATOM     15  N   UNL     1      -3.519   2.258  24.809  0.00  0.00    -0.190 NA
ATOM     16  C   UNL     1      -3.548   3.067  24.646  0.00  0.00    +0.203 A 
ATOM     17  N   UNL     1      -4.281   3.233  24.304  0.00  0.00    -0.056 NA
ATOM     18  O   UNL     1      -4.705   2.527  24.256  0.00  0.00    -0.336 OA
ENDROOT
BRANCH  16  19
ATOM     19  C   UNL     1      -2.948   3.613  24.799  0.00  0.00    +0.039 A 
ATOM     20  C   UNL     1      -2.182   3.471  24.530  0.00  0.00    +0.003 A 
ATOM     21  C   UNL     1      -1.584   4.017  24.683  0.00  0.00    +0.000 A 
ATOM     22  C   UNL     1      -0.817   3.876  24.414  0.00  0.00    +0.000 A 
ATOM     23  C   UNL     1      -0.218   4.422  24.567  0.00  0.00    +0.000 A 
ATOM     24  C   UNL     1      -0.386   5.111  24.990  0.00  0.00    +0.000 A 
ATOM     25  C   UNL     1      -1.152   5.252  25.259  0.00  0.00    +0.000 A 
ATOM     26  C   UNL     1      -1.752   4.706  25.106  0.00  0.00    +0.000 A 
ATOM     27  C   UNL     1      -2.518   4.848  25.376  0.00  0.00    +0.000 A 
ATOM     28  C   UNL     1      -3.116   4.302  25.223  0.00  0.00    +0.003 A 
ENDBRANCH  16  19
BRANCH  14  10
ATOM      8  C   UNL     1      -4.474  -0.192  24.439  0.00  0.00    +0.115 C 
ATOM      9  C   UNL     1      -4.097   0.505  24.211  0.00  0.00    +0.049 C 
ATOM     10  C   UNL     1      -4.443   1.128  24.626  0.00  0.00    +0.139 C 
ATOM     11  N   UNL     1      -5.033   0.817  25.112  0.00  0.00    -0.264 NA
ATOM     12  C   UNL     1      -5.518   1.246  25.623  0.00  0.00    +0.090 C 
ATOM     13  C   UNL     1      -5.052  -0.000  24.996  0.00  0.00    +0.094 C 
BRANCH   8   7
ATOM      4  N   UNL     1      -3.560  -2.166  24.256  0.00  0.00    -0.189 NA
ATOM      5  C   UNL     1      -3.730  -1.409  24.536  0.00  0.00    +0.339 C 
ATOM      6  O   UNL     1      -3.327  -1.110  25.191  0.00  0.00    -0.249 OA
ATOM      7  N   UNL     1      -4.303  -0.950  24.160  0.00  0.00    -0.187 NA
BRANCH   4   2
ATOM      1  C   UNL     1      -2.197  -2.571  24.400  0.00  0.00    +0.023 C 
ATOM      2  C   UNL     1      -2.987  -2.625  24.632  0.00  0.00    +0.097 C 
ATOM      3  C   UNL     1      -3.204  -3.139  25.240  0.00  0.00    +0.023 C 
ENDBRANCH   4   2
ENDBRANCH   8   7
ENDBRANCH  14  10
TORSDOF 4
ENDMDL
MODEL 5
REMARK VINA RESULT:     -11.2      3.824      5.161
REMARK  Name = 
REMARK  4 active torsions:
REMARK  status: ('A' for Active; 'I' for Inactive)
REMARK    1  A    between atoms: C_2  and  N_4
REMARK    2  A    between atoms: N_7  and  C_8
REMARK    3  A    between atoms: C_10  and  C_14
REMARK    4  A    between atoms: C_16  and  C_19
REMARK                            x       y       z     vdW  Elec       q    Type
REMARK                         _______ _______ _______ _____ _____    ______ ____
ROOT
ATOM     14  C   UNL     1      -0.943   0.858  24.465  0.00  0.00    +0.251 A 
ATOM     15  N   UNL     1      -1.719   1.001  24.226  0.00  0.00    -0.190 NA
ATOM     16  C   UNL     1      -2.066   1.507  24.779  0.00  0.00    +0.203 A 
ATOM     17  N   UNL     1      -1.503   1.677  25.358  0.00  0.00    -0.056 NA
ATOM     18  O   UNL     1      -0.808   1.275  25.163  0.00  0.00    -0.336 OA
ENDROOT
BRANCH  16  19
ATOM     19  C   UNL     1      -2.840   1.793  24.755  0.00  0.00    +0.039 A 
ATOM     20  C   UNL     1      -3.470   1.296  24.942  0.00  0.00    +0.003 A 
ATOM     21  C   UNL     1      -4.242   1.582  24.918  0.00  0.00    +0.000 A 
ATOM     22  C   UNL     1      -4.873   1.084  25.105  0.00  0.00    +0.000 A 
ATOM     23  C   UNL     1      -5.646   1.370  25.081  0.00  0.00    +0.000 A 
ATOM     24  C   UNL     1      -5.789   2.156  24.870  0.00  0.00    +0.000 A 
ATOM     25  C   UNL     1      -5.159   2.653  24.683  0.00  0.00    +0.000 A 
ATOM     26  C   UNL     1      -4.385   2.367  24.707  0.00  0.00    +0.000 A 
ATOM     27  C   UNL     1      -3.755   2.865  24.520  0.00  0.00    +0.000 A 
ATOM     28  C   UNL     1      -2.983   2.579  24.544  0.00  0.00    +0.003 A 
ENDBRANCH  16  19
BRANCH  14  10
ATOM      8  C   UNL     1       0.583  -0.024  23.261  0.00  0.00    +0.115 C 
ATOM      9  C   UNL     1       0.147   0.633  23.504  0.00  0.00    +0.049 C 
ATOM     10  C   UNL     1      -0.395   0.381  24.073  0.00  0.00    +0.139 C 
ATOM     11  N   UNL     1      -0.295  -0.431  24.180  0.00  0.00    -0.264 NA
ATOM     12  C   UNL     1      -0.723  -0.908  24.699  0.00  0.00    +0.090 C 
ATOM     13  C   UNL     1       0.311  -0.681  23.678  0.00  0.00    +0.094 C 
BRANCH   8   7
ATOM      4  N   UNL     1       2.560   0.169  22.356  0.00  0.00    -0.189 NA
ATOM      5  C   UNL     1       1.958   0.170  22.919  0.00  0.00    +0.339 C 
ATOM      6  O   UNL     1       2.125   0.363  23.704  0.00  0.00    -0.249 OA
ATOM      7  N   UNL     1       1.187  -0.024  22.698  0.00  0.00    -0.187 NA
BRANCH   4   2
ATOM      1  C   UNL     1       3.841  -0.224  22.853  0.00  0.00    +0.023 C 
ATOM      2  C   UNL     1       3.331   0.363  22.577  0.00  0.00    +0.097 C 
ATOM      3  C   UNL     1       3.593   1.144  22.522  0.00  0.00    +0.023 C 
ENDBRANCH   4   2
ENDBRANCH   8   7
ENDBRANCH  14  10
TORSDOF 4
ENDMDL
MODEL 6
REMARK VINA RESULT:     -10.8      2.731      4.818
REMARK  Name = 
REMARK  4 active torsions:
REMARK  status: ('A' for Active; 'I' for Inactive)
REMARK    1  A    between atoms: C_2  and  N_4
REMARK    2  A    between atoms: N_7  and  C_8
REMARK    3  A    between atoms: C_10  and  C_14
REMARK    4  A    between atoms: C_16  and  C_19
REMARK                            x       y       z     vdW  Elec       q    Type
REMARK                         _______ _______ _______ _____ _____    ______ ____
ROOT
ATOM     14  C   UNL     1      -3.154  -0.518  24.521  0.00  0.00    +0.251 A 
ATOM     15  N   UNL     1      -3.332   0.211  24.865  0.00  0.00    -0.190 NA
ATOM     16  C   UNL     1      -4.126   0.377  24.712  0.00  0.00    +0.203 A 
ATOM     17  N   UNL     1      -4.439  -0.250  24.274  0.00  0.00    -0.056 NA
ATOM     18  O   UNL     1      -3.837  -0.803  24.156  0.00  0.00    -0.336 OA
ENDROOT
BRANCH  16  19
ATOM     19  C   UNL     1      -4.536   1.051  24.954  0.00  0.00    +0.039 A 
ATOM     20  C   UNL     1      -4.207   1.798  24.838  0.00  0.00    +0.003 A 
ATOM     21  C   UNL     1      -4.616   2.471  25.081  0.00  0.00    +0.000 A 
ATOM     22  C   UNL     1      -4.288   3.219  24.965  0.00  0.00    +0.000 A 
ATOM     23  C   UNL     1      -4.697   3.892  25.207  0.00  0.00    +0.000 A 
ATOM     24  C   UNL     1      -5.437   3.818  25.567  0.00  0.00    +0.000 A 
ATOM     25  C   UNL     1      -5.766   3.071  25.683  0.00  0.00    +0.000 A 
ATOM     26  C   UNL     1      -5.356   2.397  25.440  0.00  0.00    +0.000 A 
ATOM     27  C   UNL     1      -5.685   1.650  25.557  0.00  0.00    +0.000 A 
ATOM     28  C   UNL     1      -5.276   0.977  25.314  0.00  0.00    +0.003 A 
ENDBRANCH  16  19
BRANCH  14  10
ATOM      8  C   UNL     1      -1.104  -1.113  24.523  0.00  0.00    +0.115 C 
ATOM      9  C   UNL     1      -1.685  -0.529  24.478  0.00  0.00    +0.049 C 
ATOM     10  C   UNL     1      -2.421  -0.896  24.540  0.00  0.00    +0.139 C 
ATOM     11  N   UNL     1      -2.296  -1.707  24.623  0.00  0.00    -0.264 NA
ATOM     12  C   UNL     1      -2.881  -2.283  24.702  0.00  0.00    +0.090 C 
ATOM     13  C   UNL     1      -1.481  -1.842  24.613  0.00  0.00    +0.094 C 
BRANCH   8   7
ATOM      4  N   UNL     1       0.848  -0.415  23.840  0.00  0.00    -0.189 NA
ATOM      5  C   UNL     1       0.033  -0.537  23.877  0.00  0.00    +0.339 C 
ATOM      6  O   UNL     1      -0.461  -0.203  23.306  0.00  0.00    -0.249 OA
ATOM      7  N   UNL     1      -0.289  -0.992  24.485  0.00  0.00    -0.187 NA
BRANCH   4   2
ATOM      1  C   UNL     1       1.330   0.840  23.355  0.00  0.00    +0.023 C 
ATOM      2  C   UNL     1       1.170   0.040  23.232  0.00  0.00    +0.097 C 
ATOM      3  C   UNL     1       1.332  -0.305  22.500  0.00  0.00    +0.023 C 
ENDBRANCH   4   2
ENDBRANCH   8   7
ENDBRANCH  14  10
TORSDOF 4
ENDMDL
