REMARK  Name = 
REMARK  8 active torsions:
REMARK  status: ('A' for Active; 'I' for Inactive)
REMARK    1  A    between atoms: C_2  and  C_4
REMARK    2  A    between atoms: C_4  and  C_5
REMARK    3  A    between atoms: C_10  and  C_11
REMARK    4  A    between atoms: C_11  and  C_12
REMARK    5  A    between atoms: C_12  and  N_13
REMARK    6  A    between atoms: C_27  and  C_29
REMARK    7  A    between atoms: C_29  and  O_30
REMARK    8  A    between atoms: O_30  and  C_31
REMARK                            x       y       z     vdW  Elec       q    Type
REMARK                         _______ _______ _______ _____ _____    ______ ____
ROOT
ATOM      5  C   UNL     1       1.602  -3.283   0.000  0.00  0.00    +0.015 C 
ATOM      6  C   UNL     1       2.340  -3.650   0.000  0.00  0.00    +0.022 C 
ATOM      7  C   UNL     1       2.391  -4.474   0.000  0.00  0.00    +0.094 C 
ATOM      8  N   UNL     1       1.703  -4.929   0.000  0.00  0.00    -0.277 N 
ATOM      9  C   UNL     1       0.965  -4.562   0.000  0.00  0.00    +0.094 C 
ATOM     10  C   UNL     1       0.914  -3.738   0.000  0.00  0.00    +0.022 C 
ATOM     27  C   UNL     1       1.754  -5.753   0.000  0.00  0.00    +0.270 C 
ATOM     28  O   UNL     1       2.493  -6.121   0.000  0.00  0.00    -0.271 OA
ENDROOT
BRANCH   5   4
ATOM      4  C   UNL     1       1.551  -2.459   0.000  0.00  0.00    +0.114 C 
BRANCH   4   2
ATOM      1  O   UNL     1       2.977  -2.371   0.000  0.00  0.00    -0.246 OA
ATOM      2  C   UNL     1       2.239  -2.004   0.000  0.00  0.00    +0.365 C 
ATOM      3  O   UNL     1       2.188  -1.180   0.000  0.00  0.00    -0.246 OA
ENDBRANCH   4   2
ENDBRANCH   5   4
BRANCH  10  11
ATOM     11  C   UNL     1       0.176  -3.370   0.000  0.00  0.00    +0.019 C 
BRANCH  11  12
ATOM     12  C   UNL     1       0.125  -2.547   0.000  0.00  0.00    +0.072 C 
BRANCH  12  13
ATOM     13  N   UNL     1       0.813  -2.091   0.000  0.00  0.00    -0.272 NA
ATOM     14  C   UNL     1       1.629  -1.912   0.000  0.00  0.00    +0.074 C 
ATOM     15  C   UNL     1       1.582  -0.925   0.000  0.00  0.00    +0.039 C 
ATOM     16  C   UNL     1       1.713  -0.121   0.000  0.00  0.00    +0.011 C 
ATOM     17  C   UNL     1       1.163  -0.557   0.000  0.00  0.00    +0.054 C 
ATOM     18  C   UNL     1       1.225  -1.510   0.000  0.00  0.00    +0.078 C 
ATOM     19  C   UNL     1       0.244  -0.558   0.000  0.00  0.00    +0.041 A 
ATOM     20  C   UNL     1      -0.397  -0.039   0.000  0.00  0.00    +0.013 A 
ATOM     21  C   UNL     1      -1.167  -0.335   0.000  0.00  0.00    +0.006 A 
ATOM     22  C   UNL     1      -1.296  -1.150   0.000  0.00  0.00    +0.061 A 
ATOM     23  C   UNL     1      -0.655  -1.669   0.000  0.00  0.00    +0.261 A 
ATOM     24  O   UNL     1      -0.784  -2.484   0.000  0.00  0.00    -0.267 OA
ATOM     25  N   UNL     1       0.115  -1.373   0.000  0.00  0.00    -0.299 N 
ATOM     26  C   UNL     1       0.622  -0.936   0.000  0.00  0.00    +0.110 C 
ENDBRANCH  12  13
ENDBRANCH  11  12
ENDBRANCH  10  11
BRANCH  27  29
ATOM     29  C   UNL     1       1.066  -6.209   0.000  0.00  0.00    +0.290 C 
BRANCH  29  30
ATOM     30  O   UNL     1       1.117  -7.032   0.000  0.00  0.00    -0.466 OA
BRANCH  30  31
ATOM     31  C   UNL     1       1.855  -7.400   0.000  0.00  0.00    +0.139 A 
ATOM     32  C   UNL     1       2.543  -6.944   0.000  0.00  0.00    +0.037 A 
ATOM     33  C   UNL     1       3.282  -7.312   0.000  0.00  0.00    +0.003 A 
ATOM     34  C   UNL     1       3.332  -8.135   0.000  0.00  0.00    +0.000 A 
ATOM     35  C   UNL     1       2.645  -8.591   0.000  0.00  0.00    +0.003 A 
ATOM     36  C   UNL     1       1.906  -8.223   0.000  0.00  0.00    +0.037 A 
ENDBRANCH  30  31
ENDBRANCH  29  30
ENDBRANCH  27  29
TORSDOF 8
