MODEL 1
REMARK VINA RESULT:     -11.9      0.000      0.000
REMARK  Name = 
REMARK  4 active torsions:
REMARK  status: ('A' for Active; 'I' for Inactive)
REMARK    1  A    between atoms: C_4  and  C_15
REMARK    2  A    between atoms: N_5  and  C_6
REMARK    3  A    between atoms: C_6  and  C_7
REMARK    4  A    between atoms: C_17  and  C_20
REMARK                            x       y       z     vdW  Elec       q    Type
REMARK                         _______ _______ _______ _____ _____    ______ ____
ROOT
ATOM      1  O   UNL     1      -6.224   1.312  25.549  0.00  0.00    -0.222 OA
ATOM      2  C   UNL     1      -5.463   1.318  25.231  0.00  0.00    +0.170 C 
ATOM      3  C   UNL     1      -5.029   1.989  25.026  0.00  0.00    +0.060 C 
ATOM      4  C   UNL     1      -4.300   1.739  24.731  0.00  0.00    +0.140 C 
ATOM      5  N   UNL     1      -4.284   0.915  24.754  0.00  0.00    -0.260 NA
ATOM     14  C   UNL     1      -5.003   0.655  25.064  0.00  0.00    +0.106 C 
ENDROOT
BRANCH   4  15
ATOM     15  C   UNL     1      -3.694   2.228  24.460  0.00  0.00    +0.251 A 
ATOM     16  N   UNL     1      -3.168   2.656  24.931  0.00  0.00    -0.190 NA
ATOM     17  C   UNL     1      -2.656   3.068  24.432  0.00  0.00    +0.205 A 
ATOM     18  N   UNL     1      -2.865   2.896  23.653  0.00  0.00    -0.056 NA
ATOM     19  O   UNL     1      -3.506   2.377  23.670  0.00  0.00    -0.336 OA
BRANCH  17  20
ATOM     20  C   UNL     1      -2.042   3.566  24.671  0.00  0.00    +0.058 A 
ATOM     21  C   UNL     1      -2.213   4.305  24.993  0.00  0.00    +0.006 A 
ATOM     22  C   UNL     1      -1.600   4.802  25.232  0.00  0.00    +0.021 A 
ATOM     23  C   UNL     1      -0.815   4.560  25.148  0.00  0.00    +0.099 A 
ATOM     24  N   UNL     1      -0.645   3.820  24.826  0.00  0.00    -0.242 NA
ATOM     25  C   UNL     1      -1.258   3.323  24.587  0.00  0.00    +0.102 A 
ENDBRANCH  17  20
ENDBRANCH   4  15
BRANCH   5   6
ATOM      6  C   UNL     1      -3.659   0.435  24.511  0.00  0.00    +0.100 C 
BRANCH   6   7
ATOM      7  C   UNL     1      -3.675  -0.375  24.668  0.00  0.00    -0.006 A 
ATOM      8  C   UNL     1      -3.974  -0.898  24.104  0.00  0.00    -0.001 A 
ATOM      9  C   UNL     1      -3.990  -1.709  24.262  0.00  0.00    +0.029 A 
ATOM     10  C   UNL     1      -3.708  -1.994  24.981  0.00  0.00    +0.140 A 
ATOM     11  F   UNL     1      -3.724  -2.805  25.138  0.00  0.00    -0.204 F 
ATOM     12  C   UNL     1      -3.409  -1.471  25.545  0.00  0.00    +0.029 A 
ATOM     13  C   UNL     1      -3.393  -0.661  25.388  0.00  0.00    -0.001 A 
ENDBRANCH   6   7
ENDBRANCH   5   6
TORSDOF 4
ENDMDL
MODEL 2
REMARK VINA RESULT:     -11.8      2.036      4.695
REMARK  Name = 
REMARK  4 active torsions:
REMARK  status: ('A' for Active; 'I' for Inactive)
REMARK    1  A    between atoms: C_4  and  C_15
REMARK    2  A    between atoms: N_5  and  C_6
REMARK    3  A    between atoms: C_6  and  C_7
REMARK    4  A    between atoms: C_17  and  C_20
REMARK                            x       y       z     vdW  Elec       q    Type
REMARK                         _______ _______ _______ _____ _____    ______ ____
ROOT
ATOM      1  O   UNL     1      -5.740   3.368  25.758  0.00  0.00    -0.222 OA
ATOM      2  C   UNL     1      -5.104   2.925  25.474  0.00  0.00    +0.170 C 
ATOM      3  C   UNL     1      -5.146   2.160  25.168  0.00  0.00    +0.060 C 
ATOM      4  C   UNL     1      -4.383   1.931  24.951  0.00  0.00    +0.140 C 
ATOM      5  N   UNL     1      -3.871   2.555  25.123  0.00  0.00    -0.260 NA
ATOM     14  C   UNL     1      -4.318   3.169  25.447  0.00  0.00    +0.106 C 
ENDROOT
BRANCH   4  15
ATOM     15  C   UNL     1      -4.170   1.207  24.620  0.00  0.00    +0.251 A 
ATOM     16  N   UNL     1      -4.137   0.484  25.016  0.00  0.00    -0.190 NA
ATOM     17  C   UNL     1      -3.899  -0.093  24.475  0.00  0.00    +0.205 A 
ATOM     18  N   UNL     1      -3.786   0.274  23.745  0.00  0.00    -0.056 NA
ATOM     19  O   UNL     1      -3.953   1.077  23.834  0.00  0.00    -0.336 OA
BRANCH  17  20
ATOM     20  C   UNL     1      -3.794  -0.895  24.636  0.00  0.00    +0.058 A 
ATOM     21  C   UNL     1      -3.995  -1.460  24.069  0.00  0.00    +0.006 A 
ATOM     22  C   UNL     1      -3.890  -2.261  24.230  0.00  0.00    +0.021 A 
ATOM     23  C   UNL     1      -3.583  -2.499  24.958  0.00  0.00    +0.099 A 
ATOM     24  N   UNL     1      -3.381  -1.935  25.525  0.00  0.00    -0.242 NA
ATOM     25  C   UNL     1      -3.487  -1.132  25.364  0.00  0.00    +0.102 A 
ENDBRANCH  17  20
ENDBRANCH   4  15
BRANCH   5   6
ATOM      6  C   UNL     1      -3.057   2.564  24.995  0.00  0.00    +0.100 C 
BRANCH   6   7
ATOM      7  C   UNL     1      -2.628   3.258  25.111  0.00  0.00    -0.006 A 
ATOM      8  C   UNL     1      -2.203   3.369  25.810  0.00  0.00    -0.001 A 
ATOM      9  C   UNL     1      -1.773   4.065  25.925  0.00  0.00    +0.029 A 
ATOM     10  C   UNL     1      -1.770   4.648  25.343  0.00  0.00    +0.140 A 
ATOM     11  F   UNL     1      -1.341   5.344  25.459  0.00  0.00    -0.204 F 
ATOM     12  C   UNL     1      -2.196   4.538  24.644  0.00  0.00    +0.029 A 
ATOM     13  C   UNL     1      -2.624   3.843  24.529  0.00  0.00    -0.001 A 
ENDBRANCH   6   7
ENDBRANCH   5   6
TORSDOF 4
ENDMDL
MODEL 3
REMARK VINA RESULT:     -11.5      2.058      2.905
REMARK  Name = 
REMARK  4 active torsions:
REMARK  status: ('A' for Active; 'I' for Inactive)
REMARK    1  A    between atoms: C_4  and  C_15
REMARK    2  A    between atoms: N_5  and  C_6
REMARK    3  A    between atoms: C_6  and  C_7
REMARK    4  A    between atoms: C_17  and  C_20
REMARK                            x       y       z     vdW  Elec       q    Type
REMARK                         _______ _______ _______ _____ _____    ______ ____
ROOT
ATOM      1  O   UNL     1       0.135  -0.738  23.682  0.00  0.00    -0.222 OA
ATOM      2  C   UNL     1      -0.356  -0.253  24.135  0.00  0.00    +0.170 C 
ATOM      3  C   UNL     1      -0.163   0.494  24.425  0.00  0.00    +0.060 C 
ATOM      4  C   UNL     1      -0.814   0.778  24.847  0.00  0.00    +0.140 C 
ATOM      5  N   UNL     1      -1.407   0.205  24.817  0.00  0.00    -0.260 NA
ATOM     14  C   UNL     1      -1.123  -0.432  24.377  0.00  0.00    +0.106 C 
ENDROOT
BRANCH   4  15
ATOM     15  C   UNL     1      -0.861   1.506  25.231  0.00  0.00    +0.251 A 
ATOM     16  N   UNL     1      -1.110   2.217  24.895  0.00  0.00    -0.190 NA
ATOM     17  C   UNL     1      -1.072   2.802  25.476  0.00  0.00    +0.205 A 
ATOM     18  N   UNL     1      -0.799   2.453  26.171  0.00  0.00    -0.056 NA
ATOM     19  O   UNL     1      -0.669   1.652  26.021  0.00  0.00    -0.336 OA
BRANCH  17  20
ATOM     20  C   UNL     1      -1.271   3.597  25.378  0.00  0.00    +0.058 A 
ATOM     21  C   UNL     1      -0.739   4.114  25.016  0.00  0.00    +0.006 A 
ATOM     22  C   UNL     1      -0.939   4.908  24.918  0.00  0.00    +0.021 A 
ATOM     23  C   UNL     1      -1.669   5.186  25.182  0.00  0.00    +0.099 A 
ATOM     24  N   UNL     1      -2.201   4.669  25.543  0.00  0.00    -0.242 NA
ATOM     25  C   UNL     1      -2.002   3.874  25.641  0.00  0.00    +0.102 A 
ENDBRANCH  17  20
ENDBRANCH   4  15
BRANCH   5   6
ATOM      6  C   UNL     1      -2.152   0.260  25.166  0.00  0.00    +0.100 C 
BRANCH   6   7
ATOM      7  C   UNL     1      -2.753  -0.255  24.938  0.00  0.00    -0.006 A 
ATOM      8  C   UNL     1      -2.874  -0.958  25.353  0.00  0.00    -0.001 A 
ATOM      9  C   UNL     1      -3.477  -1.474  25.124  0.00  0.00    +0.029 A 
ATOM     10  C   UNL     1      -3.957  -1.287  24.481  0.00  0.00    +0.140 A 
ATOM     11  F   UNL     1      -4.559  -1.803  24.252  0.00  0.00    -0.204 F 
ATOM     12  C   UNL     1      -3.836  -0.584  24.065  0.00  0.00    +0.029 A 
ATOM     13  C   UNL     1      -3.235  -0.069  24.295  0.00  0.00    -0.001 A 
ENDBRANCH   6   7
ENDBRANCH   5   6
TORSDOF 4
ENDMDL
MODEL 4
REMARK VINA RESULT:     -11.5      1.760      2.797
REMARK  Name = 
REMARK  4 active torsions:
REMARK  status: ('A' for Active; 'I' for Inactive)
REMARK    1  A    between atoms: C_4  and  C_15
REMARK    2  A    between atoms: N_5  and  C_6
REMARK    3  A    between atoms: C_6  and  C_7
REMARK    4  A    between atoms: C_17  and  C_20
REMARK                            x       y       z     vdW  Elec       q    Type
REMARK                         _______ _______ _______ _____ _____    ______ ____
ROOT
ATOM      1  O   UNL     1      -0.461  -0.106  24.462  0.00  0.00    -0.222 OA
ATOM      2  C   UNL     1      -1.266   0.072  24.467  0.00  0.00    +0.170 C 
ATOM      3  C   UNL     1      -1.599   0.811  24.310  0.00  0.00    +0.060 C 
ATOM      4  C   UNL     1      -2.419   0.739  24.375  0.00  0.00    +0.140 C 
ATOM      5  N   UNL     1      -2.591  -0.044  24.572  0.00  0.00    -0.260 NA
ATOM     14  C   UNL     1      -1.878  -0.456  24.628  0.00  0.00    +0.106 C 
ENDROOT
BRANCH   4  15
ATOM     15  C   UNL     1      -2.969   1.343  24.264  0.00  0.00    +0.251 A 
ATOM     16  N   UNL     1      -3.398   1.724  24.856  0.00  0.00    -0.190 NA
ATOM     17  C   UNL     1      -3.881   2.290  24.498  0.00  0.00    +0.205 A 
ATOM     18  N   UNL     1      -3.750   2.258  23.684  0.00  0.00    -0.056 NA
ATOM     19  O   UNL     1      -3.186   1.673  23.539  0.00  0.00    -0.336 OA
BRANCH  17  20
ATOM     20  C   UNL     1      -4.403   2.798  24.886  0.00  0.00    +0.058 A 
ATOM     21  C   UNL     1      -5.144   2.524  25.125  0.00  0.00    +0.006 A 
ATOM     22  C   UNL     1      -5.665   3.031  25.512  0.00  0.00    +0.021 A 
ATOM     23  C   UNL     1      -5.447   3.813  25.662  0.00  0.00    +0.099 A 
ATOM     24  N   UNL     1      -4.706   4.087  25.423  0.00  0.00    -0.242 NA
ATOM     25  C   UNL     1      -4.184   3.579  25.035  0.00  0.00    +0.102 A 
ENDBRANCH  17  20
ENDBRANCH   4  15
BRANCH   5   6
ATOM      6  C   UNL     1      -3.344  -0.359  24.691  0.00  0.00    +0.100 C 
BRANCH   6   7
ATOM      7  C   UNL     1      -3.460  -1.175  24.654  0.00  0.00    -0.006 A 
ATOM      8  C   UNL     1      -3.291  -1.646  25.310  0.00  0.00    -0.001 A 
ATOM      9  C   UNL     1      -3.407  -2.463  25.272  0.00  0.00    +0.029 A 
ATOM     10  C   UNL     1      -3.692  -2.807  24.580  0.00  0.00    +0.140 A 
ATOM     11  F   UNL     1      -3.808  -3.623  24.542  0.00  0.00    -0.204 F 
ATOM     12  C   UNL     1      -3.862  -2.335  23.923  0.00  0.00    +0.029 A 
ATOM     13  C   UNL     1      -3.745  -1.520  23.961  0.00  0.00    -0.001 A 
ENDBRANCH   6   7
ENDBRANCH   5   6
TORSDOF 4
ENDMDL
MODEL 5
REMARK VINA RESULT:     -10.9      2.650      5.341
REMARK  Name = 
REMARK  4 active torsions:
REMARK  status: ('A' for Active; 'I' for Inactive)
REMARK    1  A    between atoms: C_4  and  C_15
REMARK    2  A    between atoms: N_5  and  C_6
REMARK    3  A    between atoms: C_6  and  C_7
REMARK    4  A    between atoms: C_17  and  C_20
REMARK                            x       y       z     vdW  Elec       q    Type
REMARK                         _______ _______ _______ _____ _____    ______ ____
ROOT
ATOM      1  O   UNL     1       0.856   1.448  23.842  0.00  0.00    -0.222 OA
ATOM      2  C   UNL     1       0.133   1.313  24.216  0.00  0.00    +0.170 C 
ATOM      3  C   UNL     1      -0.225   0.578  24.325  0.00  0.00    +0.060 C 
ATOM      4  C   UNL     1      -0.938   0.699  24.723  0.00  0.00    +0.140 C 
ATOM      5  N   UNL     1      -1.020   1.509  24.858  0.00  0.00    -0.260 NA
ATOM     14  C   UNL     1      -0.357   1.888  24.545  0.00  0.00    +0.106 C 
ENDROOT
BRANCH   4  15
ATOM     15  C   UNL     1      -1.475   0.114  24.945  0.00  0.00    +0.251 A 
ATOM     16  N   UNL     1      -1.986  -0.293  24.441  0.00  0.00    -0.190 NA
ATOM     17  C   UNL     1      -2.422  -0.826  24.896  0.00  0.00    +0.205 A 
ATOM     18  N   UNL     1      -2.181  -0.749  25.681  0.00  0.00    -0.056 NA
ATOM     19  O   UNL     1      -1.595  -0.168  25.712  0.00  0.00    -0.336 OA
BRANCH  17  20
ATOM     20  C   UNL     1      -2.998  -1.346  24.615  0.00  0.00    +0.058 A 
ATOM     21  C   UNL     1      -3.682  -1.050  24.260  0.00  0.00    +0.006 A 
ATOM     22  C   UNL     1      -4.258  -1.569  23.979  0.00  0.00    +0.021 A 
ATOM     23  C   UNL     1      -4.150  -2.384  24.052  0.00  0.00    +0.099 A 
ATOM     24  N   UNL     1      -3.466  -2.680  24.407  0.00  0.00    -0.242 NA
ATOM     25  C   UNL     1      -2.890  -2.160  24.688  0.00  0.00    +0.102 A 
ENDBRANCH  17  20
ENDBRANCH   4  15
BRANCH   5   6
ATOM      6  C   UNL     1      -1.652   1.876  25.240  0.00  0.00    +0.100 C 
BRANCH   6   7
ATOM      7  C   UNL     1      -1.702   2.698  25.259  0.00  0.00    -0.006 A 
ATOM      8  C   UNL     1      -2.156   3.097  24.696  0.00  0.00    -0.001 A 
ATOM      9  C   UNL     1      -2.206   3.920  24.715  0.00  0.00    +0.029 A 
ATOM     10  C   UNL     1      -1.803   4.345  25.295  0.00  0.00    +0.140 A 
ATOM     11  F   UNL     1      -1.853   5.169  25.313  0.00  0.00    -0.204 F 
ATOM     12  C   UNL     1      -1.349   3.947  25.858  0.00  0.00    +0.029 A 
ATOM     13  C   UNL     1      -1.299   3.124  25.839  0.00  0.00    -0.001 A 
ENDBRANCH   6   7
ENDBRANCH   5   6
TORSDOF 4
ENDMDL
MODEL 6
REMARK VINA RESULT:     -10.7      2.119      3.550
REMARK  Name = 
REMARK  4 active torsions:
REMARK  status: ('A' for Active; 'I' for Inactive)
REMARK    1  A    between atoms: C_4  and  C_15
REMARK    2  A    between atoms: N_5  and  C_6
REMARK    3  A    between atoms: C_6  and  C_7
REMARK    4  A    between atoms: C_17  and  C_20
REMARK                            x       y       z     vdW  Elec       q    Type
REMARK                         _______ _______ _______ _____ _____    ______ ____
ROOT
ATOM      1  O   UNL     1       0.456   2.616  26.133  0.00  0.00    -0.222 OA
ATOM      2  C   UNL     1      -0.226   2.357  25.748  0.00  0.00    +0.170 C 
ATOM      3  C   UNL     1      -0.891   2.815  25.580  0.00  0.00    +0.060 C 
ATOM      4  C   UNL     1      -1.439   2.335  25.192  0.00  0.00    +0.140 C 
ATOM      5  N   UNL     1      -1.112   1.581  25.120  0.00  0.00    -0.260 NA
ATOM     14  C   UNL     1      -0.362   1.595  25.464  0.00  0.00    +0.106 C 
ENDROOT
BRANCH   4  15
ATOM     15  C   UNL     1      -2.183   2.569  24.923  0.00  0.00    +0.251 A 
ATOM     16  N   UNL     1      -2.888   2.530  25.350  0.00  0.00    -0.190 NA
ATOM     17  C   UNL     1      -3.494   2.820  24.871  0.00  0.00    +0.205 A 
ATOM     18  N   UNL     1      -3.163   3.039  24.147  0.00  0.00    -0.056 NA
ATOM     19  O   UNL     1      -2.353   2.884  24.179  0.00  0.00    -0.336 OA
BRANCH  17  20
ATOM     20  C   UNL     1      -4.290   2.880  25.078  0.00  0.00    +0.058 A 
ATOM     21  C   UNL     1      -4.806   2.257  24.920  0.00  0.00    +0.006 A 
ATOM     22  C   UNL     1      -5.602   2.317  25.128  0.00  0.00    +0.021 A 
ATOM     23  C   UNL     1      -5.882   3.002  25.493  0.00  0.00    +0.099 A 
ATOM     24  N   UNL     1      -5.366   3.626  25.651  0.00  0.00    -0.242 NA
ATOM     25  C   UNL     1      -4.570   3.565  25.444  0.00  0.00    +0.102 A 
ENDBRANCH  17  20
ENDBRANCH   4  15
BRANCH   5   6
ATOM      6  C   UNL     1      -1.472   0.929  24.767  0.00  0.00    +0.100 C 
BRANCH   6   7
ATOM      7  C   UNL     1      -1.197   0.168  24.930  0.00  0.00    -0.006 A 
ATOM      8  C   UNL     1      -1.473  -0.237  25.594  0.00  0.00    -0.001 A 
ATOM      9  C   UNL     1      -1.198  -0.998  25.756  0.00  0.00    +0.029 A 
ATOM     10  C   UNL     1      -0.649  -1.353  25.256  0.00  0.00    +0.140 A 
ATOM     11  F   UNL     1      -0.374  -2.114  25.419  0.00  0.00    -0.204 F 
ATOM     12  C   UNL     1      -0.373  -0.948  24.591  0.00  0.00    +0.029 A 
ATOM     13  C   UNL     1      -0.648  -0.188  24.429  0.00  0.00    -0.001 A 
ENDBRANCH   6   7
ENDBRANCH   5   6
TORSDOF 4
ENDMDL
