MODEL 1
REMARK VINA RESULT:     -10.0      0.000      0.000
REMARK  Name = 
REMARK  10 active torsions:
REMARK  status: ('A' for Active; 'I' for Inactive)
REMARK    1  A    between atoms: C_2  and  C_4
REMARK    2  A    between atoms: C_6  and  C_7
REMARK    3  A    between atoms: C_7  and  C_8
REMARK    4  A    between atoms: N_10  and  C_11
REMARK    5  A    between atoms: C_11  and  C_12
REMARK    6  A    between atoms: C_21  and  C_22
REMARK    7  A    between atoms: C_22  and  N_23
REMARK    8  A    between atoms: C_24  and  C_26
REMARK    9  A    between atoms: C_26  and  C_27
REMARK   10  A    between atoms: C_27  and  C_28
REMARK                            x       y       z     vdW  Elec       q    Type
REMARK                         _______ _______ _______ _____ _____    ______ ____
ROOT
ATOM      4  C   UNL     1      -3.530   1.683  23.942  0.00  0.00    +0.006 C 
ATOM      5  C   UNL     1      -3.659   2.424  24.280  0.00  0.00    +0.005 C 
ATOM      6  C   UNL     1      -4.284   2.534  24.808  0.00  0.00    +0.027 C 
ATOM     18  C   UNL     1      -4.780   1.902  24.997  0.00  0.00    -0.048 C 
ATOM     19  C   UNL     1      -5.405   2.012  25.524  0.00  0.00    +0.026 C 
ATOM     20  C   UNL     1      -4.650   1.161  24.659  0.00  0.00    -0.033 C 
ATOM     21  C   UNL     1      -4.026   1.051  24.132  0.00  0.00    +0.043 C 
ENDROOT
BRANCH   4   2
ATOM      1  C   UNL     1      -2.183   1.280  23.687  0.00  0.00    +0.000 C 
ATOM      2  C   UNL     1      -2.905   1.573  23.415  0.00  0.00    +0.000 C 
ATOM      3  C   UNL     1      -3.001   1.756  22.617  0.00  0.00    +0.000 C 
ENDBRANCH   4   2
BRANCH   6   7
ATOM      7  C   UNL     1      -4.413   3.275  25.146  0.00  0.00    +0.091 C 
BRANCH   7   8
ATOM      8  C   UNL     1      -3.836   3.613  25.630  0.00  0.00    +0.242 C 
ATOM      9  O   UNL     1      -3.859   3.494  26.446  0.00  0.00    -0.273 OA
ATOM     10  N   UNL     1      -3.235   4.071  25.297  0.00  0.00    -0.199 NA
BRANCH  10  11
ATOM     11  C   UNL     1      -2.658   4.409  25.781  0.00  0.00    +0.160 C 
BRANCH  11  12
ATOM     12  C   UNL     1      -1.932   4.632  25.460  0.00  0.00    +0.081 A 
ATOM     13  N   UNL     1      -1.299   4.104  25.464  0.00  0.00    -0.246 NA
ATOM     14  C   UNL     1      -0.572   4.329  25.143  0.00  0.00    +0.099 A 
ATOM     15  C   UNL     1      -0.480   5.082  24.819  0.00  0.00    +0.021 A 
ATOM     16  C   UNL     1      -1.112   5.610  24.816  0.00  0.00    +0.003 A 
ATOM     17  C   UNL     1      -1.839   5.386  25.136  0.00  0.00    +0.017 A 
ENDBRANCH  11  12
ENDBRANCH  10  11
ENDBRANCH   7   8
ENDBRANCH   6   7
BRANCH  21  22
ATOM     22  C   UNL     1      -3.896   0.310  23.793  0.00  0.00    +0.119 C 
BRANCH  22  23
ATOM     23  N   UNL     1      -3.945  -0.370  24.257  0.00  0.00    -0.205 NA
ATOM     24  C   UNL     1      -4.021  -1.109  23.899  0.00  0.00    +0.242 C 
ATOM     25  O   UNL     1      -4.050  -1.168  23.076  0.00  0.00    -0.273 OA
BRANCH  24  26
ATOM     26  C   UNL     1      -4.069  -1.790  24.363  0.00  0.00    +0.099 C 
BRANCH  26  27
ATOM     27  C   UNL     1      -3.420  -2.296  24.424  0.00  0.00    +0.124 C 
BRANCH  27  28
ATOM     28  C   UNL     1      -3.464  -2.968  24.899  0.00  0.00    +0.365 C 
ATOM     29  O   UNL     1      -3.342  -2.907  25.712  0.00  0.00    -0.246 OA
ATOM     30  O   UNL     1      -3.630  -3.702  24.560  0.00  0.00    -0.246 OA
ENDBRANCH  27  28
ENDBRANCH  26  27
ENDBRANCH  24  26
ENDBRANCH  22  23
ENDBRANCH  21  22
TORSDOF 10
ENDMDL
MODEL 2
REMARK VINA RESULT:      -9.7      2.964      4.521
REMARK  Name = 
REMARK  10 active torsions:
REMARK  status: ('A' for Active; 'I' for Inactive)
REMARK    1  A    between atoms: C_2  and  C_4
REMARK    2  A    between atoms: C_6  and  C_7
REMARK    3  A    between atoms: C_7  and  C_8
REMARK    4  A    between atoms: N_10  and  C_11
REMARK    5  A    between atoms: C_11  and  C_12
REMARK    6  A    between atoms: C_21  and  C_22
REMARK    7  A    between atoms: C_22  and  N_23
REMARK    8  A    between atoms: C_24  and  C_26
REMARK    9  A    between atoms: C_26  and  C_27
REMARK   10  A    between atoms: C_27  and  C_28
REMARK                            x       y       z     vdW  Elec       q    Type
REMARK                         _______ _______ _______ _____ _____    ______ ____
ROOT
ATOM      4  C   UNL     1      -1.576   1.081  24.818  0.00  0.00    +0.006 C 
ATOM      5  C   UNL     1      -2.000   1.719  25.125  0.00  0.00    +0.005 C 
ATOM      6  C   UNL     1      -1.683   2.481  25.087  0.00  0.00    +0.027 C 
ATOM     18  C   UNL     1      -0.944   2.604  24.741  0.00  0.00    -0.048 C 
ATOM     19  C   UNL     1      -0.628   3.364  24.703  0.00  0.00    +0.026 C 
ATOM     20  C   UNL     1      -0.521   1.965  24.434  0.00  0.00    -0.033 C 
ATOM     21  C   UNL     1      -0.837   1.204  24.473  0.00  0.00    +0.043 C 
ENDROOT
BRANCH   4   2
ATOM      1  C   UNL     1      -2.369   0.040  24.243  0.00  0.00    +0.000 C 
ATOM      2  C   UNL     1      -1.893   0.320  24.856  0.00  0.00    +0.000 C 
ATOM      3  C   UNL     1      -1.734  -0.161  25.506  0.00  0.00    +0.000 C 
ENDBRANCH   4   2
BRANCH   6   7
ATOM      7  C   UNL     1      -2.106   3.119  25.394  0.00  0.00    +0.091 C 
BRANCH   7   8
ATOM      8  C   UNL     1      -2.837   3.324  25.068  0.00  0.00    +0.242 C 
ATOM      9  O   UNL     1      -2.868   3.760  24.368  0.00  0.00    -0.273 OA
ATOM     10  N   UNL     1      -3.534   3.093  25.442  0.00  0.00    -0.199 NA
BRANCH  10  11
ATOM     11  C   UNL     1      -4.264   3.298  25.116  0.00  0.00    +0.160 C 
BRANCH  11  12
ATOM     12  C   UNL     1      -4.940   2.871  25.318  0.00  0.00    +0.081 A 
ATOM     13  N   UNL     1      -5.292   2.979  26.056  0.00  0.00    -0.246 NA
ATOM     14  C   UNL     1      -5.968   2.552  26.258  0.00  0.00    +0.099 A 
ATOM     15  C   UNL     1      -6.292   2.016  25.721  0.00  0.00    +0.021 A 
ATOM     16  C   UNL     1      -5.941   1.908  24.984  0.00  0.00    +0.003 A 
ATOM     17  C   UNL     1      -5.265   2.335  24.781  0.00  0.00    +0.017 A 
ENDBRANCH  11  12
ENDBRANCH  10  11
ENDBRANCH   7   8
ENDBRANCH   6   7
BRANCH  21  22
ATOM     22  C   UNL     1      -0.415   0.565  24.166  0.00  0.00    +0.119 C 
BRANCH  22  23
ATOM     23  N   UNL     1       0.159   0.689  23.586  0.00  0.00    -0.205 NA
ATOM     24  C   UNL     1       0.657   0.073  23.360  0.00  0.00    +0.242 C 
ATOM     25  O   UNL     1       0.582  -0.669  23.715  0.00  0.00    -0.273 OA
BRANCH  24  26
ATOM     26  C   UNL     1       1.231   0.197  22.780  0.00  0.00    +0.099 C 
BRANCH  26  27
ATOM     27  C   UNL     1       1.999  -0.083  22.892  0.00  0.00    +0.124 C 
BRANCH  27  28
ATOM     28  C   UNL     1       2.600   0.141  22.373  0.00  0.00    +0.365 C 
ATOM     29  O   UNL     1       3.257   0.550  22.655  0.00  0.00    -0.246 OA
ATOM     30  O   UNL     1       2.542  -0.046  21.572  0.00  0.00    -0.246 OA
ENDBRANCH  27  28
ENDBRANCH  26  27
ENDBRANCH  24  26
ENDBRANCH  22  23
ENDBRANCH  21  22
TORSDOF 10
ENDMDL
MODEL 3
REMARK VINA RESULT:      -9.3      2.169      5.360
REMARK  Name = 
REMARK  10 active torsions:
REMARK  status: ('A' for Active; 'I' for Inactive)
REMARK    1  A    between atoms: C_2  and  C_4
REMARK    2  A    between atoms: C_6  and  C_7
REMARK    3  A    between atoms: C_7  and  C_8
REMARK    4  A    between atoms: N_10  and  C_11
REMARK    5  A    between atoms: C_11  and  C_12
REMARK    6  A    between atoms: C_21  and  C_22
REMARK    7  A    between atoms: C_22  and  N_23
REMARK    8  A    between atoms: C_24  and  C_26
REMARK    9  A    between atoms: C_26  and  C_27
REMARK   10  A    between atoms: C_27  and  C_28
REMARK                            x       y       z     vdW  Elec       q    Type
REMARK                         _______ _______ _______ _____ _____    ______ ____
ROOT
ATOM      4  C   UNL     1      -1.980   1.602  23.781  0.00  0.00    +0.006 C 
ATOM      5  C   UNL     1      -1.416   1.017  23.919  0.00  0.00    +0.005 C 
ATOM      6  C   UNL     1      -1.003   1.002  24.634  0.00  0.00    +0.027 C 
ATOM     18  C   UNL     1      -1.155   1.574  25.210  0.00  0.00    -0.048 C 
ATOM     19  C   UNL     1      -0.743   1.559  25.924  0.00  0.00    +0.026 C 
ATOM     20  C   UNL     1      -1.720   2.159  25.070  0.00  0.00    -0.033 C 
ATOM     21  C   UNL     1      -2.132   2.173  24.357  0.00  0.00    +0.043 C 
ENDROOT
BRANCH   4   2
ATOM      1  C   UNL     1      -3.091   1.186  22.985  0.00  0.00    +0.000 C 
ATOM      2  C   UNL     1      -2.393   1.617  23.066  0.00  0.00    +0.000 C 
ATOM      3  C   UNL     1      -2.106   2.061  22.434  0.00  0.00    +0.000 C 
ENDBRANCH   4   2
BRANCH   6   7
ATOM      7  C   UNL     1      -0.439   0.417  24.772  0.00  0.00    +0.091 C 
BRANCH   7   8
ATOM      8  C   UNL     1      -0.582  -0.359  24.528  0.00  0.00    +0.242 C 
ATOM      9  O   UNL     1      -0.175  -0.670  23.882  0.00  0.00    -0.273 OA
ATOM     10  N   UNL     1      -1.133  -0.822  24.931  0.00  0.00    -0.199 NA
BRANCH  10  11
ATOM     11  C   UNL     1      -1.276  -1.598  24.687  0.00  0.00    +0.160 C 
BRANCH  11  12
ATOM     12  C   UNL     1      -2.025  -1.929  24.784  0.00  0.00    +0.081 A 
ATOM     13  N   UNL     1      -2.345  -2.406  24.193  0.00  0.00    -0.246 NA
ATOM     14  C   UNL     1      -3.095  -2.737  24.290  0.00  0.00    +0.099 A 
ATOM     15  C   UNL     1      -3.525  -2.588  24.978  0.00  0.00    +0.021 A 
ATOM     16  C   UNL     1      -3.205  -2.111  25.569  0.00  0.00    +0.003 A 
ATOM     17  C   UNL     1      -2.456  -1.780  25.473  0.00  0.00    +0.017 A 
ENDBRANCH  11  12
ENDBRANCH  10  11
ENDBRANCH   7   8
ENDBRANCH   6   7
BRANCH  21  22
ATOM     22  C   UNL     1      -2.697   2.759  24.217  0.00  0.00    +0.119 C 
BRANCH  22  23
ATOM     23  N   UNL     1      -3.282   2.910  24.778  0.00  0.00    -0.205 NA
ATOM     24  C   UNL     1      -3.731   3.600  24.730  0.00  0.00    +0.242 C 
ATOM     25  O   UNL     1      -3.594   4.140  24.120  0.00  0.00    -0.273 OA
BRANCH  24  26
ATOM     26  C   UNL     1      -4.317   3.752  25.291  0.00  0.00    +0.099 C 
BRANCH  26  27
ATOM     27  C   UNL     1      -5.093   3.506  25.155  0.00  0.00    +0.124 C 
BRANCH  27  28
ATOM     28  C   UNL     1      -5.658   3.574  25.752  0.00  0.00    +0.365 C 
ATOM     29  O   UNL     1      -6.140   4.241  25.790  0.00  0.00    -0.246 OA
ATOM     30  O   UNL     1      -5.740   2.973  26.311  0.00  0.00    -0.246 OA
ENDBRANCH  27  28
ENDBRANCH  26  27
ENDBRANCH  24  26
ENDBRANCH  22  23
ENDBRANCH  21  22
TORSDOF 10
ENDMDL
MODEL 4
REMARK VINA RESULT:      -9.2      3.517      5.333
REMARK  Name = 
REMARK  10 active torsions:
REMARK  status: ('A' for Active; 'I' for Inactive)
REMARK    1  A    between atoms: C_2  and  C_4
REMARK    2  A    between atoms: C_6  and  C_7
REMARK    3  A    between atoms: C_7  and  C_8
REMARK    4  A    between atoms: N_10  and  C_11
REMARK    5  A    between atoms: C_11  and  C_12
REMARK    6  A    between atoms: C_21  and  C_22
REMARK    7  A    between atoms: C_22  and  N_23
REMARK    8  A    between atoms: C_24  and  C_26
REMARK    9  A    between atoms: C_26  and  C_27
REMARK   10  A    between atoms: C_27  and  C_28
REMARK                            x       y       z     vdW  Elec       q    Type
REMARK                         _______ _______ _______ _____ _____    ______ ____
ROOT
ATOM      4  C   UNL     1      -0.660   1.738  24.527  0.00  0.00    +0.006 C 
ATOM      5  C   UNL     1      -0.102   1.171  24.309  0.00  0.00    +0.005 C 
ATOM      6  C   UNL     1      -0.338   0.392  24.172  0.00  0.00    +0.027 C 
ATOM     18  C   UNL     1      -1.131   0.181  24.253  0.00  0.00    -0.048 C 
ATOM     19  C   UNL     1      -1.366  -0.598  24.116  0.00  0.00    +0.026 C 
ATOM     20  C   UNL     1      -1.688   0.749  24.471  0.00  0.00    -0.033 C 
ATOM     21  C   UNL     1      -1.453   1.527  24.608  0.00  0.00    +0.043 C 
ENDROOT
BRANCH   4   2
ATOM      1  C   UNL     1      -0.185   2.749  25.419  0.00  0.00    +0.000 C 
ATOM      2  C   UNL     1      -0.424   2.517  24.664  0.00  0.00    +0.000 C 
ATOM      3  C   UNL     1      -0.426   3.063  24.047  0.00  0.00    +0.000 C 
ENDBRANCH   4   2
BRANCH   6   7
ATOM      7  C   UNL     1       0.220  -0.175  23.955  0.00  0.00    +0.091 C 
BRANCH   7   8
ATOM      8  C   UNL     1       0.698  -0.051  23.293  0.00  0.00    +0.242 C 
ATOM      9  O   UNL     1       0.356   0.033  22.547  0.00  0.00    -0.273 OA
ATOM     10  N   UNL     1       1.517  -0.010  23.378  0.00  0.00    -0.199 NA
BRANCH  10  11
ATOM     11  C   UNL     1       1.995   0.115  22.716  0.00  0.00    +0.160 C 
BRANCH  11  12
ATOM     12  C   UNL     1       2.809   0.211  22.808  0.00  0.00    +0.081 A 
ATOM     13  N   UNL     1       3.279  -0.432  23.019  0.00  0.00    -0.246 NA
ATOM     14  C   UNL     1       4.094  -0.334  23.110  0.00  0.00    +0.099 A 
ATOM     15  C   UNL     1       4.437   0.406  22.991  0.00  0.00    +0.021 A 
ATOM     16  C   UNL     1       3.966   1.049  22.780  0.00  0.00    +0.003 A 
ATOM     17  C   UNL     1       3.152   0.953  22.688  0.00  0.00    +0.017 A 
ENDBRANCH  11  12
ENDBRANCH  10  11
ENDBRANCH   7   8
ENDBRANCH   6   7
BRANCH  21  22
ATOM     22  C   UNL     1      -2.011   2.095  24.825  0.00  0.00    +0.119 C 
BRANCH  22  23
ATOM     23  N   UNL     1      -2.804   1.886  24.903  0.00  0.00    -0.205 NA
ATOM     24  C   UNL     1      -3.374   2.469  25.026  0.00  0.00    +0.242 C 
ATOM     25  O   UNL     1      -3.150   3.263  25.070  0.00  0.00    -0.273 OA
BRANCH  24  26
ATOM     26  C   UNL     1      -4.169   2.261  25.104  0.00  0.00    +0.099 C 
BRANCH  26  27
ATOM     27  C   UNL     1      -4.721   2.822  25.349  0.00  0.00    +0.124 C 
BRANCH  27  28
ATOM     28  C   UNL     1      -5.483   2.587  25.561  0.00  0.00    +0.365 C 
ATOM     29  O   UNL     1      -5.963   2.202  25.013  0.00  0.00    -0.246 OA
ATOM     30  O   UNL     1      -5.764   2.738  26.321  0.00  0.00    -0.246 OA
ENDBRANCH  27  28
ENDBRANCH  26  27
ENDBRANCH  24  26
ENDBRANCH  22  23
ENDBRANCH  21  22
TORSDOF 10
ENDMDL
MODEL 5
REMARK VINA RESULT:      -9.1      1.545      5.479
REMARK  Name = 
REMARK  10 active torsions:
REMARK  status: ('A' for Active; 'I' for Inactive)
REMARK    1  A    between atoms: C_2  and  C_4
REMARK    2  A    between atoms: C_6  and  C_7
REMARK    3  A    between atoms: C_7  and  C_8
REMARK    4  A    between atoms: N_10  and  C_11
REMARK    5  A    between atoms: C_11  and  C_12
REMARK    6  A    between atoms: C_21  and  C_22
REMARK    7  A    between atoms: C_22  and  N_23
REMARK    8  A    between atoms: C_24  and  C_26
REMARK    9  A    between atoms: C_26  and  C_27
REMARK   10  A    between atoms: C_27  and  C_28
REMARK                            x       y       z     vdW  Elec       q    Type
REMARK                         _______ _______ _______ _____ _____    ______ ____
ROOT
ATOM      4  C   UNL     1      -4.607   1.755  24.824  0.00  0.00    +0.006 C 
ATOM      5  C   UNL     1      -4.599   1.008  24.475  0.00  0.00    +0.005 C 
ATOM      6  C   UNL     1      -4.005   0.811  23.937  0.00  0.00    +0.027 C 
ATOM     18  C   UNL     1      -3.420   1.362  23.748  0.00  0.00    -0.048 C 
ATOM     19  C   UNL     1      -2.827   1.166  23.210  0.00  0.00    +0.026 C 
ATOM     20  C   UNL     1      -3.430   2.109  24.097  0.00  0.00    -0.033 C 
ATOM     21  C   UNL     1      -4.023   2.306  24.635  0.00  0.00    +0.043 C 
ENDROOT
BRANCH   4   2
ATOM      1  C   UNL     1      -5.105   1.779  26.164  0.00  0.00    +0.000 C 
ATOM      2  C   UNL     1      -5.201   1.951  25.363  0.00  0.00    +0.000 C 
ATOM      3  C   UNL     1      -5.890   2.320  25.101  0.00  0.00    +0.000 C 
ENDBRANCH   4   2
BRANCH   6   7
ATOM      7  C   UNL     1      -3.996   0.064  23.588  0.00  0.00    +0.091 C 
BRANCH   7   8
ATOM      8  C   UNL     1      -3.861  -0.606  24.051  0.00  0.00    +0.242 C 
ATOM      9  O   UNL     1      -4.498  -1.037  24.350  0.00  0.00    -0.273 OA
ATOM     10  N   UNL     1      -3.088  -0.844  24.215  0.00  0.00    -0.199 NA
BRANCH  10  11
ATOM     11  C   UNL     1      -2.953  -1.514  24.679  0.00  0.00    +0.160 C 
BRANCH  11  12
ATOM     12  C   UNL     1      -2.180  -1.748  24.848  0.00  0.00    +0.081 A 
ATOM     13  N   UNL     1      -1.722  -1.309  25.373  0.00  0.00    -0.246 NA
ATOM     14  C   UNL     1      -0.949  -1.544  25.543  0.00  0.00    +0.099 A 
ATOM     15  C   UNL     1      -0.636  -2.218  25.185  0.00  0.00    +0.021 A 
ATOM     16  C   UNL     1      -1.094  -2.657  24.660  0.00  0.00    +0.003 A 
ATOM     17  C   UNL     1      -1.867  -2.423  24.491  0.00  0.00    +0.017 A 
ENDBRANCH  11  12
ENDBRANCH  10  11
ENDBRANCH   7   8
ENDBRANCH   6   7
BRANCH  21  22
ATOM     22  C   UNL     1      -4.033   3.053  24.985  0.00  0.00    +0.119 C 
BRANCH  22  23
ATOM     23  N   UNL     1      -3.466   3.614  24.776  0.00  0.00    -0.205 NA
ATOM     24  C   UNL     1      -3.187   4.148  25.339  0.00  0.00    +0.242 C 
ATOM     25  O   UNL     1      -3.474   4.120  26.113  0.00  0.00    -0.273 OA
BRANCH  24  26
ATOM     26  C   UNL     1      -2.620   4.710  25.130  0.00  0.00    +0.099 C 
BRANCH  26  27
ATOM     27  C   UNL     1      -1.868   4.684  25.469  0.00  0.00    +0.124 C 
BRANCH  27  28
ATOM     28  C   UNL     1      -1.237   5.070  25.104  0.00  0.00    +0.365 C 
ATOM     29  O   UNL     1      -0.575   4.641  24.864  0.00  0.00    -0.246 OA
ATOM     30  O   UNL     1      -1.268   5.885  24.979  0.00  0.00    -0.246 OA
ENDBRANCH  27  28
ENDBRANCH  26  27
ENDBRANCH  24  26
ENDBRANCH  22  23
ENDBRANCH  21  22
TORSDOF 10
ENDMDL
MODEL 6
REMARK VINA RESULT:      -9.1      3.043      5.390
REMARK  Name = 
REMARK  10 active torsions:
REMARK  status: ('A' for Active; 'I' for Inactive)
REMARK    1  A    between atoms: C_2  and  C_4
REMARK    2  A    between atoms: C_6  and  C_7
REMARK    3  A    between atoms: C_7  and  C_8
REMARK    4  A    between atoms: N_10  and  C_11
REMARK    5  A    between atoms: C_11  and  C_12
REMARK    6  A    between atoms: C_21  and  C_22
REMARK    7  A    between atoms: C_22  and  N_23
REMARK    8  A    between atoms: C_24  and  C_26
REMARK    9  A    between atoms: C_26  and  C_27
REMARK   10  A    between atoms: C_27  and  C_28
REMARK                            x       y       z     vdW  Elec       q    Type
REMARK                         _______ _______ _______ _____ _____    ______ ____
ROOT
ATOM      4  C   UNL     1      -1.342   1.606  24.845  0.00  0.00    +0.006 C 
ATOM      5  C   UNL     1      -2.165   1.609  24.800  0.00  0.00    +0.005 C 
ATOM      6  C   UNL     1      -2.538   1.612  24.064  0.00  0.00    +0.027 C 
ATOM     18  C   UNL     1      -2.087   1.612  23.373  0.00  0.00    -0.048 C 
ATOM     19  C   UNL     1      -2.459   1.615  22.638  0.00  0.00    +0.026 C 
ATOM     20  C   UNL     1      -1.263   1.609  23.419  0.00  0.00    -0.033 C 
ATOM     21  C   UNL     1      -0.891   1.606  24.154  0.00  0.00    +0.043 C 
ENDROOT
BRANCH   4   2
ATOM      1  C   UNL     1      -0.775   2.317  25.948  0.00  0.00    +0.000 C 
ATOM      2  C   UNL     1      -0.969   1.603  25.582  0.00  0.00    +0.000 C 
ATOM      3  C   UNL     1      -0.791   0.889  25.951  0.00  0.00    +0.000 C 
ENDBRANCH   4   2
BRANCH   6   7
ATOM      7  C   UNL     1      -3.362   1.615  24.019  0.00  0.00    +0.091 C 
BRANCH   7   8
ATOM      8  C   UNL     1      -3.800   1.063  24.450  0.00  0.00    +0.242 C 
ATOM      9  O   UNL     1      -4.230   1.303  25.111  0.00  0.00    -0.273 OA
ATOM     10  N   UNL     1      -3.807   0.272  24.218  0.00  0.00    -0.199 NA
BRANCH  10  11
ATOM     11  C   UNL     1      -4.245  -0.280  24.648  0.00  0.00    +0.160 C 
BRANCH  11  12
ATOM     12  C   UNL     1      -4.097  -1.086  24.555  0.00  0.00    +0.081 A 
ATOM     13  N   UNL     1      -4.375  -1.483  23.889  0.00  0.00    -0.246 NA
ATOM     14  C   UNL     1      -4.227  -2.290  23.796  0.00  0.00    +0.099 A 
ATOM     15  C   UNL     1      -3.800  -2.698  24.371  0.00  0.00    +0.021 A 
ATOM     16  C   UNL     1      -3.521  -2.302  25.038  0.00  0.00    +0.003 A 
ATOM     17  C   UNL     1      -3.670  -1.496  25.131  0.00  0.00    +0.017 A 
ENDBRANCH  11  12
ENDBRANCH  10  11
ENDBRANCH   7   8
ENDBRANCH   6   7
BRANCH  21  22
ATOM     22  C   UNL     1      -0.067   1.603  24.200  0.00  0.00    +0.119 C 
BRANCH  22  23
ATOM     23  N   UNL     1       0.372   1.090  23.726  0.00  0.00    -0.205 NA
ATOM     24  C   UNL     1       1.175   1.227  23.604  0.00  0.00    +0.242 C 
ATOM     25  O   UNL     1       1.542   1.877  23.957  0.00  0.00    -0.273 OA
BRANCH  24  26
ATOM     26  C   UNL     1       1.614   0.714  23.130  0.00  0.00    +0.099 C 
BRANCH  26  27
ATOM     27  C   UNL     1       2.428   0.824  23.043  0.00  0.00    +0.124 C 
BRANCH  27  28
ATOM     28  C   UNL     1       2.867   0.309  22.573  0.00  0.00    +0.365 C 
ATOM     29  O   UNL     1       2.545   0.013  21.874  0.00  0.00    -0.246 OA
ATOM     30  O   UNL     1       3.628   0.090  22.801  0.00  0.00    -0.246 OA
ENDBRANCH  27  28
ENDBRANCH  26  27
ENDBRANCH  24  26
ENDBRANCH  22  23
ENDBRANCH  21  22
TORSDOF 10
ENDMDL
MODEL 7
REMARK VINA RESULT:      -9.1      1.102      1.969
REMARK  Name = 
REMARK  10 active torsions:
REMARK  status: ('A' for Active; 'I' for Inactive)
REMARK    1  A    between atoms: C_2  and  C_4
REMARK    2  A    between atoms: C_6  and  C_7
REMARK    3  A    between atoms: C_7  and  C_8
REMARK    4  A    between atoms: N_10  and  C_11
REMARK    5  A    between atoms: C_11  and  C_12
REMARK    6  A    between atoms: C_21  and  C_22
REMARK    7  A    between atoms: C_22  and  N_23
REMARK    8  A    between atoms: C_24  and  C_26
REMARK    9  A    between atoms: C_26  and  C_27
REMARK   10  A    between atoms: C_27  and  C_28
REMARK                            x       y       z     vdW  Elec       q    Type
REMARK                         _______ _______ _______ _____ _____    ______ ____
ROOT
ATOM      4  C   UNL     1      -4.501   1.598  24.554  0.00  0.00    +0.006 C 
ATOM      5  C   UNL     1      -4.208   2.360  24.439  0.00  0.00    +0.005 C 
ATOM      6  C   UNL     1      -3.620   2.496  23.875  0.00  0.00    +0.027 C 
ATOM     18  C   UNL     1      -3.327   1.868  23.427  0.00  0.00    -0.048 C 
ATOM     19  C   UNL     1      -2.740   2.004  22.864  0.00  0.00    +0.026 C 
ATOM     20  C   UNL     1      -3.621   1.106  23.542  0.00  0.00    -0.033 C 
ATOM     21  C   UNL     1      -4.208   0.971  24.105  0.00  0.00    +0.043 C 
ENDROOT
BRANCH   4   2
ATOM      1  C   UNL     1      -5.881   1.594  24.927  0.00  0.00    +0.000 C 
ATOM      2  C   UNL     1      -5.089   1.463  25.118  0.00  0.00    +0.000 C 
ATOM      3  C   UNL     1      -4.885   1.197  25.870  0.00  0.00    +0.000 C 
ENDBRANCH   4   2
BRANCH   6   7
ATOM      7  C   UNL     1      -3.327   3.258  23.761  0.00  0.00    +0.091 C 
BRANCH   7   8
ATOM      8  C   UNL     1      -2.922   3.639  24.371  0.00  0.00    +0.242 C 
ATOM      9  O   UNL     1      -3.285   4.252  24.788  0.00  0.00    -0.273 OA
ATOM     10  N   UNL     1      -2.154   3.407  24.563  0.00  0.00    -0.199 NA
BRANCH  10  11
ATOM     11  C   UNL     1      -1.748   3.789  25.173  0.00  0.00    +0.160 C 
BRANCH  11  12
ATOM     12  C   UNL     1      -1.086   3.434  25.512  0.00  0.00    +0.081 A 
ATOM     13  N   UNL     1      -0.356   3.474  25.131  0.00  0.00    -0.246 NA
ATOM     14  C   UNL     1       0.307   3.118  25.470  0.00  0.00    +0.099 A 
ATOM     15  C   UNL     1       0.239   2.723  26.191  0.00  0.00    +0.021 A 
ATOM     16  C   UNL     1      -0.491   2.683  26.572  0.00  0.00    +0.003 A 
ATOM     17  C   UNL     1      -1.154   3.038  26.233  0.00  0.00    +0.017 A 
ENDBRANCH  11  12
ENDBRANCH  10  11
ENDBRANCH   7   8
ENDBRANCH   6   7
BRANCH  21  22
ATOM     22  C   UNL     1      -4.502   0.209  24.220  0.00  0.00    +0.119 C 
BRANCH  22  23
ATOM     23  N   UNL     1      -4.006  -0.443  24.133  0.00  0.00    -0.205 NA
ATOM     24  C   UNL     1      -4.326  -1.201  24.073  0.00  0.00    +0.242 C 
ATOM     25  O   UNL     1      -5.144  -1.306  24.101  0.00  0.00    -0.273 OA
BRANCH  24  26
ATOM     26  C   UNL     1      -3.829  -1.854  23.986  0.00  0.00    +0.099 C 
BRANCH  26  27
ATOM     27  C   UNL     1      -3.622  -2.307  24.643  0.00  0.00    +0.124 C 
BRANCH  27  28
ATOM     28  C   UNL     1      -3.058  -2.905  24.572  0.00  0.00    +0.365 C 
ATOM     29  O   UNL     1      -3.289  -3.665  24.351  0.00  0.00    -0.246 OA
ATOM     30  O   UNL     1      -2.264  -2.742  24.722  0.00  0.00    -0.246 OA
ENDBRANCH  27  28
ENDBRANCH  26  27
ENDBRANCH  24  26
ENDBRANCH  22  23
ENDBRANCH  21  22
TORSDOF 10
ENDMDL
MODEL 8
REMARK VINA RESULT:      -9.1      3.152      4.857
REMARK  Name = 
REMARK  10 active torsions:
REMARK  status: ('A' for Active; 'I' for Inactive)
REMARK    1  A    between atoms: C_2  and  C_4
REMARK    2  A    between atoms: C_6  and  C_7
REMARK    3  A    between atoms: C_7  and  C_8
REMARK    4  A    between atoms: N_10  and  C_11
REMARK    5  A    between atoms: C_11  and  C_12
REMARK    6  A    between atoms: C_21  and  C_22
REMARK    7  A    between atoms: C_22  and  N_23
REMARK    8  A    between atoms: C_24  and  C_26
REMARK    9  A    between atoms: C_26  and  C_27
REMARK   10  A    between atoms: C_27  and  C_28
REMARK                            x       y       z     vdW  Elec       q    Type
REMARK                         _______ _______ _______ _____ _____    ______ ____
ROOT
ATOM      4  C   UNL     1      -1.449   1.155  24.583  0.00  0.00    +0.006 C 
ATOM      5  C   UNL     1      -2.187   0.861  24.805  0.00  0.00    +0.005 C 
ATOM      6  C   UNL     1      -2.319   0.046  24.819  0.00  0.00    +0.027 C 
ATOM     18  C   UNL     1      -1.713  -0.473  24.611  0.00  0.00    -0.048 C 
ATOM     19  C   UNL     1      -1.845  -1.287  24.625  0.00  0.00    +0.026 C 
ATOM     20  C   UNL     1      -0.975  -0.178  24.388  0.00  0.00    -0.033 C 
ATOM     21  C   UNL     1      -0.843   0.636  24.374  0.00  0.00    +0.043 C 
ENDROOT
BRANCH   4   2
ATOM      1  C   UNL     1      -1.076   2.360  25.254  0.00  0.00    +0.000 C 
ATOM      2  C   UNL     1      -1.318   1.970  24.569  0.00  0.00    +0.000 C 
ATOM      3  C   UNL     1      -1.428   2.394  23.871  0.00  0.00    +0.000 C 
ENDBRANCH   4   2
BRANCH   6   7
ATOM      7  C   UNL     1      -3.057  -0.248  25.042  0.00  0.00    +0.091 C 
BRANCH   7   8
ATOM      8  C   UNL     1      -3.744   0.072  24.713  0.00  0.00    +0.242 C 
ATOM      9  O   UNL     1      -3.972  -0.138  23.948  0.00  0.00    -0.273 OA
ATOM     10  N   UNL     1      -4.202   0.600  25.151  0.00  0.00    -0.199 NA
BRANCH  10  11
ATOM     11  C   UNL     1      -4.889   0.920  24.822  0.00  0.00    +0.160 C 
BRANCH  11  12
ATOM     12  C   UNL     1      -5.208   1.615  25.131  0.00  0.00    +0.081 A 
ATOM     13  N   UNL     1      -5.668   1.589  25.815  0.00  0.00    -0.246 NA
ATOM     14  C   UNL     1      -5.987   2.285  26.123  0.00  0.00    +0.099 A 
ATOM     15  C   UNL     1      -5.846   3.006  25.747  0.00  0.00    +0.021 A 
ATOM     16  C   UNL     1      -5.386   3.031  25.064  0.00  0.00    +0.003 A 
ATOM     17  C   UNL     1      -5.067   2.336  24.755  0.00  0.00    +0.017 A 
ENDBRANCH  11  12
ENDBRANCH  10  11
ENDBRANCH   7   8
ENDBRANCH   6   7
BRANCH  21  22
ATOM     22  C   UNL     1      -0.106   0.931  24.152  0.00  0.00    +0.119 C 
BRANCH  22  23
ATOM     23  N   UNL     1       0.390   0.483  23.669  0.00  0.00    -0.205 NA
ATOM     24  C   UNL     1       1.164   0.731  23.529  0.00  0.00    +0.242 C 
ATOM     25  O   UNL     1       1.442   1.429  23.872  0.00  0.00    -0.273 OA
BRANCH  24  26
ATOM     26  C   UNL     1       1.661   0.283  23.046  0.00  0.00    +0.099 C 
BRANCH  26  27
ATOM     27  C   UNL     1       2.421   0.551  22.873  0.00  0.00    +0.124 C 
BRANCH  27  28
ATOM     28  C   UNL     1       2.923   0.096  22.403  0.00  0.00    +0.365 C 
ATOM     29  O   UNL     1       2.817   0.074  21.586  0.00  0.00    -0.246 OA
ATOM     30  O   UNL     1       3.531  -0.339  22.752  0.00  0.00    -0.246 OA
ENDBRANCH  27  28
ENDBRANCH  26  27
ENDBRANCH  24  26
ENDBRANCH  22  23
ENDBRANCH  21  22
TORSDOF 10
ENDMDL
MODEL 9
REMARK VINA RESULT:      -9.1      2.439      4.902
REMARK  Name = 
REMARK  10 active torsions:
REMARK  status: ('A' for Active; 'I' for Inactive)
REMARK    1  A    between atoms: C_2  and  C_4
REMARK    2  A    between atoms: C_6  and  C_7
REMARK    3  A    between atoms: C_7  and  C_8
REMARK    4  A    between atoms: N_10  and  C_11
REMARK    5  A    between atoms: C_11  and  C_12
REMARK    6  A    between atoms: C_21  and  C_22
REMARK    7  A    between atoms: C_22  and  N_23
REMARK    8  A    between atoms: C_24  and  C_26
REMARK    9  A    between atoms: C_26  and  C_27
REMARK   10  A    between atoms: C_27  and  C_28
REMARK                            x       y       z     vdW  Elec       q    Type
REMARK                         _______ _______ _______ _____ _____    ______ ____
ROOT
ATOM      4  C   UNL     1      -1.887   3.079  24.765  0.00  0.00    +0.006 C 
ATOM      5  C   UNL     1      -1.287   2.667  24.376  0.00  0.00    +0.005 C 
ATOM      6  C   UNL     1      -1.464   2.213  23.710  0.00  0.00    +0.027 C 
ATOM     18  C   UNL     1      -2.241   2.171  23.434  0.00  0.00    -0.048 C 
ATOM     19  C   UNL     1      -2.417   1.717  22.768  0.00  0.00    +0.026 C 
ATOM     20  C   UNL     1      -2.840   2.583  23.824  0.00  0.00    -0.033 C 
ATOM     21  C   UNL     1      -2.663   3.037  24.489  0.00  0.00    +0.043 C 
ENDROOT
BRANCH   4   2
ATOM      1  C   UNL     1      -1.531   4.335  25.348  0.00  0.00    +0.000 C 
ATOM      2  C   UNL     1      -1.709   3.534  25.431  0.00  0.00    +0.000 C 
ATOM      3  C   UNL     1      -1.711   3.187  26.179  0.00  0.00    +0.000 C 
ENDBRANCH   4   2
BRANCH   6   7
ATOM      7  C   UNL     1      -0.865   1.801  23.321  0.00  0.00    +0.091 C 
BRANCH   7   8
ATOM      8  C   UNL     1      -0.407   1.252  23.733  0.00  0.00    +0.242 C 
ATOM      9  O   UNL     1       0.337   1.465  24.018  0.00  0.00    -0.273 OA
ATOM     10  N   UNL     1      -0.695   0.489  23.861  0.00  0.00    -0.199 NA
BRANCH  10  11
ATOM     11  C   UNL     1      -0.238  -0.060  24.274  0.00  0.00    +0.160 C 
BRANCH  11  12
ATOM     12  C   UNL     1      -0.582  -0.758  24.549  0.00  0.00    +0.081 A 
ATOM     13  N   UNL     1      -0.856  -1.321  24.014  0.00  0.00    -0.246 NA
ATOM     14  C   UNL     1      -1.200  -2.020  24.290  0.00  0.00    +0.099 A 
ATOM     15  C   UNL     1      -1.268  -2.152  25.101  0.00  0.00    +0.021 A 
ATOM     16  C   UNL     1      -0.994  -1.589  25.636  0.00  0.00    +0.003 A 
ATOM     17  C   UNL     1      -0.650  -0.891  25.361  0.00  0.00    +0.017 A 
ENDBRANCH  11  12
ENDBRANCH  10  11
ENDBRANCH   7   8
ENDBRANCH   6   7
BRANCH  21  22
ATOM     22  C   UNL     1      -3.262   3.449  24.879  0.00  0.00    +0.119 C 
BRANCH  22  23
ATOM     23  N   UNL     1      -4.004   3.104  24.979  0.00  0.00    -0.205 NA
ATOM     24  C   UNL     1      -4.642   3.562  25.226  0.00  0.00    +0.242 C 
ATOM     25  O   UNL     1      -4.539   4.368  25.375  0.00  0.00    -0.273 OA
BRANCH  24  26
ATOM     26  C   UNL     1      -5.385   3.217  25.326  0.00  0.00    +0.099 C 
BRANCH  26  27
ATOM     27  C   UNL     1      -5.546   2.768  25.999  0.00  0.00    +0.124 C 
BRANCH  27  28
ATOM     28  C   UNL     1      -6.197   2.263  26.014  0.00  0.00    +0.365 C 
ATOM     29  O   UNL     1      -6.537   2.049  26.733  0.00  0.00    -0.246 OA
ATOM     30  O   UNL     1      -6.509   1.973  25.307  0.00  0.00    -0.246 OA
ENDBRANCH  27  28
ENDBRANCH  26  27
ENDBRANCH  24  26
ENDBRANCH  22  23
ENDBRANCH  21  22
TORSDOF 10
ENDMDL
MODEL 10
REMARK VINA RESULT:      -9.1      2.010      3.494
REMARK  Name = 
REMARK  10 active torsions:
REMARK  status: ('A' for Active; 'I' for Inactive)
REMARK    1  A    between atoms: C_2  and  C_4
REMARK    2  A    between atoms: C_6  and  C_7
REMARK    3  A    between atoms: C_7  and  C_8
REMARK    4  A    between atoms: N_10  and  C_11
REMARK    5  A    between atoms: C_11  and  C_12
REMARK    6  A    between atoms: C_21  and  C_22
REMARK    7  A    between atoms: C_22  and  N_23
REMARK    8  A    between atoms: C_24  and  C_26
REMARK    9  A    between atoms: C_26  and  C_27
REMARK   10  A    between atoms: C_27  and  C_28
REMARK                            x       y       z     vdW  Elec       q    Type
REMARK                         _______ _______ _______ _____ _____    ______ ____
ROOT
ATOM      4  C   UNL     1      -2.199   2.213  23.729  0.00  0.00    +0.006 C 
ATOM      5  C   UNL     1      -2.615   2.864  24.020  0.00  0.00    +0.005 C 
ATOM      6  C   UNL     1      -2.390   3.211  24.734  0.00  0.00    +0.027 C 
ATOM     18  C   UNL     1      -1.751   2.907  25.157  0.00  0.00    -0.048 C 
ATOM     19  C   UNL     1      -1.526   3.254  25.871  0.00  0.00    +0.026 C 
ATOM     20  C   UNL     1      -1.336   2.256  24.866  0.00  0.00    -0.033 C 
ATOM     21  C   UNL     1      -1.560   1.909  24.153  0.00  0.00    +0.043 C 
ENDROOT
BRANCH   4   2
ATOM      1  C   UNL     1      -2.095   2.131  22.307  0.00  0.00    +0.000 C 
ATOM      2  C   UNL     1      -2.424   1.866  23.015  0.00  0.00    +0.000 C 
ATOM      3  C   UNL     1      -2.977   1.255  23.009  0.00  0.00    +0.000 C 
ENDBRANCH   4   2
BRANCH   6   7
ATOM      7  C   UNL     1      -2.805   3.862  25.024  0.00  0.00    +0.091 C 
BRANCH   7   8
ATOM      8  C   UNL     1      -3.621   3.916  24.907  0.00  0.00    +0.242 C 
ATOM      9  O   UNL     1      -3.920   4.391  24.302  0.00  0.00    -0.273 OA
ATOM     10  N   UNL     1      -4.136   3.496  25.394  0.00  0.00    -0.199 NA
BRANCH  10  11
ATOM     11  C   UNL     1      -4.952   3.550  25.277  0.00  0.00    +0.160 C 
BRANCH  11  12
ATOM     12  C   UNL     1      -5.444   2.934  25.518  0.00  0.00    +0.081 A 
ATOM     13  N   UNL     1      -5.636   2.848  26.315  0.00  0.00    -0.246 NA
ATOM     14  C   UNL     1      -6.130   2.231  26.556  0.00  0.00    +0.099 A 
ATOM     15  C   UNL     1      -6.430   1.702  25.999  0.00  0.00    +0.021 A 
ATOM     16  C   UNL     1      -6.238   1.789  25.202  0.00  0.00    +0.003 A 
ATOM     17  C   UNL     1      -5.745   2.405  24.961  0.00  0.00    +0.017 A 
ENDBRANCH  11  12
ENDBRANCH  10  11
ENDBRANCH   7   8
ENDBRANCH   6   7
BRANCH  21  22
ATOM     22  C   UNL     1      -1.145   1.258  23.861  0.00  0.00    +0.119 C 
BRANCH  22  23
ATOM     23  N   UNL     1      -1.013   0.603  24.344  0.00  0.00    -0.205 NA
ATOM     24  C   UNL     1      -0.420   0.063  24.154  0.00  0.00    +0.242 C 
ATOM     25  O   UNL     1       0.043   0.179  23.480  0.00  0.00    -0.273 OA
BRANCH  24  26
ATOM     26  C   UNL     1      -0.287  -0.593  24.637  0.00  0.00    +0.099 C 
BRANCH  26  27
ATOM     27  C   UNL     1      -0.593  -1.330  24.427  0.00  0.00    +0.124 C 
BRANCH  27  28
ATOM     28  C   UNL     1      -0.683  -1.918  24.998  0.00  0.00    +0.365 C 
ATOM     29  O   UNL     1      -1.344  -2.410  24.982  0.00  0.00    -0.246 OA
ATOM     30  O   UNL     1      -0.112  -2.013  25.585  0.00  0.00    -0.246 OA
ENDBRANCH  27  28
ENDBRANCH  26  27
ENDBRANCH  24  26
ENDBRANCH  22  23
ENDBRANCH  21  22
TORSDOF 10
ENDMDL
