REMARK  Name = 
REMARK  5 active torsions:
REMARK  status: ('A' for Active; 'I' for Inactive)
REMARK    1  A    between atoms: C_4  and  N_18
REMARK    2  A    between atoms: C_6  and  C_7
REMARK    3  A    between atoms: C_9  and  C_12
REMARK    4  A    between atoms: N_18  and  S_19
REMARK    5  A    between atoms: S_19  and  C_22
REMARK                            x       y       z     vdW  Elec       q    Type
REMARK                         _______ _______ _______ _____ _____    ______ ____
ROOT
ATOM      1  C   UNL     1      -1.943   3.808   0.000  0.00  0.00    +0.090 C 
ATOM      2  N   UNL     1      -1.608   3.054   0.000  0.00  0.00    -0.264 NA
ATOM      3  C   UNL     1      -0.801   2.883   0.000  0.00  0.00    +0.092 C 
ATOM      4  C   UNL     1      -0.715   2.062   0.000  0.00  0.00    +0.115 C 
ATOM      5  C   UNL     1      -1.468   1.727   0.000  0.00  0.00    +0.046 C 
ATOM      6  C   UNL     1      -2.020   2.340   0.000  0.00  0.00    +0.139 C 
ENDROOT
BRANCH   6   7
ATOM      7  C   UNL     1      -2.841   2.254   0.000  0.00  0.00    +0.251 A 
ATOM      8  N   UNL     1      -3.253   1.539   0.000  0.00  0.00    -0.190 NA
ATOM      9  C   UNL     1      -4.060   1.711   0.000  0.00  0.00    +0.203 A 
ATOM     10  N   UNL     1      -4.146   2.531   0.000  0.00  0.00    -0.056 NA
ATOM     11  O   UNL     1      -3.393   2.867   0.000  0.00  0.00    -0.336 OA
BRANCH   9  12
ATOM     12  C   UNL     1      -4.673   1.159   0.000  0.00  0.00    +0.042 A 
ATOM     13  C   UNL     1      -4.502   0.352   0.000  0.00  0.00    +0.024 A 
ATOM     14  C   UNL     1      -5.115  -0.200   0.000  0.00  0.00    +0.099 A 
ATOM     15  N   UNL     1      -5.899   0.055   0.000  0.00  0.00    -0.242 NA
ATOM     16  C   UNL     1      -6.071   0.862   0.000  0.00  0.00    +0.099 A 
ATOM     17  C   UNL     1      -5.458   1.414   0.000  0.00  0.00    +0.024 A 
ENDBRANCH   9  12
ENDBRANCH   6   7
BRANCH   4  18
ATOM     18  N   UNL     1       0.000   1.650   0.000  0.00  0.00    -0.078 NA
BRANCH  18  19
ATOM     19  S   UNL     1       0.000   0.825   0.000  0.00  0.00    +0.078 S 
ATOM     20  O   UNL     1      -0.825   0.825   0.000  0.00  0.00    -0.152 OA
ATOM     21  O   UNL     1       0.825   0.825   0.000  0.00  0.00    -0.152 OA
BRANCH  19  22
ATOM     22  C   UNL     1       0.000   0.000   0.000  0.00  0.00    +0.141 A 
ATOM     23  C   UNL     1      -0.715  -0.412   0.000  0.00  0.00    +0.022 A 
ATOM     24  C   UNL     1      -0.715  -1.238   0.000  0.00  0.00    +0.001 A 
ATOM     25  C   UNL     1       0.000  -1.650   0.000  0.00  0.00    +0.002 A 
ATOM     26  C   UNL     1       0.715  -1.238   0.000  0.00  0.00    +0.019 A 
ATOM     27  C   UNL     1       0.715  -0.412   0.000  0.00  0.00    +0.100 A 
ATOM     28  N   UNL     1       1.429   0.000   0.000  0.00  0.00    -0.242 NA
ATOM     29  C   UNL     1       2.143  -0.412   0.000  0.00  0.00    +0.099 A 
ATOM     30  C   UNL     1       2.143  -1.238   0.000  0.00  0.00    +0.021 A 
ATOM     31  C   UNL     1       1.429  -1.650   0.000  0.00  0.00    +0.003 A 
ENDBRANCH  19  22
ENDBRANCH  18  19
ENDBRANCH   4  18
TORSDOF 5
