MODEL 1
REMARK VINA RESULT:     -12.6      0.000      0.000
REMARK  Name = 
REMARK  6 active torsions:
REMARK  status: ('A' for Active; 'I' for Inactive)
REMARK    1  A    between atoms: C_4  and  N_23
REMARK    2  A    between atoms: C_6  and  C_7
REMARK    3  A    between atoms: C_9  and  C_12
REMARK    4  A    between atoms: C_15  and  O_16
REMARK    5  A    between atoms: O_16  and  C_17
REMARK    6  A    between atoms: C_24  and  C_26
REMARK                            x       y       z     vdW  Elec       q    Type
REMARK                         _______ _______ _______ _____ _____    ______ ____
ROOT
ATOM      7  C   UNL     1      -4.537   1.490  24.965  0.00  0.00    +0.251 A 
ATOM      8  N   UNL     1      -4.019   0.848  24.945  0.00  0.00    -0.190 NA
ATOM      9  C   UNL     1      -4.468   0.160  24.877  0.00  0.00    +0.203 A 
ATOM     10  N   UNL     1      -5.265   0.376  24.854  0.00  0.00    -0.056 NA
ATOM     11  O   UNL     1      -5.307   1.198  24.909  0.00  0.00    -0.336 OA
ENDROOT
BRANCH   7   6
ATOM      1  C   UNL     1      -5.531   2.794  25.696  0.00  0.00    +0.090 C 
ATOM      2  N   UNL     1      -4.780   2.883  25.367  0.00  0.00    -0.264 NA
ATOM      3  C   UNL     1      -4.354   3.588  25.315  0.00  0.00    +0.094 C 
ATOM      4  C   UNL     1      -3.635   3.424  24.947  0.00  0.00    +0.113 C 
ATOM      5  C   UNL     1      -3.616   2.618  24.771  0.00  0.00    +0.049 C 
ATOM      6  C   UNL     1      -4.323   2.283  25.030  0.00  0.00    +0.139 C 
BRANCH   4  23
ATOM     23  N   UNL     1      -3.038   3.970  24.783  0.00  0.00    -0.202 NA
ATOM     24  C   UNL     1      -2.379   4.022  25.277  0.00  0.00    +0.265 C 
ATOM     25  O   UNL     1      -2.318   3.528  25.935  0.00  0.00    -0.268 OA
BRANCH  24  26
ATOM     26  C   UNL     1      -1.783   4.568  25.114  0.00  0.00    +0.055 A 
ATOM     27  C   UNL     1      -1.030   4.306  24.902  0.00  0.00    +0.005 A 
ATOM     28  C   UNL     1      -0.434   4.851  24.739  0.00  0.00    +0.000 A 
ATOM     29  C   UNL     1      -0.589   5.660  24.788  0.00  0.00    +0.000 A 
ATOM     30  C   UNL     1      -1.343   5.923  25.000  0.00  0.00    +0.000 A 
ATOM     31  C   UNL     1      -1.939   5.377  25.164  0.00  0.00    +0.005 A 
ENDBRANCH  24  26
ENDBRANCH   4  23
ENDBRANCH   7   6
BRANCH   9  12
ATOM     12  C   UNL     1      -4.173  -0.610  24.837  0.00  0.00    +0.039 A 
ATOM     13  C   UNL     1      -4.306  -1.068  24.164  0.00  0.00    +0.006 A 
ATOM     14  C   UNL     1      -4.011  -1.838  24.124  0.00  0.00    +0.037 A 
ATOM     15  C   UNL     1      -3.584  -2.149  24.758  0.00  0.00    +0.147 A 
ATOM     21  C   UNL     1      -3.452  -1.690  25.431  0.00  0.00    +0.037 A 
ATOM     22  C   UNL     1      -3.747  -0.921  25.471  0.00  0.00    +0.006 A 
BRANCH  15  16
ATOM     16  O   UNL     1      -3.289  -2.919  24.718  0.00  0.00    -0.404 OA
BRANCH  16  17
ATOM     17  C   UNL     1      -2.563  -3.064  24.356  0.00  0.00    +0.575 C 
ATOM     18  F   UNL     1      -1.836  -3.210  23.994  0.00  0.00    -0.133 F 
ATOM     19  F   UNL     1      -2.175  -2.884  25.062  0.00  0.00    -0.133 F 
ATOM     20  F   UNL     1      -2.950  -3.245  23.651  0.00  0.00    -0.133 F 
ENDBRANCH  16  17
ENDBRANCH  15  16
ENDBRANCH   9  12
TORSDOF 6
ENDMDL
MODEL 2
REMARK VINA RESULT:     -11.3      2.825      6.034
REMARK  Name = 
REMARK  6 active torsions:
REMARK  status: ('A' for Active; 'I' for Inactive)
REMARK    1  A    between atoms: C_4  and  N_23
REMARK    2  A    between atoms: C_6  and  C_7
REMARK    3  A    between atoms: C_9  and  C_12
REMARK    4  A    between atoms: C_15  and  O_16
REMARK    5  A    between atoms: O_16  and  C_17
REMARK    6  A    between atoms: C_24  and  C_26
REMARK                            x       y       z     vdW  Elec       q    Type
REMARK                         _______ _______ _______ _____ _____    ______ ____
ROOT
ATOM      7  C   UNL     1      -4.408   2.399  25.363  0.00  0.00    +0.251 A 
ATOM      8  N   UNL     1      -3.640   2.660  25.212  0.00  0.00    -0.190 NA
ATOM      9  C   UNL     1      -3.584   3.445  25.462  0.00  0.00    +0.203 A 
ATOM     10  N   UNL     1      -4.317   3.669  25.767  0.00  0.00    -0.056 NA
ATOM     11  O   UNL     1      -4.827   3.022  25.706  0.00  0.00    -0.336 OA
ENDROOT
BRANCH   7   6
ATOM      1  C   UNL     1      -6.083   2.017  24.844  0.00  0.00    +0.090 C 
ATOM      2  N   UNL     1      -5.476   1.472  24.961  0.00  0.00    -0.264 NA
ATOM      3  C   UNL     1      -5.531   0.655  24.860  0.00  0.00    +0.094 C 
ATOM      4  C   UNL     1      -4.796   0.326  25.037  0.00  0.00    +0.113 C 
ATOM      5  C   UNL     1      -4.286   0.940  25.246  0.00  0.00    +0.049 C 
ATOM      6  C   UNL     1      -4.705   1.648  25.200  0.00  0.00    +0.139 C 
BRANCH   4  23
ATOM     23  N   UNL     1      -4.604  -0.476  25.008  0.00  0.00    -0.202 NA
ATOM     24  C   UNL     1      -4.107  -0.761  24.414  0.00  0.00    +0.265 C 
ATOM     25  O   UNL     1      -3.802  -0.243  23.848  0.00  0.00    -0.268 OA
BRANCH  24  26
ATOM     26  C   UNL     1      -3.914  -1.562  24.385  0.00  0.00    +0.055 A 
ATOM     27  C   UNL     1      -3.357  -1.872  24.907  0.00  0.00    +0.005 A 
ATOM     28  C   UNL     1      -3.165  -2.674  24.879  0.00  0.00    +0.000 A 
ATOM     29  C   UNL     1      -3.530  -3.166  24.327  0.00  0.00    +0.000 A 
ATOM     30  C   UNL     1      -4.088  -2.856  23.803  0.00  0.00    +0.000 A 
ATOM     31  C   UNL     1      -4.280  -2.054  23.832  0.00  0.00    +0.005 A 
ENDBRANCH  24  26
ENDBRANCH   4  23
ENDBRANCH   7   6
BRANCH   9  12
ATOM     12  C   UNL     1      -2.912   3.922  25.414  0.00  0.00    +0.039 A 
ATOM     13  C   UNL     1      -2.207   3.676  25.765  0.00  0.00    +0.006 A 
ATOM     14  C   UNL     1      -1.535   4.153  25.718  0.00  0.00    +0.037 A 
ATOM     15  C   UNL     1      -1.569   4.875  25.320  0.00  0.00    +0.147 A 
ATOM     21  C   UNL     1      -2.275   5.120  24.970  0.00  0.00    +0.037 A 
ATOM     22  C   UNL     1      -2.946   4.644  25.017  0.00  0.00    +0.006 A 
BRANCH  15  16
ATOM     16  O   UNL     1      -0.897   5.352  25.273  0.00  0.00    -0.404 OA
BRANCH  16  17
ATOM     17  C   UNL     1      -0.434   5.346  24.590  0.00  0.00    +0.575 C 
ATOM     18  F   UNL     1       0.029   5.340  23.907  0.00  0.00    -0.133 F 
ATOM     19  F   UNL     1      -0.818   6.026  24.324  0.00  0.00    -0.133 F 
ATOM     20  F   UNL     1      -0.050   4.666  24.856  0.00  0.00    -0.133 F 
ENDBRANCH  16  17
ENDBRANCH  15  16
ENDBRANCH   9  12
TORSDOF 6
ENDMDL
MODEL 3
REMARK VINA RESULT:     -11.0      2.237      3.071
REMARK  Name = 
REMARK  6 active torsions:
REMARK  status: ('A' for Active; 'I' for Inactive)
REMARK    1  A    between atoms: C_4  and  N_23
REMARK    2  A    between atoms: C_6  and  C_7
REMARK    3  A    between atoms: C_9  and  C_12
REMARK    4  A    between atoms: C_15  and  O_16
REMARK    5  A    between atoms: O_16  and  C_17
REMARK    6  A    between atoms: C_24  and  C_26
REMARK                            x       y       z     vdW  Elec       q    Type
REMARK                         _______ _______ _______ _____ _____    ______ ____
ROOT
ATOM      7  C   UNL     1      -0.680   0.116  24.910  0.00  0.00    +0.251 A 
ATOM      8  N   UNL     1      -1.414  -0.198  24.701  0.00  0.00    -0.190 NA
ATOM      9  C   UNL     1      -1.440  -0.980  24.962  0.00  0.00    +0.203 A 
ATOM     10  N   UNL     1      -0.722  -1.150  25.333  0.00  0.00    -0.056 NA
ATOM     11  O   UNL     1      -0.252  -0.472  25.301  0.00  0.00    -0.336 OA
ENDROOT
BRANCH   7   6
ATOM      1  C   UNL     1       0.655   0.573  23.801  0.00  0.00    +0.090 C 
ATOM      2  N   UNL     1       0.195   1.093  24.246  0.00  0.00    -0.264 NA
ATOM      3  C   UNL     1       0.267   1.915  24.259  0.00  0.00    +0.094 C 
ATOM      4  C   UNL     1      -0.302   2.212  24.776  0.00  0.00    +0.113 C 
ATOM      5  C   UNL     1      -0.726   1.574  25.083  0.00  0.00    +0.049 C 
ATOM      6  C   UNL     1      -0.419   0.883  24.756  0.00  0.00    +0.139 C 
BRANCH   4  23
ATOM     23  N   UNL     1      -0.425   3.008  24.956  0.00  0.00    -0.202 NA
ATOM     24  C   UNL     1      -1.053   3.417  24.609  0.00  0.00    +0.265 C 
ATOM     25  O   UNL     1      -1.557   3.029  24.084  0.00  0.00    -0.268 OA
BRANCH  24  26
ATOM     26  C   UNL     1      -1.177   4.212  24.788  0.00  0.00    +0.055 A 
ATOM     27  C   UNL     1      -1.855   4.442  25.199  0.00  0.00    +0.005 A 
ATOM     28  C   UNL     1      -1.979   5.238  25.378  0.00  0.00    +0.000 A 
ATOM     29  C   UNL     1      -1.425   5.804  25.146  0.00  0.00    +0.000 A 
ATOM     30  C   UNL     1      -0.747   5.574  24.736  0.00  0.00    +0.000 A 
ATOM     31  C   UNL     1      -0.623   4.778  24.557  0.00  0.00    +0.005 A 
ENDBRANCH  24  26
ENDBRANCH   4  23
ENDBRANCH   7   6
BRANCH   9  12
ATOM     12  C   UNL     1      -2.073  -1.502  24.869  0.00  0.00    +0.039 A 
ATOM     13  C   UNL     1      -2.793  -1.346  25.241  0.00  0.00    +0.006 A 
ATOM     14  C   UNL     1      -3.426  -1.867  25.148  0.00  0.00    +0.037 A 
ATOM     15  C   UNL     1      -3.338  -2.544  24.684  0.00  0.00    +0.147 A 
ATOM     21  C   UNL     1      -2.618  -2.699  24.313  0.00  0.00    +0.037 A 
ATOM     22  C   UNL     1      -1.985  -2.178  24.406  0.00  0.00    +0.006 A 
BRANCH  15  16
ATOM     16  O   UNL     1      -3.971  -3.065  24.591  0.00  0.00    -0.404 OA
BRANCH  16  17
ATOM     17  C   UNL     1      -4.391  -3.082  23.881  0.00  0.00    +0.575 C 
ATOM     18  F   UNL     1      -4.811  -3.098  23.171  0.00  0.00    -0.133 F 
ATOM     19  F   UNL     1      -4.781  -2.387  24.095  0.00  0.00    -0.133 F 
ATOM     20  F   UNL     1      -4.001  -3.777  23.667  0.00  0.00    -0.133 F 
ENDBRANCH  16  17
ENDBRANCH  15  16
ENDBRANCH   9  12
TORSDOF 6
ENDMDL
MODEL 4
REMARK VINA RESULT:     -10.5      5.079      6.236
REMARK  Name = 
REMARK  6 active torsions:
REMARK  status: ('A' for Active; 'I' for Inactive)
REMARK    1  A    between atoms: C_4  and  N_23
REMARK    2  A    between atoms: C_6  and  C_7
REMARK    3  A    between atoms: C_9  and  C_12
REMARK    4  A    between atoms: C_15  and  O_16
REMARK    5  A    between atoms: O_16  and  C_17
REMARK    6  A    between atoms: C_24  and  C_26
REMARK                            x       y       z     vdW  Elec       q    Type
REMARK                         _______ _______ _______ _____ _____    ______ ____
ROOT
ATOM      7  C   UNL     1       0.464   0.182  23.298  0.00  0.00    +0.251 A 
ATOM      8  N   UNL     1       1.237   0.359  23.527  0.00  0.00    -0.190 NA
ATOM      9  C   UNL     1       1.743   0.128  22.917  0.00  0.00    +0.203 A 
ATOM     10  N   UNL     1       1.282  -0.191  22.311  0.00  0.00    -0.056 NA
ATOM     11  O   UNL     1       0.492  -0.159  22.546  0.00  0.00    -0.336 OA
ENDROOT
BRANCH   7   6
ATOM      1  C   UNL     1      -0.275  -0.953  24.476  0.00  0.00    +0.090 C 
ATOM      2  N   UNL     1      -0.557  -0.202  24.284  0.00  0.00    -0.264 NA
ATOM      3  C   UNL     1      -1.227   0.160  24.600  0.00  0.00    +0.094 C 
ATOM      4  C   UNL     1      -1.301   0.905  24.254  0.00  0.00    +0.113 C 
ATOM      5  C   UNL     1      -0.677   1.004  23.724  0.00  0.00    +0.049 C 
ATOM      6  C   UNL     1      -0.216   0.320  23.742  0.00  0.00    +0.139 C 
BRANCH   4  23
ATOM     23  N   UNL     1      -1.896   1.456  24.410  0.00  0.00    -0.202 NA
ATOM     24  C   UNL     1      -2.633   1.382  24.044  0.00  0.00    +0.265 C 
ATOM     25  O   UNL     1      -2.774   0.758  23.523  0.00  0.00    -0.268 OA
BRANCH  24  26
ATOM     26  C   UNL     1      -3.228   1.932  24.200  0.00  0.00    +0.055 A 
ATOM     27  C   UNL     1      -3.237   2.654  23.802  0.00  0.00    +0.005 A 
ATOM     28  C   UNL     1      -3.832   3.203  23.957  0.00  0.00    +0.000 A 
ATOM     29  C   UNL     1      -4.418   3.031  24.512  0.00  0.00    +0.000 A 
ATOM     30  C   UNL     1      -4.408   2.309  24.911  0.00  0.00    +0.000 A 
ATOM     31  C   UNL     1      -3.814   1.759  24.755  0.00  0.00    +0.005 A 
ENDBRANCH  24  26
ENDBRANCH   4  23
ENDBRANCH   7   6
BRANCH   9  12
ATOM     12  C   UNL     1       2.564   0.204  22.913  0.00  0.00    +0.039 A 
ATOM     13  C   UNL     1       3.040  -0.456  23.048  0.00  0.00    +0.006 A 
ATOM     14  C   UNL     1       3.862  -0.381  23.045  0.00  0.00    +0.037 A 
ATOM     15  C   UNL     1       4.207   0.355  22.906  0.00  0.00    +0.147 A 
ATOM     21  C   UNL     1       3.731   1.016  22.771  0.00  0.00    +0.037 A 
ATOM     22  C   UNL     1       2.910   0.940  22.775  0.00  0.00    +0.006 A 
BRANCH  15  16
ATOM     16  O   UNL     1       5.029   0.431  22.903  0.00  0.00    -0.404 OA
BRANCH  16  17
ATOM     17  C   UNL     1       5.464   0.237  23.576  0.00  0.00    +0.575 C 
ATOM     18  F   UNL     1       5.899   0.042  24.249  0.00  0.00    -0.133 F 
ATOM     19  F   UNL     1       5.636  -0.502  23.251  0.00  0.00    -0.133 F 
ATOM     20  F   UNL     1       5.293   0.975  23.900  0.00  0.00    -0.133 F 
ENDBRANCH  16  17
ENDBRANCH  15  16
ENDBRANCH   9  12
TORSDOF 6
ENDMDL
MODEL 5
REMARK VINA RESULT:      -9.8      3.674      5.080
REMARK  Name = 
REMARK  6 active torsions:
REMARK  status: ('A' for Active; 'I' for Inactive)
REMARK    1  A    between atoms: C_4  and  N_23
REMARK    2  A    between atoms: C_6  and  C_7
REMARK    3  A    between atoms: C_9  and  C_12
REMARK    4  A    between atoms: C_15  and  O_16
REMARK    5  A    between atoms: O_16  and  C_17
REMARK    6  A    between atoms: C_24  and  C_26
REMARK                            x       y       z     vdW  Elec       q    Type
REMARK                         _______ _______ _______ _____ _____    ______ ____
ROOT
ATOM      7  C   UNL     1      -1.457  -0.500  24.560  0.00  0.00    +0.251 A 
ATOM      8  N   UNL     1      -0.963  -0.099  24.034  0.00  0.00    -0.190 NA
ATOM      9  C   UNL     1      -0.209  -0.427  24.093  0.00  0.00    +0.203 A 
ATOM     10  N   UNL     1      -0.236  -1.031  24.655  0.00  0.00    -0.056 NA
ATOM     11  O   UNL     1      -1.007  -1.076  24.944  0.00  0.00    -0.336 OA
ENDROOT
BRANCH   7   6
ATOM      1  C   UNL     1      -2.801  -1.648  24.249  0.00  0.00    +0.090 C 
ATOM      2  N   UNL     1      -2.877  -0.879  24.538  0.00  0.00    -0.264 NA
ATOM      3  C   UNL     1      -3.584  -0.502  24.734  0.00  0.00    +0.094 C 
ATOM      4  C   UNL     1      -3.403   0.257  24.999  0.00  0.00    +0.113 C 
ATOM      5  C   UNL     1      -2.584   0.351  24.966  0.00  0.00    +0.049 C 
ATOM      6  C   UNL     1      -2.259  -0.351  24.681  0.00  0.00    +0.139 C 
BRANCH   4  23
ATOM     23  N   UNL     1      -3.946   0.825  25.252  0.00  0.00    -0.202 NA
ATOM     24  C   UNL     1      -4.212   1.405  24.729  0.00  0.00    +0.265 C 
ATOM     25  O   UNL     1      -3.933   1.417  23.952  0.00  0.00    -0.268 OA
BRANCH  24  26
ATOM     26  C   UNL     1      -4.754   1.973  24.981  0.00  0.00    +0.055 A 
ATOM     27  C   UNL     1      -5.545   1.767  25.092  0.00  0.00    +0.005 A 
ATOM     28  C   UNL     1      -6.088   2.335  25.344  0.00  0.00    +0.000 A 
ATOM     29  C   UNL     1      -5.839   3.108  25.487  0.00  0.00    +0.000 A 
ATOM     30  C   UNL     1      -5.048   3.314  25.376  0.00  0.00    +0.000 A 
ATOM     31  C   UNL     1      -4.505   2.747  25.124  0.00  0.00    +0.005 A 
ENDBRANCH  24  26
ENDBRANCH   4  23
ENDBRANCH   7   6
BRANCH   9  12
ATOM     12  C   UNL     1       0.457  -0.193  23.665  0.00  0.00    +0.039 A 
ATOM     13  C   UNL     1       0.728  -0.655  23.038  0.00  0.00    +0.006 A 
ATOM     14  C   UNL     1       1.393  -0.421  22.610  0.00  0.00    +0.037 A 
ATOM     15  C   UNL     1       1.787   0.276  22.809  0.00  0.00    +0.147 A 
ATOM     21  C   UNL     1       1.516   0.738  23.436  0.00  0.00    +0.037 A 
ATOM     22  C   UNL     1       0.851   0.504  23.864  0.00  0.00    +0.006 A 
BRANCH  15  16
ATOM     16  O   UNL     1       2.453   0.510  22.380  0.00  0.00    -0.404 OA
BRANCH  16  17
ATOM     17  C   UNL     1       3.190   0.541  22.748  0.00  0.00    +0.575 C 
ATOM     18  F   UNL     1       3.928   0.571  23.116  0.00  0.00    -0.133 F 
ATOM     19  F   UNL     1       3.260  -0.278  22.676  0.00  0.00    -0.133 F 
ATOM     20  F   UNL     1       3.121   1.359  22.821  0.00  0.00    -0.133 F 
ENDBRANCH  16  17
ENDBRANCH  15  16
ENDBRANCH   9  12
TORSDOF 6
ENDMDL
MODEL 6
REMARK VINA RESULT:      -9.8      3.995      5.255
REMARK  Name = 
REMARK  6 active torsions:
REMARK  status: ('A' for Active; 'I' for Inactive)
REMARK    1  A    between atoms: C_4  and  N_23
REMARK    2  A    between atoms: C_6  and  C_7
REMARK    3  A    between atoms: C_9  and  C_12
REMARK    4  A    between atoms: C_15  and  O_16
REMARK    5  A    between atoms: O_16  and  C_17
REMARK    6  A    between atoms: C_24  and  C_26
REMARK                            x       y       z     vdW  Elec       q    Type
REMARK                         _______ _______ _______ _____ _____    ______ ____
ROOT
ATOM      7  C   UNL     1      -2.373  -0.279  24.496  0.00  0.00    +0.251 A 
ATOM      8  N   UNL     1      -2.704   0.463  24.641  0.00  0.00    -0.190 NA
ATOM      9  C   UNL     1      -3.524   0.389  24.595  0.00  0.00    +0.203 A 
ATOM     10  N   UNL     1      -3.700  -0.399  24.423  0.00  0.00    -0.056 NA
ATOM     11  O   UNL     1      -2.989  -0.812  24.362  0.00  0.00    -0.336 OA
ENDROOT
BRANCH   7   6
ATOM      1  C   UNL     1      -1.424  -0.939  25.870  0.00  0.00    +0.090 C 
ATOM      2  N   UNL     1      -1.131  -0.760  25.120  0.00  0.00    -0.264 NA
ATOM      3  C   UNL     1      -0.351  -0.854  24.869  0.00  0.00    +0.094 C 
ATOM      4  C   UNL     1      -0.305  -0.609  24.083  0.00  0.00    +0.113 C 
ATOM      5  C   UNL     1      -1.057  -0.363  23.848  0.00  0.00    +0.049 C 
ATOM      6  C   UNL     1      -1.568  -0.457  24.488  0.00  0.00    +0.139 C 
BRANCH   4  23
ATOM     23  N   UNL     1       0.374  -0.609  23.614  0.00  0.00    -0.202 NA
ATOM     24  C   UNL     1       0.754   0.103  23.438  0.00  0.00    +0.265 C 
ATOM     25  O   UNL     1       0.454   0.813  23.731  0.00  0.00    -0.268 OA
BRANCH  24  26
ATOM     26  C   UNL     1       1.432   0.104  22.969  0.00  0.00    +0.055 A 
ATOM     27  C   UNL     1       1.423  -0.260  22.229  0.00  0.00    +0.005 A 
ATOM     28  C   UNL     1       2.102  -0.259  21.760  0.00  0.00    +0.000 A 
ATOM     29  C   UNL     1       2.790   0.105  22.032  0.00  0.00    +0.000 A 
ATOM     30  C   UNL     1       2.800   0.469  22.772  0.00  0.00    +0.000 A 
ATOM     31  C   UNL     1       2.121   0.469  23.241  0.00  0.00    +0.005 A 
ENDBRANCH  24  26
ENDBRANCH   4  23
ENDBRANCH   7   6
BRANCH   9  12
ATOM     12  C   UNL     1      -4.073   0.996  24.704  0.00  0.00    +0.039 A 
ATOM     13  C   UNL     1      -4.709   0.890  25.218  0.00  0.00    +0.006 A 
ATOM     14  C   UNL     1      -5.257   1.497  25.326  0.00  0.00    +0.037 A 
ATOM     15  C   UNL     1      -5.169   2.210  24.920  0.00  0.00    +0.147 A 
ATOM     21  C   UNL     1      -4.532   2.315  24.406  0.00  0.00    +0.037 A 
ATOM     22  C   UNL     1      -3.985   1.709  24.297  0.00  0.00    +0.006 A 
BRANCH  15  16
ATOM     16  O   UNL     1      -5.717   2.817  25.028  0.00  0.00    -0.404 OA
BRANCH  16  17
ATOM     17  C   UNL     1      -5.549   3.438  25.544  0.00  0.00    +0.575 C 
ATOM     18  F   UNL     1      -5.380   4.060  26.060  0.00  0.00    -0.133 F 
ATOM     19  F   UNL     1      -5.206   3.860  24.924  0.00  0.00    -0.133 F 
ATOM     20  F   UNL     1      -5.891   3.016  26.165  0.00  0.00    -0.133 F 
ENDBRANCH  16  17
ENDBRANCH  15  16
ENDBRANCH   9  12
TORSDOF 6
ENDMDL
MODEL 7
REMARK VINA RESULT:      -9.7      5.335      7.126
REMARK  Name = 
REMARK  6 active torsions:
REMARK  status: ('A' for Active; 'I' for Inactive)
REMARK    1  A    between atoms: C_4  and  N_23
REMARK    2  A    between atoms: C_6  and  C_7
REMARK    3  A    between atoms: C_9  and  C_12
REMARK    4  A    between atoms: C_15  and  O_16
REMARK    5  A    between atoms: O_16  and  C_17
REMARK    6  A    between atoms: C_24  and  C_26
REMARK                            x       y       z     vdW  Elec       q    Type
REMARK                         _______ _______ _______ _____ _____    ______ ____
ROOT
ATOM      7  C   UNL     1       0.866   0.212  23.117  0.00  0.00    +0.251 A 
ATOM      8  N   UNL     1       1.627   0.294  23.425  0.00  0.00    -0.190 NA
ATOM      9  C   UNL     1       2.165   0.171  22.811  0.00  0.00    +0.203 A 
ATOM     10  N   UNL     1       1.736   0.012  22.124  0.00  0.00    -0.056 NA
ATOM     11  O   UNL     1       0.933   0.037  22.313  0.00  0.00    -0.336 OA
ENDROOT
BRANCH   7   6
ATOM      1  C   UNL     1       0.342   1.662  24.036  0.00  0.00    +0.090 C 
ATOM      2  N   UNL     1      -0.079   0.957  23.962  0.00  0.00    -0.264 NA
ATOM      3  C   UNL     1      -0.815   0.794  24.296  0.00  0.00    +0.094 C 
ATOM      4  C   UNL     1      -1.029   0.027  24.081  0.00  0.00    +0.113 C 
ATOM      5  C   UNL     1      -0.425  -0.284  23.613  0.00  0.00    +0.049 C 
ATOM      6  C   UNL     1       0.162   0.290  23.539  0.00  0.00    +0.139 C 
BRANCH   4  23
ATOM     23  N   UNL     1      -1.725  -0.361  24.296  0.00  0.00    -0.202 NA
ATOM     24  C   UNL     1      -1.703  -0.973  24.849  0.00  0.00    +0.265 C 
ATOM     25  O   UNL     1      -0.984  -1.197  25.186  0.00  0.00    -0.268 OA
BRANCH  24  26
ATOM     26  C   UNL     1      -2.398  -1.361  25.064  0.00  0.00    +0.055 A 
ATOM     27  C   UNL     1      -2.891  -1.035  25.639  0.00  0.00    +0.005 A 
ATOM     28  C   UNL     1      -3.587  -1.423  25.854  0.00  0.00    +0.000 A 
ATOM     29  C   UNL     1      -3.789  -2.137  25.494  0.00  0.00    +0.000 A 
ATOM     30  C   UNL     1      -3.295  -2.463  24.918  0.00  0.00    +0.000 A 
ATOM     31  C   UNL     1      -2.600  -2.075  24.703  0.00  0.00    +0.005 A 
ENDBRANCH  24  26
ENDBRANCH   4  23
ENDBRANCH   7   6
BRANCH   9  12
ATOM     12  C   UNL     1       2.987   0.201  22.874  0.00  0.00    +0.039 A 
ATOM     13  C   UNL     1       3.405  -0.461  23.134  0.00  0.00    +0.006 A 
ATOM     14  C   UNL     1       4.228  -0.431  23.196  0.00  0.00    +0.037 A 
ATOM     15  C   UNL     1       4.631   0.261  22.998  0.00  0.00    +0.147 A 
ATOM     21  C   UNL     1       4.212   0.922  22.738  0.00  0.00    +0.037 A 
ATOM     22  C   UNL     1       3.391   0.892  22.676  0.00  0.00    +0.006 A 
BRANCH  15  16
ATOM     16  O   UNL     1       5.454   0.291  23.061  0.00  0.00    -0.404 OA
BRANCH  16  17
ATOM     17  C   UNL     1       5.818   0.135  23.784  0.00  0.00    +0.575 C 
ATOM     18  F   UNL     1       6.183  -0.021  24.507  0.00  0.00    -0.133 F 
ATOM     19  F   UNL     1       5.990  -0.632  23.532  0.00  0.00    -0.133 F 
ATOM     20  F   UNL     1       5.647   0.901  24.035  0.00  0.00    -0.133 F 
ENDBRANCH  16  17
ENDBRANCH  15  16
ENDBRANCH   9  12
TORSDOF 6
ENDMDL
MODEL 8
REMARK VINA RESULT:      -9.6      3.526      6.696
REMARK  Name = 
REMARK  6 active torsions:
REMARK  status: ('A' for Active; 'I' for Inactive)
REMARK    1  A    between atoms: C_4  and  N_23
REMARK    2  A    between atoms: C_6  and  C_7
REMARK    3  A    between atoms: C_9  and  C_12
REMARK    4  A    between atoms: C_15  and  O_16
REMARK    5  A    between atoms: O_16  and  C_17
REMARK    6  A    between atoms: C_24  and  C_26
REMARK                            x       y       z     vdW  Elec       q    Type
REMARK                         _______ _______ _______ _____ _____    ______ ____
ROOT
ATOM      7  C   UNL     1      -0.741   1.125  25.270  0.00  0.00    +0.251 A 
ATOM      8  N   UNL     1      -1.129   1.823  25.062  0.00  0.00    -0.190 NA
ATOM      9  C   UNL     1      -0.836   2.430  25.536  0.00  0.00    +0.203 A 
ATOM     10  N   UNL     1      -0.265   2.108  26.039  0.00  0.00    -0.056 NA
ATOM     11  O   UNL     1      -0.207   1.301  25.874  0.00  0.00    -0.336 OA
ENDROOT
BRANCH   7   6
ATOM      1  C   UNL     1       0.354   0.295  24.114  0.00  0.00    +0.090 C 
ATOM      2  N   UNL     1      -0.361   0.000  24.402  0.00  0.00    -0.264 NA
ATOM      3  C   UNL     1      -0.698  -0.727  24.210  0.00  0.00    +0.094 C 
ATOM      4  C   UNL     1      -1.409  -0.795  24.622  0.00  0.00    +0.113 C 
ATOM      5  C   UNL     1      -1.512  -0.110  25.069  0.00  0.00    +0.049 C 
ATOM      6  C   UNL     1      -0.864   0.382  24.934  0.00  0.00    +0.139 C 
BRANCH   4  23
ATOM     23  N   UNL     1      -1.927  -1.437  24.592  0.00  0.00    -0.202 NA
ATOM     24  C   UNL     1      -2.700  -1.332  24.320  0.00  0.00    +0.265 C 
ATOM     25  O   UNL     1      -2.953  -0.584  24.079  0.00  0.00    -0.268 OA
BRANCH  24  26
ATOM     26  C   UNL     1      -3.218  -1.972  24.290  0.00  0.00    +0.055 A 
ATOM     27  C   UNL     1      -3.040  -2.667  24.698  0.00  0.00    +0.005 A 
ATOM     28  C   UNL     1      -3.558  -3.307  24.668  0.00  0.00    +0.000 A 
ATOM     29  C   UNL     1      -4.256  -3.254  24.230  0.00  0.00    +0.000 A 
ATOM     30  C   UNL     1      -4.434  -2.559  23.822  0.00  0.00    +0.000 A 
ATOM     31  C   UNL     1      -3.915  -1.918  23.852  0.00  0.00    +0.005 A 
ENDBRANCH  24  26
ENDBRANCH   4  23
ENDBRANCH   7   6
BRANCH   9  12
ATOM     12  C   UNL     1      -1.071   3.220  25.513  0.00  0.00    +0.039 A 
ATOM     13  C   UNL     1      -1.797   3.444  25.835  0.00  0.00    +0.006 A 
ATOM     14  C   UNL     1      -2.033   4.234  25.812  0.00  0.00    +0.037 A 
ATOM     15  C   UNL     1      -1.542   4.801  25.467  0.00  0.00    +0.147 A 
ATOM     21  C   UNL     1      -0.816   4.577  25.146  0.00  0.00    +0.037 A 
ATOM     22  C   UNL     1      -0.581   3.787  25.169  0.00  0.00    +0.006 A 
BRANCH  15  16
ATOM     16  O   UNL     1      -1.777   5.592  25.444  0.00  0.00    -0.404 OA
BRANCH  16  17
ATOM     17  C   UNL     1      -1.852   5.979  24.720  0.00  0.00    +0.575 C 
ATOM     18  F   UNL     1      -1.927   6.366  23.995  0.00  0.00    -0.133 F 
ATOM     19  F   UNL     1      -1.113   6.329  24.831  0.00  0.00    -0.133 F 
ATOM     20  F   UNL     1      -2.591   5.629  24.609  0.00  0.00    -0.133 F 
ENDBRANCH  16  17
ENDBRANCH  15  16
ENDBRANCH   9  12
TORSDOF 6
ENDMDL
MODEL 9
REMARK VINA RESULT:      -9.5      3.636      5.215
REMARK  Name = 
REMARK  6 active torsions:
REMARK  status: ('A' for Active; 'I' for Inactive)
REMARK    1  A    between atoms: C_4  and  N_23
REMARK    2  A    between atoms: C_6  and  C_7
REMARK    3  A    between atoms: C_9  and  C_12
REMARK    4  A    between atoms: C_15  and  O_16
REMARK    5  A    between atoms: O_16  and  C_17
REMARK    6  A    between atoms: C_24  and  C_26
REMARK                            x       y       z     vdW  Elec       q    Type
REMARK                         _______ _______ _______ _____ _____    ______ ____
ROOT
ATOM      7  C   UNL     1      -1.478   3.033  24.931  0.00  0.00    +0.251 A 
ATOM      8  N   UNL     1      -2.217   2.678  25.031  0.00  0.00    -0.190 NA
ATOM      9  C   UNL     1      -2.786   3.274  25.043  0.00  0.00    +0.203 A 
ATOM     10  N   UNL     1      -2.400   3.998  24.950  0.00  0.00    -0.056 NA
ATOM     11  O   UNL     1      -1.592   3.848  24.880  0.00  0.00    -0.336 OA
ENDROOT
BRANCH   7   6
ATOM      1  C   UNL     1      -0.418   2.620  26.319  0.00  0.00    +0.090 C 
ATOM      2  N   UNL     1      -0.266   2.451  25.527  0.00  0.00    -0.264 NA
ATOM      3  C   UNL     1       0.399   2.062  25.233  0.00  0.00    +0.094 C 
ATOM      4  C   UNL     1       0.323   2.011  24.413  0.00  0.00    +0.113 C 
ATOM      5  C   UNL     1      -0.389   2.369  24.200  0.00  0.00    +0.049 C 
ATOM      6  C   UNL     1      -0.754   2.640  24.888  0.00  0.00    +0.139 C 
BRANCH   4  23
ATOM     23  N   UNL     1       0.865   1.664  23.896  0.00  0.00    -0.202 NA
ATOM     24  C   UNL     1       0.788   0.868  23.692  0.00  0.00    +0.265 C 
ATOM     25  O   UNL     1       0.170   0.420  24.005  0.00  0.00    -0.268 OA
BRANCH  24  26
ATOM     26  C   UNL     1       1.330   0.520  23.176  0.00  0.00    +0.055 A 
ATOM     27  C   UNL     1       1.071  -0.020  22.609  0.00  0.00    +0.005 A 
ATOM     28  C   UNL     1       1.612  -0.367  22.093  0.00  0.00    +0.000 A 
ATOM     29  C   UNL     1       2.413  -0.175  22.143  0.00  0.00    +0.000 A 
ATOM     30  C   UNL     1       2.672   0.365  22.711  0.00  0.00    +0.000 A 
ATOM     31  C   UNL     1       2.131   0.713  23.227  0.00  0.00    +0.005 A 
ENDBRANCH  24  26
ENDBRANCH   4  23
ENDBRANCH   7   6
BRANCH   9  12
ATOM     12  C   UNL     1      -3.599   3.167  25.132  0.00  0.00    +0.039 A 
ATOM     13  C   UNL     1      -4.007   3.578  25.719  0.00  0.00    +0.006 A 
ATOM     14  C   UNL     1      -4.821   3.470  25.809  0.00  0.00    +0.037 A 
ATOM     15  C   UNL     1      -5.225   2.951  25.311  0.00  0.00    +0.147 A 
ATOM     21  C   UNL     1      -4.816   2.540  24.724  0.00  0.00    +0.037 A 
ATOM     22  C   UNL     1      -4.004   2.648  24.634  0.00  0.00    +0.006 A 
BRANCH  15  16
ATOM     16  O   UNL     1      -6.039   2.843  25.400  0.00  0.00    -0.404 OA
BRANCH  16  17
ATOM     17  C   UNL     1      -6.330   2.131  25.696  0.00  0.00    +0.575 C 
ATOM     18  F   UNL     1      -6.622   1.418  25.993  0.00  0.00    -0.133 F 
ATOM     19  F   UNL     1      -6.162   2.381  26.464  0.00  0.00    -0.133 F 
ATOM     20  F   UNL     1      -6.498   1.881  24.929  0.00  0.00    -0.133 F 
ENDBRANCH  16  17
ENDBRANCH  15  16
ENDBRANCH   9  12
TORSDOF 6
ENDMDL
