REMARK  Name = 
REMARK  5 active torsions:
REMARK  status: ('A' for Active; 'I' for Inactive)
REMARK    1  A    between atoms: N_2  and  C_4
REMARK    2  A    between atoms: C_7  and  C_10
REMARK    3  A    between atoms: C_13  and  C_15
REMARK    4  A    between atoms: N_18  and  C_19
REMARK    5  A    between atoms: C_19  and  C_20
REMARK                            x       y       z     vdW  Elec       q    Type
REMARK                         _______ _______ _______ _____ _____    ______ ____
ROOT
ATOM     15  C   UNL     1      -2.533   0.786   0.000  0.00  0.00    +0.096 C 
ATOM     16  C   UNL     1      -2.361   1.593   0.000  0.00  0.00    +0.028 C 
ATOM     17  C   UNL     1      -1.541   1.679   0.000  0.00  0.00    +0.073 C 
ATOM     18  N   UNL     1      -1.205   0.926   0.000  0.00  0.00    -0.268 NA
ATOM     30  C   UNL     1      -1.819   0.374   0.000  0.00  0.00    +0.082 C 
ENDROOT
BRANCH  15  13
ATOM     10  C   UNL     1      -4.279  -0.443   0.000  0.00  0.00    +0.250 A 
ATOM     11  N   UNL     1      -4.614   0.311   0.000  0.00  0.00    -0.107 NA
ATOM     12  N   UNL     1      -4.001   0.863   0.000  0.00  0.00    -0.111 NA
ATOM     13  C   UNL     1      -3.287   0.451   0.000  0.00  0.00    +0.227 A 
ATOM     14  O   UNL     1      -3.458  -0.356   0.000  0.00  0.00    -0.419 OA
BRANCH  10   7
ATOM      4  C   UNL     1      -5.516  -2.586   0.000  0.00  0.00    +0.048 A 
ATOM      5  C   UNL     1      -5.929  -1.872   0.000  0.00  0.00    +0.015 A 
ATOM      6  C   UNL     1      -5.516  -1.157   0.000  0.00  0.00    +0.006 A 
ATOM      7  C   UNL     1      -4.691  -1.157   0.000  0.00  0.00    +0.055 A 
ATOM      8  C   UNL     1      -4.279  -1.872   0.000  0.00  0.00    +0.006 A 
ATOM      9  C   UNL     1      -4.691  -2.586   0.000  0.00  0.00    +0.015 A 
BRANCH   4   2
ATOM      1  C   UNL     1      -5.516  -4.015   0.000  0.00  0.00    +0.112 C 
ATOM      2  N   UNL     1      -5.929  -3.300   0.000  0.00  0.00    -0.304 N 
ATOM      3  C   UNL     1      -6.754  -3.300   0.000  0.00  0.00    +0.112 C 
ENDBRANCH   4   2
ENDBRANCH  10   7
ENDBRANCH  15  13
BRANCH  18  19
ATOM     19  C   UNL     1      -0.398   0.754   0.000  0.00  0.00    +0.101 C 
BRANCH  19  20
ATOM     20  C   UNL     1      -0.143  -0.030   0.000  0.00  0.00    +0.012 A 
ATOM     21  C   UNL     1      -0.628  -0.698   0.000  0.00  0.00    +0.073 A 
ATOM     22  N   UNL     1      -0.143  -1.365   0.000  0.00  0.00    -0.324 N 
ATOM     23  C   UNL     1      -0.398  -2.150   0.000  0.00  0.00    +0.130 C 
ATOM     24  C   UNL     1       0.641  -1.110   0.000  0.00  0.00    +0.060 A 
ATOM     25  C   UNL     1       0.641  -0.285   0.000  0.00  0.00    +0.015 A 
ATOM     26  C   UNL     1       1.356   0.127   0.000  0.00  0.00    +0.001 A 
ATOM     27  C   UNL     1       2.070  -0.285   0.000  0.00  0.00    +0.000 A 
ATOM     28  C   UNL     1       2.070  -1.110   0.000  0.00  0.00    +0.001 A 
ATOM     29  C   UNL     1       1.356  -1.523   0.000  0.00  0.00    +0.017 A 
ENDBRANCH  19  20
ENDBRANCH  18  19
TORSDOF 5
