MODEL 1
REMARK VINA RESULT:     -12.7      0.000      0.000
REMARK  Name = 
REMARK  4 active torsions:
REMARK  status: ('A' for Active; 'I' for Inactive)
REMARK    1  A    between atoms: N_2  and  C_4
REMARK    2  A    between atoms: C_7  and  C_8
REMARK    3  A    between atoms: C_8  and  N_9
REMARK    4  A    between atoms: C_12  and  C_14
REMARK                            x       y       z     vdW  Elec       q    Type
REMARK                         _______ _______ _______ _____ _____    ______ ____
ROOT
ATOM      9  N   UNL     1      -4.741   2.399  24.962  0.00  0.00    -0.269 NA
ATOM     10  C   UNL     1      -5.369   2.131  25.425  0.00  0.00    +0.073 C 
ATOM     11  C   UNL     1      -5.336   1.307  25.448  0.00  0.00    +0.026 C 
ATOM     12  C   UNL     1      -4.686   1.065  24.999  0.00  0.00    +0.076 C 
ATOM     13  C   UNL     1      -4.319   1.740  24.699  0.00  0.00    +0.080 C 
ENDROOT
BRANCH  12  14
ATOM     14  C   UNL     1      -4.447   0.286  24.872  0.00  0.00    +0.140 A 
ATOM     15  N   UNL     1      -4.002  -0.175  25.391  0.00  0.00    -0.229 NA
ATOM     16  C   UNL     1      -3.891  -0.915  25.044  0.00  0.00    +0.100 A 
ATOM     17  C   UNL     1      -4.269  -0.911  24.310  0.00  0.00    +0.100 A 
ATOM     18  N   UNL     1      -4.612  -0.170  24.204  0.00  0.00    -0.229 NA
ATOM     19  C   UNL     1      -4.250  -1.585  23.834  0.00  0.00    +0.020 A 
ATOM     20  C   UNL     1      -3.855  -2.261  24.091  0.00  0.00    -0.003 A 
ATOM     21  C   UNL     1      -3.478  -2.265  24.825  0.00  0.00    -0.020 A 
ATOM     22  C   UNL     1      -3.082  -2.941  25.082  0.00  0.00    +0.031 C 
ATOM     23  C   UNL     1      -3.496  -1.592  25.302  0.00  0.00    +0.016 A 
ENDBRANCH  12  14
BRANCH   9   8
ATOM      8  C   UNL     1      -4.564   3.186  24.793  0.00  0.00    +0.099 C 
BRANCH   8   7
ATOM      4  C   UNL     1      -2.269   4.044  25.137  0.00  0.00    +0.048 A 
ATOM      5  C   UNL     1      -2.498   3.766  24.395  0.00  0.00    +0.014 A 
ATOM      6  C   UNL     1      -3.263   3.480  24.280  0.00  0.00    -0.002 A 
ATOM      7  C   UNL     1      -3.799   3.472  24.908  0.00  0.00    -0.006 A 
ATOM     24  C   UNL     1      -3.570   3.750  25.650  0.00  0.00    -0.002 A 
ATOM     25  C   UNL     1      -2.804   4.036  25.764  0.00  0.00    +0.014 A 
BRANCH   4   2
ATOM      1  C   UNL     1      -0.899   3.814  25.475  0.00  0.00    +0.112 C 
ATOM      2  N   UNL     1      -1.503   4.330  25.252  0.00  0.00    -0.304 N 
ATOM      3  C   UNL     1      -1.341   5.131  25.142  0.00  0.00    +0.112 C 
ENDBRANCH   4   2
ENDBRANCH   8   7
ENDBRANCH   9   8
TORSDOF 4
ENDMDL
MODEL 2
REMARK VINA RESULT:     -12.3      1.027      5.211
REMARK  Name = 
REMARK  4 active torsions:
REMARK  status: ('A' for Active; 'I' for Inactive)
REMARK    1  A    between atoms: N_2  and  C_4
REMARK    2  A    between atoms: C_7  and  C_8
REMARK    3  A    between atoms: C_8  and  N_9
REMARK    4  A    between atoms: C_12  and  C_14
REMARK                            x       y       z     vdW  Elec       q    Type
REMARK                         _______ _______ _______ _____ _____    ______ ____
ROOT
ATOM      9  N   UNL     1      -4.411   1.064  24.978  0.00  0.00    -0.269 NA
ATOM     10  C   UNL     1      -4.763   1.475  24.355  0.00  0.00    +0.073 C 
ATOM     11  C   UNL     1      -4.341   2.175  24.240  0.00  0.00    +0.026 C 
ATOM     12  C   UNL     1      -3.728   2.196  24.792  0.00  0.00    +0.076 C 
ATOM     13  C   UNL     1      -3.771   1.510  25.248  0.00  0.00    +0.080 C 
ENDROOT
BRANCH  12  14
ATOM     14  C   UNL     1      -3.170   2.798  24.874  0.00  0.00    +0.140 A 
ATOM     15  N   UNL     1      -2.400   2.790  24.578  0.00  0.00    -0.229 NA
ATOM     16  C   UNL     1      -2.038   3.501  24.787  0.00  0.00    +0.100 A 
ATOM     17  C   UNL     1      -2.585   3.949  25.212  0.00  0.00    +0.100 A 
ATOM     18  N   UNL     1      -3.284   3.516  25.266  0.00  0.00    -0.229 NA
ATOM     19  C   UNL     1      -2.374   4.695  25.495  0.00  0.00    +0.020 A 
ATOM     20  C   UNL     1      -1.618   4.993  25.353  0.00  0.00    -0.003 A 
ATOM     21  C   UNL     1      -1.072   4.544  24.928  0.00  0.00    -0.020 A 
ATOM     22  C   UNL     1      -0.315   4.840  24.785  0.00  0.00    +0.031 C 
ATOM     23  C   UNL     1      -1.281   3.798  24.644  0.00  0.00    +0.016 A 
ENDBRANCH  12  14
BRANCH   9   8
ATOM      8  C   UNL     1      -4.655   0.336  25.278  0.00  0.00    +0.099 C 
BRANCH   8   7
ATOM      4  C   UNL     1      -3.396  -1.720  24.717  0.00  0.00    +0.048 A 
ATOM      5  C   UNL     1      -3.312  -1.375  25.462  0.00  0.00    +0.014 A 
ATOM      6  C   UNL     1      -3.731  -0.690  25.649  0.00  0.00    -0.002 A 
ATOM      7  C   UNL     1      -4.235  -0.349  25.091  0.00  0.00    -0.006 A 
ATOM     24  C   UNL     1      -4.319  -0.694  24.346  0.00  0.00    -0.002 A 
ATOM     25  C   UNL     1      -3.899  -1.380  24.159  0.00  0.00    +0.014 A 
BRANCH   4   2
ATOM      1  C   UNL     1      -2.164  -2.366  24.389  0.00  0.00    +0.112 C 
ATOM      2  N   UNL     1      -2.976  -2.405  24.530  0.00  0.00    -0.304 N 
ATOM      3  C   UNL     1      -3.368  -3.129  24.485  0.00  0.00    +0.112 C 
ENDBRANCH   4   2
ENDBRANCH   8   7
ENDBRANCH   9   8
TORSDOF 4
ENDMDL
MODEL 3
REMARK VINA RESULT:     -11.5      1.934      5.851
REMARK  Name = 
REMARK  4 active torsions:
REMARK  status: ('A' for Active; 'I' for Inactive)
REMARK    1  A    between atoms: N_2  and  C_4
REMARK    2  A    between atoms: C_7  and  C_8
REMARK    3  A    between atoms: C_8  and  N_9
REMARK    4  A    between atoms: C_12  and  C_14
REMARK                            x       y       z     vdW  Elec       q    Type
REMARK                         _______ _______ _______ _____ _____    ______ ____
ROOT
ATOM      9  N   UNL     1      -1.032   0.042  25.350  0.00  0.00    -0.269 NA
ATOM     10  C   UNL     1      -0.488   0.171  24.743  0.00  0.00    +0.073 C 
ATOM     11  C   UNL     1      -0.469   0.981  24.586  0.00  0.00    +0.026 C 
ATOM     12  C   UNL     1      -1.001   1.353  25.096  0.00  0.00    +0.076 C 
ATOM     13  C   UNL     1      -1.349   0.773  25.569  0.00  0.00    +0.080 C 
ENDROOT
BRANCH  12  14
ATOM     14  C   UNL     1      -1.157   2.162  25.128  0.00  0.00    +0.140 A 
ATOM     15  N   UNL     1      -0.646   2.764  24.893  0.00  0.00    -0.229 NA
ATOM     16  C   UNL     1      -1.025   3.485  25.021  0.00  0.00    +0.100 A 
ATOM     17  C   UNL     1      -1.771   3.329  25.335  0.00  0.00    +0.100 A 
ATOM     18  N   UNL     1      -1.854   2.511  25.402  0.00  0.00    -0.229 NA
ATOM     19  C   UNL     1      -2.280   3.952  25.520  0.00  0.00    +0.020 A 
ATOM     20  C   UNL     1      -2.042   4.731  25.390  0.00  0.00    -0.003 A 
ATOM     21  C   UNL     1      -1.295   4.887  25.076  0.00  0.00    -0.020 A 
ATOM     22  C   UNL     1      -1.057   5.666  24.947  0.00  0.00    +0.031 C 
ATOM     23  C   UNL     1      -0.786   4.265  24.891  0.00  0.00    +0.016 A 
ENDBRANCH  12  14
BRANCH   9   8
ATOM      8  C   UNL     1      -1.225  -0.688  25.682  0.00  0.00    +0.099 C 
BRANCH   8   7
ATOM      4  C   UNL     1      -3.035  -2.056  24.693  0.00  0.00    +0.048 A 
ATOM      5  C   UNL     1      -2.256  -2.159  24.442  0.00  0.00    +0.014 A 
ATOM      6  C   UNL     1      -1.653  -1.703  24.771  0.00  0.00    -0.002 A 
ATOM      7  C   UNL     1      -1.829  -1.144  25.352  0.00  0.00    -0.006 A 
ATOM     24  C   UNL     1      -2.607  -1.041  25.604  0.00  0.00    -0.002 A 
ATOM     25  C   UNL     1      -3.211  -1.497  25.274  0.00  0.00    +0.014 A 
BRANCH   4   2
ATOM      1  C   UNL     1      -4.232  -2.151  23.917  0.00  0.00    +0.112 C 
ATOM      2  N   UNL     1      -3.639  -2.512  24.363  0.00  0.00    -0.304 N 
ATOM      3  C   UNL     1      -3.648  -3.329  24.479  0.00  0.00    +0.112 C 
ENDBRANCH   4   2
ENDBRANCH   8   7
ENDBRANCH   9   8
TORSDOF 4
ENDMDL
MODEL 4
REMARK VINA RESULT:     -11.4      1.996      2.837
REMARK  Name = 
REMARK  4 active torsions:
REMARK  status: ('A' for Active; 'I' for Inactive)
REMARK    1  A    between atoms: N_2  and  C_4
REMARK    2  A    between atoms: C_7  and  C_8
REMARK    3  A    between atoms: C_8  and  N_9
REMARK    4  A    between atoms: C_12  and  C_14
REMARK                            x       y       z     vdW  Elec       q    Type
REMARK                         _______ _______ _______ _____ _____    ______ ____
ROOT
ATOM      9  N   UNL     1      -0.537   1.207  25.286  0.00  0.00    -0.269 NA
ATOM     10  C   UNL     1      -0.129   0.945  24.618  0.00  0.00    +0.073 C 
ATOM     11  C   UNL     1      -0.533   0.293  24.313  0.00  0.00    +0.026 C 
ATOM     12  C   UNL     1      -1.190   0.153  24.792  0.00  0.00    +0.076 C 
ATOM     13  C   UNL     1      -1.193   0.718  25.393  0.00  0.00    +0.080 C 
ENDROOT
BRANCH  12  14
ATOM     14  C   UNL     1      -1.747  -0.446  24.687  0.00  0.00    +0.140 A 
ATOM     15  N   UNL     1      -2.494  -0.361  24.349  0.00  0.00    -0.229 NA
ATOM     16  C   UNL     1      -2.863  -1.098  24.356  0.00  0.00    +0.100 A 
ATOM     17  C   UNL     1      -2.344  -1.640  24.699  0.00  0.00    +0.100 A 
ATOM     18  N   UNL     1      -1.655  -1.238  24.904  0.00  0.00    -0.229 NA
ATOM     19  C   UNL     1      -2.568  -2.430  24.780  0.00  0.00    +0.020 A 
ATOM     20  C   UNL     1      -3.309  -2.678  24.518  0.00  0.00    -0.003 A 
ATOM     21  C   UNL     1      -3.828  -2.137  24.175  0.00  0.00    -0.020 A 
ATOM     22  C   UNL     1      -4.570  -2.384  23.913  0.00  0.00    +0.031 C 
ATOM     23  C   UNL     1      -3.606  -1.347  24.093  0.00  0.00    +0.016 A 
ENDBRANCH  12  14
BRANCH   9   8
ATOM      8  C   UNL     1      -0.326   1.847  25.762  0.00  0.00    +0.099 C 
BRANCH   8   7
ATOM      4  C   UNL     1      -1.317   4.077  25.352  0.00  0.00    +0.048 A 
ATOM      5  C   UNL     1      -1.660   3.568  25.904  0.00  0.00    +0.014 A 
ATOM      6  C   UNL     1      -1.329   2.825  26.041  0.00  0.00    -0.002 A 
ATOM      7  C   UNL     1      -0.656   2.590  25.625  0.00  0.00    -0.006 A 
ATOM     24  C   UNL     1      -0.314   3.098  25.073  0.00  0.00    -0.002 A 
ATOM     25  C   UNL     1      -0.645   3.842  24.937  0.00  0.00    +0.014 A 
BRANCH   4   2
ATOM      1  C   UNL     1      -2.449   4.950  25.369  0.00  0.00    +0.112 C 
ATOM      2  N   UNL     1      -1.648   4.820  25.216  0.00  0.00    -0.304 N 
ATOM      3  C   UNL     1      -1.179   5.434  24.928  0.00  0.00    +0.112 C 
ENDBRANCH   4   2
ENDBRANCH   8   7
ENDBRANCH   9   8
TORSDOF 4
ENDMDL
MODEL 5
REMARK VINA RESULT:     -10.3      1.576      2.614
REMARK  Name = 
REMARK  4 active torsions:
REMARK  status: ('A' for Active; 'I' for Inactive)
REMARK    1  A    between atoms: N_2  and  C_4
REMARK    2  A    between atoms: C_7  and  C_8
REMARK    3  A    between atoms: C_8  and  N_9
REMARK    4  A    between atoms: C_12  and  C_14
REMARK                            x       y       z     vdW  Elec       q    Type
REMARK                         _______ _______ _______ _____ _____    ______ ____
ROOT
ATOM      9  N   UNL     1      -1.859   2.185  24.804  0.00  0.00    -0.269 NA
ATOM     10  C   UNL     1      -1.153   2.003  25.190  0.00  0.00    +0.073 C 
ATOM     11  C   UNL     1      -1.094   1.181  25.239  0.00  0.00    +0.026 C 
ATOM     12  C   UNL     1      -1.764   0.856  24.883  0.00  0.00    +0.076 C 
ATOM     13  C   UNL     1      -2.236   1.476  24.614  0.00  0.00    +0.080 C 
ENDROOT
BRANCH  12  14
ATOM     14  C   UNL     1      -1.931   0.051  24.809  0.00  0.00    +0.140 A 
ATOM     15  N   UNL     1      -2.682  -0.289  24.799  0.00  0.00    -0.229 NA
ATOM     16  C   UNL     1      -2.591  -1.104  24.716  0.00  0.00    +0.100 A 
ATOM     17  C   UNL     1      -1.784  -1.268  24.674  0.00  0.00    +0.100 A 
ATOM     18  N   UNL     1      -1.375  -0.554  24.731  0.00  0.00    -0.229 NA
ATOM     19  C   UNL     1      -1.525  -2.047  24.588  0.00  0.00    +0.020 A 
ATOM     20  C   UNL     1      -2.073  -2.662  24.545  0.00  0.00    -0.003 A 
ATOM     21  C   UNL     1      -2.881  -2.498  24.588  0.00  0.00    -0.020 A 
ATOM     22  C   UNL     1      -3.430  -3.112  24.545  0.00  0.00    +0.031 C 
ATOM     23  C   UNL     1      -3.140  -1.720  24.673  0.00  0.00    +0.016 A 
ENDBRANCH  12  14
BRANCH   9   8
ATOM      8  C   UNL     1      -2.139   2.943  24.637  0.00  0.00    +0.099 C 
BRANCH   8   7
ATOM      4  C   UNL     1      -4.451   3.573  25.255  0.00  0.00    +0.048 A 
ATOM      5  C   UNL     1      -4.286   3.305  24.493  0.00  0.00    +0.014 A 
ATOM      6  C   UNL     1      -3.516   3.095  24.286  0.00  0.00    -0.002 A 
ATOM      7  C   UNL     1      -2.910   3.153  24.843  0.00  0.00    -0.006 A 
ATOM     24  C   UNL     1      -3.074   3.420  25.606  0.00  0.00    -0.002 A 
ATOM     25  C   UNL     1      -3.845   3.630  25.812  0.00  0.00    +0.014 A 
BRANCH   4   2
ATOM      1  C   UNL     1      -5.761   3.201  25.691  0.00  0.00    +0.112 C 
ATOM      2  N   UNL     1      -5.222   3.783  25.461  0.00  0.00    -0.304 N 
ATOM      3  C   UNL     1      -5.454   4.574  25.437  0.00  0.00    +0.112 C 
ENDBRANCH   4   2
ENDBRANCH   8   7
ENDBRANCH   9   8
TORSDOF 4
ENDMDL
MODEL 6
REMARK VINA RESULT:      -9.7      2.330      4.430
REMARK  Name = 
REMARK  4 active torsions:
REMARK  status: ('A' for Active; 'I' for Inactive)
REMARK    1  A    between atoms: N_2  and  C_4
REMARK    2  A    between atoms: C_7  and  C_8
REMARK    3  A    between atoms: C_8  and  N_9
REMARK    4  A    between atoms: C_12  and  C_14
REMARK                            x       y       z     vdW  Elec       q    Type
REMARK                         _______ _______ _______ _____ _____    ______ ____
ROOT
ATOM      9  N   UNL     1      -1.055   3.021  25.404  0.00  0.00    -0.269 NA
ATOM     10  C   UNL     1      -1.175   3.825  25.258  0.00  0.00    +0.073 C 
ATOM     11  C   UNL     1      -1.988   3.959  25.223  0.00  0.00    +0.026 C 
ATOM     12  C   UNL     1      -2.371   3.238  25.347  0.00  0.00    +0.076 C 
ATOM     13  C   UNL     1      -1.795   2.659  25.459  0.00  0.00    +0.080 C 
ENDROOT
BRANCH  12  14
ATOM     14  C   UNL     1      -3.187   3.119  25.358  0.00  0.00    +0.140 A 
ATOM     15  N   UNL     1      -3.586   2.467  25.047  0.00  0.00    -0.229 NA
ATOM     16  C   UNL     1      -4.393   2.576  25.178  0.00  0.00    +0.100 A 
ATOM     17  C   UNL     1      -4.493   3.294  25.571  0.00  0.00    +0.100 A 
ATOM     18  N   UNL     1      -3.748   3.630  25.682  0.00  0.00    -0.229 NA
ATOM     19  C   UNL     1      -5.250   3.550  25.776  0.00  0.00    +0.020 A 
ATOM     20  C   UNL     1      -5.907   3.087  25.589  0.00  0.00    -0.003 A 
ATOM     21  C   UNL     1      -5.806   2.368  25.196  0.00  0.00    -0.020 A 
ATOM     22  C   UNL     1      -6.463   1.905  25.009  0.00  0.00    +0.031 C 
ATOM     23  C   UNL     1      -5.050   2.112  24.991  0.00  0.00    +0.016 A 
ENDBRANCH  12  14
BRANCH   9   8
ATOM      8  C   UNL     1      -0.325   2.646  25.481  0.00  0.00    +0.099 C 
BRANCH   8   7
ATOM      4  C   UNL     1       0.213   0.683  24.073  0.00  0.00    +0.048 A 
ATOM      5  C   UNL     1      -0.205   0.583  24.777  0.00  0.00    +0.014 A 
ATOM      6  C   UNL     1      -0.385   1.238  25.247  0.00  0.00    -0.002 A 
ATOM      7  C   UNL     1      -0.145   1.992  25.011  0.00  0.00    -0.006 A 
ATOM     24  C   UNL     1       0.273   2.091  24.307  0.00  0.00    -0.002 A 
ATOM     25  C   UNL     1       0.452   1.436  23.838  0.00  0.00    +0.014 A 
BRANCH   4   2
ATOM      1  C   UNL     1       0.913   0.105  22.969  0.00  0.00    +0.112 C 
ATOM      2  N   UNL     1       0.392   0.028  23.604  0.00  0.00    -0.304 N 
ATOM      3  C   UNL     1       0.050  -0.704  23.770  0.00  0.00    +0.112 C 
ENDBRANCH   4   2
ENDBRANCH   8   7
ENDBRANCH   9   8
TORSDOF 4
ENDMDL
MODEL 7
REMARK VINA RESULT:      -9.7      1.693      4.804
REMARK  Name = 
REMARK  4 active torsions:
REMARK  status: ('A' for Active; 'I' for Inactive)
REMARK    1  A    between atoms: N_2  and  C_4
REMARK    2  A    between atoms: C_7  and  C_8
REMARK    3  A    between atoms: C_8  and  N_9
REMARK    4  A    between atoms: C_12  and  C_14
REMARK                            x       y       z     vdW  Elec       q    Type
REMARK                         _______ _______ _______ _____ _____    ______ ____
ROOT
ATOM      9  N   UNL     1      -3.909  -1.005  24.961  0.00  0.00    -0.269 NA
ATOM     10  C   UNL     1      -4.360  -0.994  24.270  0.00  0.00    +0.073 C 
ATOM     11  C   UNL     1      -4.695  -0.244  24.195  0.00  0.00    +0.026 C 
ATOM     12  C   UNL     1      -4.451   0.210  24.840  0.00  0.00    +0.076 C 
ATOM     13  C   UNL     1      -3.966  -0.260  25.313  0.00  0.00    +0.080 C 
ENDROOT
BRANCH  12  14
ATOM     14  C   UNL     1      -4.657   0.995  24.986  0.00  0.00    +0.140 A 
ATOM     15  N   UNL     1      -4.211   1.659  24.784  0.00  0.00    -0.229 NA
ATOM     16  C   UNL     1      -4.624   2.328  25.033  0.00  0.00    +0.100 A 
ATOM     17  C   UNL     1      -5.324   2.078  25.389  0.00  0.00    +0.100 A 
ATOM     18  N   UNL     1      -5.346   1.255  25.360  0.00  0.00    -0.229 NA
ATOM     19  C   UNL     1      -5.853   2.634  25.693  0.00  0.00    +0.020 A 
ATOM     20  C   UNL     1      -5.681   3.439  25.641  0.00  0.00    -0.003 A 
ATOM     21  C   UNL     1      -4.980   3.689  25.285  0.00  0.00    -0.020 A 
ATOM     22  C   UNL     1      -4.807   4.494  25.233  0.00  0.00    +0.031 C 
ATOM     23  C   UNL     1      -4.451   3.134  24.981  0.00  0.00    +0.016 A 
ENDBRANCH  12  14
BRANCH   9   8
ATOM      8  C   UNL     1      -3.478  -1.646  25.249  0.00  0.00    +0.099 C 
BRANCH   8   7
ATOM      4  C   UNL     1      -1.016  -1.694  25.003  0.00  0.00    +0.048 A 
ATOM      5  C   UNL     1      -1.491  -2.128  24.487  0.00  0.00    +0.014 A 
ATOM      6  C   UNL     1      -2.312  -2.112  24.568  0.00  0.00    -0.002 A 
ATOM      7  C   UNL     1      -2.657  -1.661  25.167  0.00  0.00    -0.006 A 
ATOM     24  C   UNL     1      -2.183  -1.227  25.684  0.00  0.00    -0.002 A 
ATOM     25  C   UNL     1      -1.362  -1.244  25.601  0.00  0.00    +0.014 A 
BRANCH   4   2
ATOM      1  C   UNL     1       0.249  -2.279  25.321  0.00  0.00    +0.112 C 
ATOM      2  N   UNL     1      -0.195  -1.710  24.921  0.00  0.00    -0.304 N 
ATOM      3  C   UNL     1       0.182  -1.158  24.438  0.00  0.00    +0.112 C 
ENDBRANCH   4   2
ENDBRANCH   8   7
ENDBRANCH   9   8
TORSDOF 4
ENDMDL
MODEL 8
REMARK VINA RESULT:      -9.5      2.630      4.021
REMARK  Name = 
REMARK  4 active torsions:
REMARK  status: ('A' for Active; 'I' for Inactive)
REMARK    1  A    between atoms: N_2  and  C_4
REMARK    2  A    between atoms: C_7  and  C_8
REMARK    3  A    between atoms: C_8  and  N_9
REMARK    4  A    between atoms: C_12  and  C_14
REMARK                            x       y       z     vdW  Elec       q    Type
REMARK                         _______ _______ _______ _____ _____    ______ ____
ROOT
ATOM      9  N   UNL     1      -1.438   3.539  25.283  0.00  0.00    -0.269 NA
ATOM     10  C   UNL     1      -0.929   3.399  25.917  0.00  0.00    +0.073 C 
ATOM     11  C   UNL     1      -0.459   2.747  25.728  0.00  0.00    +0.026 C 
ATOM     12  C   UNL     1      -0.679   2.484  24.976  0.00  0.00    +0.076 C 
ATOM     13  C   UNL     1      -1.283   2.974  24.702  0.00  0.00    +0.080 C 
ENDROOT
BRANCH  12  14
ATOM     14  C   UNL     1      -0.351   1.845  24.571  0.00  0.00    +0.140 A 
ATOM     15  N   UNL     1       0.330   1.863  24.105  0.00  0.00    -0.229 NA
ATOM     16  C   UNL     1       0.455   1.105  23.808  0.00  0.00    +0.100 A 
ATOM     17  C   UNL     1      -0.148   0.617  24.089  0.00  0.00    +0.100 A 
ATOM     18  N   UNL     1      -0.646   1.074  24.561  0.00  0.00    -0.229 NA
ATOM     19  C   UNL     1      -0.165  -0.181  23.879  0.00  0.00    +0.020 A 
ATOM     20  C   UNL     1       0.420  -0.491  23.388  0.00  0.00    -0.003 A 
ATOM     21  C   UNL     1       1.023  -0.003  23.106  0.00  0.00    -0.020 A 
ATOM     22  C   UNL     1       1.609  -0.312  22.615  0.00  0.00    +0.031 C 
ATOM     23  C   UNL     1       1.041   0.795  23.316  0.00  0.00    +0.016 A 
ENDBRANCH  12  14
BRANCH   9   8
ATOM      8  C   UNL     1      -2.003   4.138  25.238  0.00  0.00    +0.099 C 
BRANCH   8   7
ATOM      4  C   UNL     1      -4.405   3.597  25.482  0.00  0.00    +0.048 A 
ATOM      5  C   UNL     1      -4.059   3.609  24.734  0.00  0.00    +0.014 A 
ATOM      6  C   UNL     1      -3.258   3.789  24.652  0.00  0.00    -0.002 A 
ATOM      7  C   UNL     1      -2.804   3.958  25.320  0.00  0.00    -0.006 A 
ATOM     24  C   UNL     1      -3.150   3.947  26.068  0.00  0.00    -0.002 A 
ATOM     25  C   UNL     1      -3.951   3.766  26.150  0.00  0.00    +0.014 A 
BRANCH   4   2
ATOM      1  C   UNL     1      -5.444   2.635  25.684  0.00  0.00    +0.112 C 
ATOM      2  N   UNL     1      -5.207   3.417  25.564  0.00  0.00    -0.304 N 
ATOM      3  C   UNL     1      -5.771   4.017  25.524  0.00  0.00    +0.112 C 
ENDBRANCH   4   2
ENDBRANCH   8   7
ENDBRANCH   9   8
TORSDOF 4
ENDMDL
MODEL 9
REMARK VINA RESULT:      -8.8      2.785      4.119
REMARK  Name = 
REMARK  4 active torsions:
REMARK  status: ('A' for Active; 'I' for Inactive)
REMARK    1  A    between atoms: N_2  and  C_4
REMARK    2  A    between atoms: C_7  and  C_8
REMARK    3  A    between atoms: C_8  and  N_9
REMARK    4  A    between atoms: C_12  and  C_14
REMARK                            x       y       z     vdW  Elec       q    Type
REMARK                         _______ _______ _______ _____ _____    ______ ____
ROOT
ATOM      9  N   UNL     1      -3.221   0.081  24.572  0.00  0.00    -0.269 NA
ATOM     10  C   UNL     1      -2.924  -0.366  25.199  0.00  0.00    +0.073 C 
ATOM     11  C   UNL     1      -2.100  -0.373  25.139  0.00  0.00    +0.026 C 
ATOM     12  C   UNL     1      -1.889   0.070  24.475  0.00  0.00    +0.076 C 
ATOM     13  C   UNL     1      -2.581   0.350  24.125  0.00  0.00    +0.080 C 
ENDROOT
BRANCH  12  14
ATOM     14  C   UNL     1      -1.120   0.207  24.209  0.00  0.00    +0.140 A 
ATOM     15  N   UNL     1      -0.665  -0.309  23.754  0.00  0.00    -0.229 NA
ATOM     16  C   UNL     1       0.064   0.050  23.615  0.00  0.00    +0.100 A 
ATOM     17  C   UNL     1       0.060   0.788  23.984  0.00  0.00    +0.100 A 
ATOM     18  N   UNL     1      -0.672   0.885  24.351  0.00  0.00    -0.229 NA
ATOM     19  C   UNL     1       0.724   1.276  23.937  0.00  0.00    +0.020 A 
ATOM     20  C   UNL     1       1.391   1.026  23.523  0.00  0.00    -0.003 A 
ATOM     21  C   UNL     1       1.395   0.288  23.154  0.00  0.00    -0.020 A 
ATOM     22  C   UNL     1       2.063   0.038  22.739  0.00  0.00    +0.031 C 
ATOM     23  C   UNL     1       0.732  -0.200  23.200  0.00  0.00    +0.016 A 
ENDBRANCH  12  14
BRANCH   9   8
ATOM      8  C   UNL     1      -4.017   0.232  24.418  0.00  0.00    +0.099 C 
BRANCH   8   7
ATOM      4  C   UNL     1      -5.044   2.350  25.182  0.00  0.00    +0.048 A 
ATOM      5  C   UNL     1      -5.173   1.653  25.605  0.00  0.00    +0.014 A 
ATOM      6  C   UNL     1      -4.830   0.947  25.351  0.00  0.00    -0.002 A 
ATOM      7  C   UNL     1      -4.359   0.938  24.673  0.00  0.00    -0.006 A 
ATOM     24  C   UNL     1      -4.231   1.635  24.250  0.00  0.00    -0.002 A 
ATOM     25  C   UNL     1      -4.574   2.341  24.505  0.00  0.00    +0.014 A 
BRANCH   4   2
ATOM      1  C   UNL     1      -6.159   3.058  25.731  0.00  0.00    +0.112 C 
ATOM      2  N   UNL     1      -5.387   3.056  25.437  0.00  0.00    -0.304 N 
ATOM      3  C   UNL     1      -4.959   3.760  25.399  0.00  0.00    +0.112 C 
ENDBRANCH   4   2
ENDBRANCH   8   7
ENDBRANCH   9   8
TORSDOF 4
ENDMDL
