MODEL 1
REMARK VINA RESULT:     -13.1      0.000      0.000
REMARK  Name = 
REMARK  5 active torsions:
REMARK  status: ('A' for Active; 'I' for Inactive)
REMARK    1  A    between atoms: C_7  and  N_10
REMARK    2  A    between atoms: C_15  and  C_16
REMARK    3  A    between atoms: C_18  and  C_21
REMARK    4  A    between atoms: C_24  and  O_25
REMARK    5  A    between atoms: O_25  and  C_26
REMARK                            x       y       z     vdW  Elec       q    Type
REMARK                         _______ _______ _______ _____ _____    ______ ____
ROOT
ATOM     16  C   UNL     1      -4.301   1.960  24.712  0.00  0.00    +0.251 A 
ATOM     17  N   UNL     1      -4.278   1.228  25.092  0.00  0.00    -0.190 NA
ATOM     18  C   UNL     1      -4.003   0.669  24.551  0.00  0.00    +0.203 A 
ATOM     19  N   UNL     1      -3.856   1.055  23.838  0.00  0.00    -0.056 NA
ATOM     20  O   UNL     1      -4.040   1.852  23.937  0.00  0.00    -0.336 OA
ENDROOT
BRANCH  16  15
ATOM     10  N   UNL     1      -4.049   3.289  25.285  0.00  0.00    -0.265 NA
ATOM     11  C   UNL     1      -4.521   3.893  25.590  0.00  0.00    +0.106 C 
ATOM     12  C   UNL     1      -5.308   3.650  25.541  0.00  0.00    +0.170 C 
ATOM     13  O   UNL     1      -5.966   4.084  25.785  0.00  0.00    -0.222 OA
ATOM     14  C   UNL     1      -5.322   2.896  25.206  0.00  0.00    +0.060 C 
ATOM     15  C   UNL     1      -4.543   2.673  25.048  0.00  0.00    +0.140 C 
BRANCH  10   7
ATOM      1  C   UNL     1      -0.296   3.092  25.695  0.00  0.00    +0.095 C 
ATOM      2  C   UNL     1      -0.756   3.332  25.055  0.00  0.00    +0.226 C 
ATOM      3  O   UNL     1      -0.395   3.584  24.357  0.00  0.00    -0.275 OA
ATOM      4  N   UNL     1      -1.580   3.321  25.113  0.00  0.00    -0.279 N 
ATOM      5  C   UNL     1      -2.041   3.562  24.472  0.00  0.00    +0.095 C 
ATOM      6  C   UNL     1      -2.864   3.551  24.530  0.00  0.00    +0.038 C 
ATOM      7  C   UNL     1      -3.226   3.300  25.228  0.00  0.00    +0.061 C 
ATOM      8  C   UNL     1      -2.764   3.059  25.868  0.00  0.00    +0.038 C 
ATOM      9  C   UNL     1      -1.941   3.070  25.810  0.00  0.00    +0.095 C 
ENDBRANCH  10   7
ENDBRANCH  16  15
BRANCH  18  21
ATOM     21  C   UNL     1      -3.894  -0.136  24.699  0.00  0.00    +0.039 A 
ATOM     22  C   UNL     1      -4.227  -0.696  24.193  0.00  0.00    +0.006 A 
ATOM     23  C   UNL     1      -4.118  -1.501  24.341  0.00  0.00    +0.037 A 
ATOM     24  C   UNL     1      -3.676  -1.744  24.994  0.00  0.00    +0.147 A 
ATOM     30  C   UNL     1      -3.343  -1.184  25.500  0.00  0.00    +0.037 A 
ATOM     31  C   UNL     1      -3.452  -0.379  25.352  0.00  0.00    +0.006 A 
BRANCH  24  25
ATOM     25  O   UNL     1      -3.567  -2.549  25.142  0.00  0.00    -0.404 OA
BRANCH  25  26
ATOM     26  C   UNL     1      -3.179  -3.021  24.587  0.00  0.00    +0.575 C 
ATOM     27  F   UNL     1      -2.792  -3.493  24.032  0.00  0.00    -0.133 F 
ATOM     28  F   UNL     1      -3.907  -3.263  24.284  0.00  0.00    -0.133 F 
ATOM     29  F   UNL     1      -2.451  -2.779  24.890  0.00  0.00    -0.133 F 
ENDBRANCH  25  26
ENDBRANCH  24  25
ENDBRANCH  18  21
TORSDOF 5
ENDMDL
MODEL 2
REMARK VINA RESULT:     -12.0      1.258      2.834
REMARK  Name = 
REMARK  5 active torsions:
REMARK  status: ('A' for Active; 'I' for Inactive)
REMARK    1  A    between atoms: C_7  and  N_10
REMARK    2  A    between atoms: C_15  and  C_16
REMARK    3  A    between atoms: C_18  and  C_21
REMARK    4  A    between atoms: C_24  and  O_25
REMARK    5  A    between atoms: O_25  and  C_26
REMARK                            x       y       z     vdW  Elec       q    Type
REMARK                         _______ _______ _______ _____ _____    ______ ____
ROOT
ATOM     16  C   UNL     1      -1.365   1.394  24.916  0.00  0.00    +0.251 A 
ATOM     17  N   UNL     1      -1.849   0.790  25.201  0.00  0.00    -0.190 NA
ATOM     18  C   UNL     1      -2.132   0.363  24.554  0.00  0.00    +0.203 A 
ATOM     19  N   UNL     1      -1.823   0.704  23.870  0.00  0.00    -0.056 NA
ATOM     20  O   UNL     1      -1.349   1.340  24.093  0.00  0.00    -0.336 OA
ENDROOT
BRANCH  16  15
ATOM     10  N   UNL     1      -1.260   2.689  25.602  0.00  0.00    -0.265 NA
ATOM     11  C   UNL     1      -0.682   3.067  26.053  0.00  0.00    +0.106 C 
ATOM     12  C   UNL     1      -0.030   2.563  26.103  0.00  0.00    +0.170 C 
ATOM     13  O   UNL     1       0.674   2.719  26.503  0.00  0.00    -0.222 OA
ATOM     14  C   UNL     1      -0.207   1.875  25.683  0.00  0.00    +0.060 C 
ATOM     15  C   UNL     1      -0.967   1.953  25.374  0.00  0.00    +0.140 C 
BRANCH  10   7
ATOM      1  C   UNL     1      -4.858   3.829  25.373  0.00  0.00    +0.095 C 
ATOM      2  C   UNL     1      -4.230   3.914  24.845  0.00  0.00    +0.226 C 
ATOM      3  O   UNL     1      -4.344   4.305  24.127  0.00  0.00    -0.275 OA
ATOM      4  N   UNL     1      -3.487   3.608  25.035  0.00  0.00    -0.279 N 
ATOM      5  C   UNL     1      -2.859   3.693  24.506  0.00  0.00    +0.095 C 
ATOM      6  C   UNL     1      -2.117   3.387  24.695  0.00  0.00    +0.038 C 
ATOM      7  C   UNL     1      -2.002   2.995  25.413  0.00  0.00    +0.061 C 
ATOM      8  C   UNL     1      -2.631   2.911  25.941  0.00  0.00    +0.038 C 
ATOM      9  C   UNL     1      -3.373   3.217  25.751  0.00  0.00    +0.095 C 
ENDBRANCH  10   7
ENDBRANCH  16  15
BRANCH  18  21
ATOM     21  C   UNL     1      -2.635  -0.290  24.587  0.00  0.00    +0.039 A 
ATOM     22  C   UNL     1      -2.392  -0.979  24.969  0.00  0.00    +0.006 A 
ATOM     23  C   UNL     1      -2.896  -1.632  25.001  0.00  0.00    +0.037 A 
ATOM     24  C   UNL     1      -3.642  -1.596  24.652  0.00  0.00    +0.147 A 
ATOM     30  C   UNL     1      -3.885  -0.906  24.270  0.00  0.00    +0.037 A 
ATOM     31  C   UNL     1      -3.381  -0.253  24.237  0.00  0.00    +0.006 A 
BRANCH  24  25
ATOM     25  O   UNL     1      -4.145  -2.249  24.684  0.00  0.00    -0.404 OA
BRANCH  25  26
ATOM     26  C   UNL     1      -3.969  -2.927  24.249  0.00  0.00    +0.575 C 
ATOM     27  F   UNL     1      -3.793  -3.605  23.814  0.00  0.00    -0.133 F 
ATOM     28  F   UNL     1      -3.594  -3.252  24.907  0.00  0.00    -0.133 F 
ATOM     29  F   UNL     1      -4.344  -2.602  23.589  0.00  0.00    -0.133 F 
ENDBRANCH  25  26
ENDBRANCH  24  25
ENDBRANCH  18  21
TORSDOF 5
ENDMDL
MODEL 3
REMARK VINA RESULT:     -11.8      0.940      2.755
REMARK  Name = 
REMARK  5 active torsions:
REMARK  status: ('A' for Active; 'I' for Inactive)
REMARK    1  A    between atoms: C_7  and  N_10
REMARK    2  A    between atoms: C_15  and  C_16
REMARK    3  A    between atoms: C_18  and  C_21
REMARK    4  A    between atoms: C_24  and  O_25
REMARK    5  A    between atoms: O_25  and  C_26
REMARK                            x       y       z     vdW  Elec       q    Type
REMARK                         _______ _______ _______ _____ _____    ______ ____
ROOT
ATOM     16  C   UNL     1      -2.189   2.106  24.145  0.00  0.00    +0.251 A 
ATOM     17  N   UNL     1      -2.336   1.422  24.582  0.00  0.00    -0.190 NA
ATOM     18  C   UNL     1      -2.734   0.889  24.095  0.00  0.00    +0.203 A 
ATOM     19  N   UNL     1      -2.833   1.244  23.357  0.00  0.00    -0.056 NA
ATOM     20  O   UNL     1      -2.497   1.995  23.388  0.00  0.00    -0.336 OA
ENDROOT
BRANCH  16  15
ATOM     10  N   UNL     1      -2.147   3.401  24.838  0.00  0.00    -0.265 NA
ATOM     11  C   UNL     1      -1.561   3.959  24.999  0.00  0.00    +0.106 C 
ATOM     12  C   UNL     1      -0.853   3.684  24.677  0.00  0.00    +0.170 C 
ATOM     13  O   UNL     1      -0.124   4.069  24.709  0.00  0.00    -0.222 OA
ATOM     14  C   UNL     1      -1.002   2.957  24.318  0.00  0.00    +0.060 C 
ATOM     15  C   UNL     1      -1.802   2.782  24.418  0.00  0.00    +0.140 C 
BRANCH  10   7
ATOM      1  C   UNL     1      -5.872   3.936  25.205  0.00  0.00    +0.095 C 
ATOM      2  C   UNL     1      -5.320   3.612  25.725  0.00  0.00    +0.226 C 
ATOM      3  O   UNL     1      -5.559   3.341  26.466  0.00  0.00    -0.275 OA
ATOM      4  N   UNL     1      -4.526   3.559  25.503  0.00  0.00    -0.279 N 
ATOM      5  C   UNL     1      -3.973   3.236  26.023  0.00  0.00    +0.095 C 
ATOM      6  C   UNL     1      -3.180   3.183  25.802  0.00  0.00    +0.038 C 
ATOM      7  C   UNL     1      -2.940   3.454  25.060  0.00  0.00    +0.061 C 
ATOM      8  C   UNL     1      -3.493   3.777  24.540  0.00  0.00    +0.038 C 
ATOM      9  C   UNL     1      -4.286   3.830  24.762  0.00  0.00    +0.095 C 
ENDBRANCH  10   7
ENDBRANCH  16  15
BRANCH  18  21
ATOM     21  C   UNL     1      -2.989   0.133  24.308  0.00  0.00    +0.039 A 
ATOM     22  C   UNL     1      -2.457  -0.401  24.642  0.00  0.00    +0.006 A 
ATOM     23  C   UNL     1      -2.711  -1.157  24.856  0.00  0.00    +0.037 A 
ATOM     24  C   UNL     1      -3.497  -1.377  24.735  0.00  0.00    +0.147 A 
ATOM     30  C   UNL     1      -4.029  -0.842  24.401  0.00  0.00    +0.037 A 
ATOM     31  C   UNL     1      -3.774  -0.086  24.188  0.00  0.00    +0.006 A 
BRANCH  24  25
ATOM     25  O   UNL     1      -3.752  -2.132  24.949  0.00  0.00    -0.404 OA
BRANCH  25  26
ATOM     26  C   UNL     1      -3.660  -2.762  24.423  0.00  0.00    +0.575 C 
ATOM     27  F   UNL     1      -3.569  -3.391  23.897  0.00  0.00    -0.133 F 
ATOM     28  F   UNL     1      -4.376  -2.566  24.063  0.00  0.00    -0.133 F 
ATOM     29  F   UNL     1      -2.944  -2.959  24.783  0.00  0.00    -0.133 F 
ENDBRANCH  25  26
ENDBRANCH  24  25
ENDBRANCH  18  21
TORSDOF 5
ENDMDL
MODEL 4
REMARK VINA RESULT:     -11.6      2.815      4.530
REMARK  Name = 
REMARK  5 active torsions:
REMARK  status: ('A' for Active; 'I' for Inactive)
REMARK    1  A    between atoms: C_7  and  N_10
REMARK    2  A    between atoms: C_15  and  C_16
REMARK    3  A    between atoms: C_18  and  C_21
REMARK    4  A    between atoms: C_24  and  O_25
REMARK    5  A    between atoms: O_25  and  C_26
REMARK                            x       y       z     vdW  Elec       q    Type
REMARK                         _______ _______ _______ _____ _____    ______ ____
ROOT
ATOM     16  C   UNL     1      -2.764  -0.362  24.270  0.00  0.00    +0.251 A 
ATOM     17  N   UNL     1      -3.245   0.101  24.756  0.00  0.00    -0.190 NA
ATOM     18  C   UNL     1      -3.667   0.621  24.276  0.00  0.00    +0.203 A 
ATOM     19  N   UNL     1      -3.448   0.481  23.493  0.00  0.00    -0.056 NA
ATOM     20  O   UNL     1      -2.891  -0.126  23.489  0.00  0.00    -0.336 OA
ENDROOT
BRANCH  16  15
ATOM     10  N   UNL     1      -1.475  -0.845  24.782  0.00  0.00    -0.265 NA
ATOM     11  C   UNL     1      -1.163  -1.583  24.977  0.00  0.00    +0.106 C 
ATOM     12  C   UNL     1      -1.746  -2.151  24.835  0.00  0.00    +0.170 C 
ATOM     13  O   UNL     1      -1.670  -2.963  24.954  0.00  0.00    -0.222 OA
ATOM     14  C   UNL     1      -2.416  -1.762  24.552  0.00  0.00    +0.060 C 
ATOM     15  C   UNL     1      -2.249  -0.954  24.520  0.00  0.00    +0.140 C 
BRANCH  10   7
ATOM      1  C   UNL     1       0.076   2.474  25.718  0.00  0.00    +0.095 C 
ATOM      2  C   UNL     1       0.103   2.045  25.015  0.00  0.00    +0.226 C 
ATOM      3  O   UNL     1       0.523   2.338  24.368  0.00  0.00    -0.275 OA
ATOM      4  N   UNL     1      -0.292   1.322  24.957  0.00  0.00    -0.279 N 
ATOM      5  C   UNL     1      -0.265   0.893  24.252  0.00  0.00    +0.095 C 
ATOM      6  C   UNL     1      -0.659   0.171  24.194  0.00  0.00    +0.038 C 
ATOM      7  C   UNL     1      -1.081  -0.123  24.840  0.00  0.00    +0.061 C 
ATOM      8  C   UNL     1      -1.107   0.307  25.544  0.00  0.00    +0.038 C 
ATOM      9  C   UNL     1      -0.713   1.029  25.602  0.00  0.00    +0.095 C 
ENDBRANCH  10   7
ENDBRANCH  16  15
BRANCH  18  21
ATOM     21  C   UNL     1      -4.213   1.184  24.533  0.00  0.00    +0.039 A 
ATOM     22  C   UNL     1      -4.130   1.973  24.307  0.00  0.00    +0.006 A 
ATOM     23  C   UNL     1      -4.676   2.536  24.565  0.00  0.00    +0.037 A 
ATOM     24  C   UNL     1      -5.305   2.309  25.048  0.00  0.00    +0.147 A 
ATOM     30  C   UNL     1      -5.389   1.520  25.274  0.00  0.00    +0.037 A 
ATOM     31  C   UNL     1      -4.842   0.957  25.016  0.00  0.00    +0.006 A 
BRANCH  24  25
ATOM     25  O   UNL     1      -5.851   2.871  25.306  0.00  0.00    -0.404 OA
BRANCH  25  26
ATOM     26  C   UNL     1      -5.591   3.545  25.705  0.00  0.00    +0.575 C 
ATOM     27  F   UNL     1      -5.332   4.218  26.106  0.00  0.00    -0.133 F 
ATOM     28  F   UNL     1      -5.571   3.118  26.411  0.00  0.00    -0.133 F 
ATOM     29  F   UNL     1      -5.612   3.972  25.000  0.00  0.00    -0.133 F 
ENDBRANCH  25  26
ENDBRANCH  24  25
ENDBRANCH  18  21
TORSDOF 5
ENDMDL
