REMARK  Name = 
REMARK  5 active torsions:
REMARK  status: ('A' for Active; 'I' for Inactive)
REMARK    1  A    between atoms: C_2  and  C_4
REMARK    2  A    between atoms: C_7  and  C_8
REMARK    3  A    between atoms: C_8  and  N_9
REMARK    4  A    between atoms: N_15  and  C_16
REMARK    5  A    between atoms: C_16  and  C_17
REMARK                            x       y       z     vdW  Elec       q    Type
REMARK                         _______ _______ _______ _____ _____    ______ ____
ROOT
ATOM      9  N   UNL     1       3.352   1.935   0.000  0.00  0.00    -0.266 NA
ATOM     10  C   UNL     1       3.352   1.110   0.000  0.00  0.00    +0.094 C 
ATOM     11  C   UNL     1       2.638   0.698   0.000  0.00  0.00    +0.112 C 
ATOM     12  N   UNL     1       1.923   1.110   0.000  0.00  0.00    -0.261 N 
ATOM     13  C   UNL     1       1.923   1.935   0.000  0.00  0.00    +0.113 C 
ATOM     14  C   UNL     1       1.139   2.190   0.000  0.00  0.00    +0.116 C 
ATOM     15  N   UNL     1       0.654   1.523   0.000  0.00  0.00    -0.258 N 
ATOM     24  C   UNL     1       1.139   0.856   0.000  0.00  0.00    +0.308 C 
ATOM     25  O   UNL     1       0.884   0.071   0.000  0.00  0.00    -0.252 OA
ATOM     26  C   UNL     1       2.638   2.348   0.000  0.00  0.00    +0.094 C 
ENDROOT
BRANCH   9   8
ATOM      8  C   UNL     1       4.067   2.348   0.000  0.00  0.00    +0.099 C 
BRANCH   8   7
ATOM      4  C   UNL     1       6.210   1.110   0.000  0.00  0.00    +0.080 A 
ATOM      5  C   UNL     1       5.496   0.698   0.000  0.00  0.00    +0.006 A 
ATOM      6  C   UNL     1       4.781   1.110   0.000  0.00  0.00    -0.003 A 
ATOM      7  C   UNL     1       4.781   1.935   0.000  0.00  0.00    -0.006 A 
ATOM     27  C   UNL     1       5.496   2.348   0.000  0.00  0.00    -0.003 A 
ATOM     28  C   UNL     1       6.210   1.935   0.000  0.00  0.00    +0.006 A 
BRANCH   4   2
ATOM      1  O   UNL     1       7.639   1.110   0.000  0.00  0.00    -0.241 OA
ATOM      2  C   UNL     1       6.925   0.698   0.000  0.00  0.00    +0.388 C 
ATOM      3  O   UNL     1       6.925  -0.127   0.000  0.00  0.00    -0.241 OA
ENDBRANCH   4   2
ENDBRANCH   8   7
ENDBRANCH   9   8
BRANCH  15  16
ATOM     16  C   UNL     1      -0.171   1.523   0.000  0.00  0.00    +0.122 C 
BRANCH  16  17
ATOM     17  C   UNL     1      -0.584   2.237   0.000  0.00  0.00    -0.002 A 
ATOM     18  C   UNL     1      -1.409   2.237   0.000  0.00  0.00    -0.000 A 
ATOM     19  C   UNL     1      -1.821   2.952   0.000  0.00  0.00    +0.029 A 
ATOM     20  C   UNL     1      -1.409   3.666   0.000  0.00  0.00    +0.140 A 
ATOM     21  F   UNL     1      -1.821   4.381   0.000  0.00  0.00    -0.204 F 
ATOM     22  C   UNL     1      -0.584   3.666   0.000  0.00  0.00    +0.029 A 
ATOM     23  C   UNL     1      -0.171   2.952   0.000  0.00  0.00    -0.000 A 
ENDBRANCH  16  17
ENDBRANCH  15  16
TORSDOF 5
