MODEL 1
REMARK VINA RESULT:     -12.1      0.000      0.000
REMARK  Name = 
REMARK  5 active torsions:
REMARK  status: ('A' for Active; 'I' for Inactive)
REMARK    1  A    between atoms: C_2  and  C_3
REMARK    2  A    between atoms: C_3  and  C_4
REMARK    3  A    between atoms: C_7  and  C_9
REMARK    4  A    between atoms: N_12  and  C_13
REMARK    5  A    between atoms: C_13  and  C_14
REMARK                            x       y       z     vdW  Elec       q    Type
REMARK                         _______ _______ _______ _____ _____    ______ ____
ROOT
ATOM      9  C   UNL     1      -4.089   2.140  24.881  0.00  0.00    +0.096 C 
ATOM     10  C   UNL     1      -4.817   1.981  25.235  0.00  0.00    +0.028 C 
ATOM     11  C   UNL     1      -5.013   1.197  25.073  0.00  0.00    +0.073 C 
ATOM     12  N   UNL     1      -4.407   0.870  24.620  0.00  0.00    -0.268 NA
ATOM     23  C   UNL     1      -3.835   1.454  24.501  0.00  0.00    +0.082 C 
ENDROOT
BRANCH   9   7
ATOM      4  C   UNL     1      -2.760   3.789  25.155  0.00  0.00    +0.226 A 
ATOM      5  N   UNL     1      -3.368   4.143  24.723  0.00  0.00    -0.112 NA
ATOM      6  N   UNL     1      -3.940   3.569  24.568  0.00  0.00    -0.112 NA
ATOM      7  C   UNL     1      -3.686   2.860  24.903  0.00  0.00    +0.227 A 
ATOM      8  O   UNL     1      -2.957   2.995  25.266  0.00  0.00    -0.423 OA
BRANCH   4   3
ATOM      3  C   UNL     1      -2.077   4.162  25.426  0.00  0.00    +0.087 C 
BRANCH   3   2
ATOM      1  C   UNL     1      -0.931   4.944  25.084  0.00  0.00    +0.001 C 
ATOM      2  C   UNL     1      -1.729   4.762  24.979  0.00  0.00    +0.010 C 
ENDBRANCH   3   2
ENDBRANCH   4   3
ENDBRANCH   9   7
BRANCH  12  13
ATOM     13  C   UNL     1      -4.376   0.096  24.335  0.00  0.00    +0.101 C 
BRANCH  13  14
ATOM     14  C   UNL     1      -4.030  -0.498  24.790  0.00  0.00    +0.014 A 
ATOM     15  C   UNL     1      -3.703  -0.405  25.542  0.00  0.00    +0.096 A 
ATOM     16  N   UNL     1      -3.420  -1.139  25.790  0.00  0.00    -0.244 NA
ATOM     17  C   UNL     1      -3.572  -1.685  25.192  0.00  0.00    +0.081 A 
ATOM     18  C   UNL     1      -3.949  -1.289  24.574  0.00  0.00    +0.016 A 
ATOM     19  C   UNL     1      -4.170  -1.702  23.894  0.00  0.00    +0.001 A 
ATOM     20  C   UNL     1      -4.014  -2.509  23.832  0.00  0.00    +0.000 A 
ATOM     21  C   UNL     1      -3.637  -2.905  24.450  0.00  0.00    +0.002 A 
ATOM     22  C   UNL     1      -3.416  -2.494  25.130  0.00  0.00    +0.019 A 
ENDBRANCH  13  14
ENDBRANCH  12  13
TORSDOF 5
ENDMDL
MODEL 2
REMARK VINA RESULT:     -11.0      1.968      2.433
REMARK  Name = 
REMARK  5 active torsions:
REMARK  status: ('A' for Active; 'I' for Inactive)
REMARK    1  A    between atoms: C_2  and  C_3
REMARK    2  A    between atoms: C_3  and  C_4
REMARK    3  A    between atoms: C_7  and  C_9
REMARK    4  A    between atoms: N_12  and  C_13
REMARK    5  A    between atoms: C_13  and  C_14
REMARK                            x       y       z     vdW  Elec       q    Type
REMARK                         _______ _______ _______ _____ _____    ______ ____
ROOT
ATOM      9  C   UNL     1      -0.991   1.120  25.191  0.00  0.00    +0.096 C 
ATOM     10  C   UNL     1      -0.570   0.586  24.724  0.00  0.00    +0.028 C 
ATOM     11  C   UNL     1      -0.976  -0.131  24.726  0.00  0.00    +0.073 C 
ATOM     12  N   UNL     1      -1.649  -0.043  25.195  0.00  0.00    -0.268 NA
ATOM     23  C   UNL     1      -1.658   0.731  25.482  0.00  0.00    +0.082 C 
ENDROOT
BRANCH   9   7
ATOM      4  C   UNL     1      -0.681   3.232  25.241  0.00  0.00    +0.226 A 
ATOM      5  N   UNL     1      -0.243   2.990  25.897  0.00  0.00    -0.112 NA
ATOM      6  N   UNL     1      -0.306   2.170  25.958  0.00  0.00    -0.112 NA
ATOM      7  C   UNL     1      -0.783   1.904  25.341  0.00  0.00    +0.227 A 
ATOM      8  O   UNL     1      -1.015   2.560  24.897  0.00  0.00    -0.423 OA
BRANCH   4   3
ATOM      3  C   UNL     1      -0.770   4.007  24.976  0.00  0.00    +0.087 C 
BRANCH   3   2
ATOM      1  C   UNL     1      -1.429   5.274  25.053  0.00  0.00    +0.001 C 
ATOM      2  C   UNL     1      -1.354   4.490  25.302  0.00  0.00    +0.010 C 
ENDBRANCH   3   2
ENDBRANCH   4   3
ENDBRANCH   9   7
BRANCH  12  13
ATOM     13  C   UNL     1      -2.213  -0.624  25.349  0.00  0.00    +0.101 C 
BRANCH  13  14
ATOM     14  C   UNL     1      -2.860  -0.715  24.847  0.00  0.00    +0.014 A 
ATOM     15  C   UNL     1      -3.262  -0.107  24.459  0.00  0.00    +0.096 A 
ATOM     16  N   UNL     1      -3.870  -0.446  24.016  0.00  0.00    -0.244 NA
ATOM     17  C   UNL     1      -3.845  -1.262  24.131  0.00  0.00    +0.081 A 
ATOM     18  C   UNL     1      -3.221  -1.428  24.644  0.00  0.00    +0.016 A 
ATOM     19  C   UNL     1      -3.061  -2.209  24.860  0.00  0.00    +0.001 A 
ATOM     20  C   UNL     1      -3.525  -2.822  24.563  0.00  0.00    +0.000 A 
ATOM     21  C   UNL     1      -4.150  -2.656  24.050  0.00  0.00    +0.002 A 
ATOM     22  C   UNL     1      -4.310  -1.876  23.833  0.00  0.00    +0.019 A 
ENDBRANCH  13  14
ENDBRANCH  12  13
TORSDOF 5
ENDMDL
MODEL 3
REMARK VINA RESULT:     -10.6      1.079      5.125
REMARK  Name = 
REMARK  5 active torsions:
REMARK  status: ('A' for Active; 'I' for Inactive)
REMARK    1  A    between atoms: C_2  and  C_3
REMARK    2  A    between atoms: C_3  and  C_4
REMARK    3  A    between atoms: C_7  and  C_9
REMARK    4  A    between atoms: N_12  and  C_13
REMARK    5  A    between atoms: C_13  and  C_14
REMARK                            x       y       z     vdW  Elec       q    Type
REMARK                         _______ _______ _______ _____ _____    ______ ____
ROOT
ATOM      9  C   UNL     1      -4.311   0.938  24.727  0.00  0.00    +0.096 C 
ATOM     10  C   UNL     1      -5.031   1.331  24.813  0.00  0.00    +0.028 C 
ATOM     11  C   UNL     1      -4.901   2.133  24.672  0.00  0.00    +0.073 C 
ATOM     12  N   UNL     1      -4.102   2.237  24.499  0.00  0.00    -0.268 NA
ATOM     23  C   UNL     1      -3.737   1.497  24.533  0.00  0.00    +0.082 C 
ENDROOT
BRANCH   9   7
ATOM      4  C   UNL     1      -4.042  -1.173  24.554  0.00  0.00    +0.226 A 
ATOM      5  N   UNL     1      -3.954  -1.067  25.367  0.00  0.00    -0.112 NA
ATOM      6  N   UNL     1      -4.043  -0.264  25.531  0.00  0.00    -0.112 NA
ATOM      7  C   UNL     1      -4.187   0.127  24.820  0.00  0.00    +0.227 A 
ATOM      8  O   UNL     1      -4.187  -0.434  24.216  0.00  0.00    -0.423 OA
BRANCH   4   3
ATOM      3  C   UNL     1      -3.995  -1.891  24.150  0.00  0.00    +0.087 C 
BRANCH   3   2
ATOM      1  C   UNL     1      -3.554  -3.249  24.088  0.00  0.00    +0.001 C 
ATOM      2  C   UNL     1      -3.586  -2.525  24.484  0.00  0.00    +0.010 C 
ENDBRANCH   3   2
ENDBRANCH   4   3
ENDBRANCH   9   7
BRANCH  12  13
ATOM     13  C   UNL     1      -3.731   2.952  24.322  0.00  0.00    +0.101 C 
BRANCH  13  14
ATOM     14  C   UNL     1      -3.428   3.421  24.929  0.00  0.00    +0.014 A 
ATOM     15  C   UNL     1      -3.821   3.627  25.625  0.00  0.00    +0.096 A 
ATOM     16  N   UNL     1      -3.314   4.099  26.073  0.00  0.00    -0.244 NA
ATOM     17  C   UNL     1      -2.610   4.186  25.654  0.00  0.00    +0.081 A 
ATOM     18  C   UNL     1      -2.680   3.767  24.947  0.00  0.00    +0.016 A 
ATOM     19  C   UNL     1      -2.053   3.755  24.411  0.00  0.00    +0.001 A 
ATOM     20  C   UNL     1      -1.356   4.161  24.581  0.00  0.00    +0.000 A 
ATOM     21  C   UNL     1      -1.286   4.580  25.289  0.00  0.00    +0.002 A 
ATOM     22  C   UNL     1      -1.912   4.593  25.825  0.00  0.00    +0.019 A 
ENDBRANCH  13  14
ENDBRANCH  12  13
TORSDOF 5
ENDMDL
MODEL 4
REMARK VINA RESULT:     -10.4      2.001      5.596
REMARK  Name = 
REMARK  5 active torsions:
REMARK  status: ('A' for Active; 'I' for Inactive)
REMARK    1  A    between atoms: C_2  and  C_3
REMARK    2  A    between atoms: C_3  and  C_4
REMARK    3  A    between atoms: C_7  and  C_9
REMARK    4  A    between atoms: N_12  and  C_13
REMARK    5  A    between atoms: C_13  and  C_14
REMARK                            x       y       z     vdW  Elec       q    Type
REMARK                         _______ _______ _______ _____ _____    ______ ____
ROOT
ATOM      9  C   UNL     1      -1.369   0.022  25.025  0.00  0.00    +0.096 C 
ATOM     10  C   UNL     1      -0.960   0.250  25.704  0.00  0.00    +0.028 C 
ATOM     11  C   UNL     1      -0.794   1.055  25.644  0.00  0.00    +0.073 C 
ATOM     12  N   UNL     1      -1.100   1.326  24.928  0.00  0.00    -0.268 NA
ATOM     23  C   UNL     1      -1.456   0.687  24.546  0.00  0.00    +0.082 C 
ENDROOT
BRANCH   9   7
ATOM      4  C   UNL     1      -2.455  -1.780  24.662  0.00  0.00    +0.226 A 
ATOM      5  N   UNL     1      -1.680  -2.031  24.532  0.00  0.00    -0.112 NA
ATOM      6  N   UNL     1      -1.179  -1.387  24.652  0.00  0.00    -0.112 NA
ATOM      7  C   UNL     1      -1.644  -0.737  24.857  0.00  0.00    +0.227 A 
ATOM      8  O   UNL     1      -2.432  -0.980  24.863  0.00  0.00    -0.423 OA
BRANCH   4   3
ATOM      3  C   UNL     1      -3.132  -2.246  24.603  0.00  0.00    +0.087 C 
BRANCH   3   2
ATOM      1  C   UNL     1      -4.339  -2.554  23.901  0.00  0.00    +0.001 C 
ATOM      2  C   UNL     1      -3.751  -2.013  24.110  0.00  0.00    +0.010 C 
ENDBRANCH   3   2
ENDBRANCH   4   3
ENDBRANCH   9   7
BRANCH  12  13
ATOM     13  C   UNL     1      -1.058   2.100  24.644  0.00  0.00    +0.101 C 
BRANCH  13  14
ATOM     14  C   UNL     1      -1.589   2.669  24.916  0.00  0.00    +0.014 A 
ATOM     15  C   UNL     1      -2.358   2.528  25.183  0.00  0.00    +0.096 A 
ATOM     16  N   UNL     1      -2.689   3.251  25.401  0.00  0.00    -0.244 NA
ATOM     17  C   UNL     1      -2.126   3.839  25.269  0.00  0.00    +0.081 A 
ATOM     18  C   UNL     1      -1.447   3.479  24.970  0.00  0.00    +0.016 A 
ATOM     19  C   UNL     1      -0.786   3.937  24.784  0.00  0.00    +0.001 A 
ATOM     20  C   UNL     1      -0.803   4.753  24.899  0.00  0.00    +0.000 A 
ATOM     21  C   UNL     1      -1.483   5.113  25.198  0.00  0.00    +0.002 A 
ATOM     22  C   UNL     1      -2.144   4.656  25.384  0.00  0.00    +0.019 A 
ENDBRANCH  13  14
ENDBRANCH  12  13
TORSDOF 5
ENDMDL
MODEL 5
REMARK VINA RESULT:      -8.8      1.891      4.953
REMARK  Name = 
REMARK  5 active torsions:
REMARK  status: ('A' for Active; 'I' for Inactive)
REMARK    1  A    between atoms: C_2  and  C_3
REMARK    2  A    between atoms: C_3  and  C_4
REMARK    3  A    between atoms: C_7  and  C_9
REMARK    4  A    between atoms: N_12  and  C_13
REMARK    5  A    between atoms: C_13  and  C_14
REMARK                            x       y       z     vdW  Elec       q    Type
REMARK                         _______ _______ _______ _____ _____    ______ ____
ROOT
ATOM      9  C   UNL     1      -1.953   0.402  24.745  0.00  0.00    +0.096 C 
ATOM     10  C   UNL     1      -1.511   0.960  25.163  0.00  0.00    +0.028 C 
ATOM     11  C   UNL     1      -1.879   1.692  25.077  0.00  0.00    +0.073 C 
ATOM     12  N   UNL     1      -2.548   1.589  24.606  0.00  0.00    -0.268 NA
ATOM     23  C   UNL     1      -2.593   0.791  24.401  0.00  0.00    +0.082 C 
ENDROOT
BRANCH   9   7
ATOM      4  C   UNL     1      -1.927  -1.727  24.578  0.00  0.00    +0.226 A 
ATOM      5  N   UNL     1      -1.119  -1.558  24.595  0.00  0.00    -0.112 NA
ATOM      6  N   UNL     1      -1.031  -0.740  24.660  0.00  0.00    -0.112 NA
ATOM      7  C   UNL     1      -1.783  -0.403  24.683  0.00  0.00    +0.227 A 
ATOM      8  O   UNL     1      -2.337  -1.012  24.632  0.00  0.00    -0.423 OA
BRANCH   4   3
ATOM      3  C   UNL     1      -2.264  -2.476  24.517  0.00  0.00    +0.087 C 
BRANCH   3   2
ATOM      1  C   UNL     1      -3.440  -3.289  24.512  0.00  0.00    +0.001 C 
ATOM      2  C   UNL     1      -3.054  -2.591  24.725  0.00  0.00    +0.010 C 
ENDBRANCH   3   2
ENDBRANCH   4   3
ENDBRANCH   9   7
BRANCH  12  13
ATOM     13  C   UNL     1      -3.078   2.179  24.379  0.00  0.00    +0.101 C 
BRANCH  13  14
ATOM     14  C   UNL     1      -3.862   2.148  24.631  0.00  0.00    +0.014 A 
ATOM     15  C   UNL     1      -4.352   1.484  24.613  0.00  0.00    +0.096 A 
ATOM     16  N   UNL     1      -5.088   1.701  24.916  0.00  0.00    -0.244 NA
ATOM     17  C   UNL     1      -5.053   2.499  25.121  0.00  0.00    +0.081 A 
ATOM     18  C   UNL     1      -4.296   2.775  24.945  0.00  0.00    +0.016 A 
ATOM     19  C   UNL     1      -4.100   3.563  25.094  0.00  0.00    +0.001 A 
ATOM     20  C   UNL     1      -4.660   4.073  25.418  0.00  0.00    +0.000 A 
ATOM     21  C   UNL     1      -5.417   3.797  25.595  0.00  0.00    +0.002 A 
ATOM     22  C   UNL     1      -5.614   3.010  25.447  0.00  0.00    +0.019 A 
ENDBRANCH  13  14
ENDBRANCH  12  13
TORSDOF 5
ENDMDL
