MODEL 1
REMARK VINA RESULT:     -13.5      0.000      0.000
REMARK  Name = 
REMARK  4 active torsions:
REMARK  status: ('A' for Active; 'I' for Inactive)
REMARK    1  A    between atoms: O_2  and  C_3
REMARK    2  A    between atoms: C_3  and  C_5
REMARK    3  A    between atoms: C_11  and  C_13
REMARK    4  A    between atoms: C_16  and  C_19
REMARK                            x       y       z     vdW  Elec       q    Type
REMARK                         _______ _______ _______ _____ _____    ______ ____
ROOT
ATOM      5  C   UNL     1      -3.387   3.175  25.051  0.00  0.00    +0.181 C 
ATOM      6  C   UNL     1      -2.725   3.611  25.279  0.00  0.00    +0.078 C 
ATOM      7  C   UNL     1      -2.009   3.228  25.427  0.00  0.00    +0.078 A 
ATOM      8  C   UNL     1      -1.956   2.409  25.348  0.00  0.00    +0.094 A 
ATOM      9  C   UNL     1      -2.618   1.972  25.120  0.00  0.00    +0.141 C 
ATOM     10  N   UNL     1      -3.333   2.355  24.972  0.00  0.00    -0.262 N 
ATOM     11  C   UNL     1      -3.995   1.918  24.744  0.00  0.00    +0.250 C 
ATOM     12  O   UNL     1      -4.711   2.302  24.595  0.00  0.00    -0.270 OA
ATOM     25  N   UNL     1      -1.183   2.185  25.530  0.00  0.00    -0.225 NA
ATOM     26  C   UNL     1      -0.759   2.866  25.722  0.00  0.00    +0.198 A 
ATOM     27  N   UNL     1      -1.270   3.510  25.658  0.00  0.00    -0.227 NA
ENDROOT
BRANCH  11  13
ATOM     13  C   UNL     1      -3.941   1.099  24.664  0.00  0.00    +0.054 A 
ATOM     14  C   UNL     1      -3.639   0.771  23.971  0.00  0.00    +0.005 A 
ATOM     15  C   UNL     1      -3.585  -0.049  23.892  0.00  0.00    +0.000 A 
ATOM     16  C   UNL     1      -3.834  -0.540  24.506  0.00  0.00    +0.000 A 
ATOM     17  C   UNL     1      -4.137  -0.211  25.200  0.00  0.00    +0.000 A 
ATOM     18  C   UNL     1      -4.190   0.608  25.280  0.00  0.00    +0.005 A 
BRANCH  16  19
ATOM     19  C   UNL     1      -3.780  -1.360  24.427  0.00  0.00    +0.000 A 
ATOM     20  C   UNL     1      -4.286  -1.757  23.911  0.00  0.00    +0.000 A 
ATOM     21  C   UNL     1      -4.232  -2.577  23.832  0.00  0.00    +0.000 A 
ATOM     22  C   UNL     1      -3.673  -2.998  24.268  0.00  0.00    +0.000 A 
ATOM     23  C   UNL     1      -3.167  -2.599  24.785  0.00  0.00    +0.000 A 
ATOM     24  C   UNL     1      -3.221  -1.780  24.864  0.00  0.00    +0.000 A 
ENDBRANCH  16  19
ENDBRANCH  11  13
BRANCH   5   3
ATOM      3  C   UNL     1      -4.102   3.557  24.902  0.00  0.00    +0.336 C 
ATOM      4  O   UNL     1      -4.287   3.802  24.137  0.00  0.00    -0.248 OA
BRANCH   3   2
ATOM      1  C   UNL     1      -5.284   4.186  25.401  0.00  0.00    +0.256 C 
ATOM      2  O   UNL     1      -4.633   3.695  25.519  0.00  0.00    -0.443 OA
ENDBRANCH   3   2
ENDBRANCH   5   3
TORSDOF 4
ENDMDL
MODEL 2
REMARK VINA RESULT:     -13.0      1.200      2.209
REMARK  Name = 
REMARK  4 active torsions:
REMARK  status: ('A' for Active; 'I' for Inactive)
REMARK    1  A    between atoms: O_2  and  C_3
REMARK    2  A    between atoms: C_3  and  C_5
REMARK    3  A    between atoms: C_11  and  C_13
REMARK    4  A    between atoms: C_16  and  C_19
REMARK                            x       y       z     vdW  Elec       q    Type
REMARK                         _______ _______ _______ _____ _____    ______ ____
ROOT
ATOM      5  C   UNL     1      -3.475   3.164  25.075  0.00  0.00    +0.181 C 
ATOM      6  C   UNL     1      -4.081   3.666  25.320  0.00  0.00    +0.078 C 
ATOM      7  C   UNL     1      -4.832   3.363  25.475  0.00  0.00    +0.078 A 
ATOM      8  C   UNL     1      -4.977   2.555  25.385  0.00  0.00    +0.094 A 
ATOM      9  C   UNL     1      -4.370   2.052  25.140  0.00  0.00    +0.141 C 
ATOM     10  N   UNL     1      -3.619   2.357  24.985  0.00  0.00    -0.262 N 
ATOM     11  C   UNL     1      -3.013   1.854  24.740  0.00  0.00    +0.250 C 
ATOM     12  O   UNL     1      -2.262   2.159  24.585  0.00  0.00    -0.270 OA
ATOM     25  N   UNL     1      -5.766   2.415  25.577  0.00  0.00    -0.225 NA
ATOM     26  C   UNL     1      -6.110   3.135  25.785  0.00  0.00    +0.198 A 
ATOM     27  N   UNL     1      -5.533   3.720  25.722  0.00  0.00    -0.227 NA
ENDROOT
BRANCH  11  13
ATOM     13  C   UNL     1      -3.158   1.046  24.650  0.00  0.00    +0.054 A 
ATOM     14  C   UNL     1      -3.058   0.536  25.290  0.00  0.00    +0.005 A 
ATOM     15  C   UNL     1      -3.202  -0.271  25.200  0.00  0.00    +0.000 A 
ATOM     16  C   UNL     1      -3.446  -0.568  24.471  0.00  0.00    +0.000 A 
ATOM     17  C   UNL     1      -3.546  -0.057  23.830  0.00  0.00    +0.000 A 
ATOM     18  C   UNL     1      -3.402   0.750  23.920  0.00  0.00    +0.005 A 
BRANCH  16  19
ATOM     19  C   UNL     1      -3.591  -1.375  24.381  0.00  0.00    +0.000 A 
ATOM     20  C   UNL     1      -4.205  -1.632  23.895  0.00  0.00    +0.000 A 
ATOM     21  C   UNL     1      -4.350  -2.440  23.805  0.00  0.00    +0.000 A 
ATOM     22  C   UNL     1      -3.880  -2.990  24.201  0.00  0.00    +0.000 A 
ATOM     23  C   UNL     1      -3.264  -2.732  24.687  0.00  0.00    +0.000 A 
ATOM     24  C   UNL     1      -3.120  -1.925  24.777  0.00  0.00    +0.000 A 
ENDBRANCH  16  19
ENDBRANCH  11  13
BRANCH   5   3
ATOM      3  C   UNL     1      -2.724   3.468  24.920  0.00  0.00    +0.336 C 
ATOM      4  O   UNL     1      -2.490   3.612  24.142  0.00  0.00    -0.248 OA
BRANCH   3   2
ATOM      1  C   UNL     1      -1.573   4.144  25.430  0.00  0.00    +0.256 C 
ATOM      2  O   UNL     1      -2.207   3.629  25.543  0.00  0.00    -0.443 OA
ENDBRANCH   3   2
ENDBRANCH   5   3
TORSDOF 4
ENDMDL
MODEL 3
REMARK VINA RESULT:     -12.5      0.893      1.023
REMARK  Name = 
REMARK  4 active torsions:
REMARK  status: ('A' for Active; 'I' for Inactive)
REMARK    1  A    between atoms: O_2  and  C_3
REMARK    2  A    between atoms: C_3  and  C_5
REMARK    3  A    between atoms: C_11  and  C_13
REMARK    4  A    between atoms: C_16  and  C_19
REMARK                            x       y       z     vdW  Elec       q    Type
REMARK                         _______ _______ _______ _____ _____    ______ ____
ROOT
ATOM      5  C   UNL     1      -2.287   2.893  24.968  0.00  0.00    +0.181 C 
ATOM      6  C   UNL     1      -1.520   3.193  24.947  0.00  0.00    +0.078 C 
ATOM      7  C   UNL     1      -0.882   2.688  24.810  0.00  0.00    +0.078 A 
ATOM      8  C   UNL     1      -1.012   1.882  24.693  0.00  0.00    +0.094 A 
ATOM      9  C   UNL     1      -1.781   1.581  24.714  0.00  0.00    +0.141 C 
ATOM     10  N   UNL     1      -2.418   2.087  24.851  0.00  0.00    -0.262 N 
ATOM     11  C   UNL     1      -3.185   1.785  24.872  0.00  0.00    +0.250 C 
ATOM     12  O   UNL     1      -3.823   2.292  25.009  0.00  0.00    -0.270 OA
ATOM     25  N   UNL     1      -0.282   1.520  24.571  0.00  0.00    -0.225 NA
ATOM     26  C   UNL     1       0.301   2.102  24.611  0.00  0.00    +0.198 A 
ATOM     27  N   UNL     1      -0.070   2.824  24.759  0.00  0.00    -0.227 NA
ENDROOT
BRANCH  11  13
ATOM     13  C   UNL     1      -3.316   0.979  24.755  0.00  0.00    +0.054 A 
ATOM     14  C   UNL     1      -3.483   0.694  24.000  0.00  0.00    +0.005 A 
ATOM     15  C   UNL     1      -3.614  -0.112  23.884  0.00  0.00    +0.000 A 
ATOM     16  C   UNL     1      -3.577  -0.633  24.522  0.00  0.00    +0.000 A 
ATOM     17  C   UNL     1      -3.410  -0.347  25.278  0.00  0.00    +0.000 A 
ATOM     18  C   UNL     1      -3.279   0.459  25.395  0.00  0.00    +0.005 A 
BRANCH  16  19
ATOM     19  C   UNL     1      -3.708  -1.439  24.406  0.00  0.00    +0.000 A 
ATOM     20  C   UNL     1      -4.231  -1.692  23.820  0.00  0.00    +0.000 A 
ATOM     21  C   UNL     1      -4.362  -2.498  23.704  0.00  0.00    +0.000 A 
ATOM     22  C   UNL     1      -3.969  -3.052  24.172  0.00  0.00    +0.000 A 
ATOM     23  C   UNL     1      -3.445  -2.799  24.758  0.00  0.00    +0.000 A 
ATOM     24  C   UNL     1      -3.315  -1.993  24.875  0.00  0.00    +0.000 A 
ENDBRANCH  16  19
ENDBRANCH  11  13
BRANCH   5   3
ATOM      3  C   UNL     1      -2.924   3.398  25.105  0.00  0.00    +0.336 C 
ATOM      4  O   UNL     1      -3.351   3.705  24.470  0.00  0.00    -0.248 OA
BRANCH   3   2
ATOM      1  C   UNL     1      -3.619   4.249  26.019  0.00  0.00    +0.256 C 
ATOM      2  O   UNL     1      -3.135   3.597  25.878  0.00  0.00    -0.443 OA
ENDBRANCH   3   2
ENDBRANCH   5   3
TORSDOF 4
ENDMDL
MODEL 4
REMARK VINA RESULT:     -11.3      2.473      5.335
REMARK  Name = 
REMARK  4 active torsions:
REMARK  status: ('A' for Active; 'I' for Inactive)
REMARK    1  A    between atoms: O_2  and  C_3
REMARK    2  A    between atoms: C_3  and  C_5
REMARK    3  A    between atoms: C_11  and  C_13
REMARK    4  A    between atoms: C_16  and  C_19
REMARK                            x       y       z     vdW  Elec       q    Type
REMARK                         _______ _______ _______ _____ _____    ______ ____
ROOT
ATOM      5  C   UNL     1      -1.681  -0.817  24.686  0.00  0.00    +0.181 C 
ATOM      6  C   UNL     1      -2.361  -1.277  24.607  0.00  0.00    +0.078 C 
ATOM      7  C   UNL     1      -3.103  -0.917  24.579  0.00  0.00    +0.078 A 
ATOM      8  C   UNL     1      -3.164  -0.096  24.629  0.00  0.00    +0.094 A 
ATOM      9  C   UNL     1      -2.484   0.365  24.708  0.00  0.00    +0.141 C 
ATOM     10  N   UNL     1      -1.743   0.004  24.737  0.00  0.00    -0.262 N 
ATOM     11  C   UNL     1      -1.063   0.465  24.816  0.00  0.00    +0.250 C 
ATOM     12  O   UNL     1      -0.321   0.104  24.844  0.00  0.00    -0.270 OA
ATOM     25  N   UNL     1      -3.963   0.104  24.586  0.00  0.00    -0.225 NA
ATOM     26  C   UNL     1      -4.396  -0.594  24.509  0.00  0.00    +0.198 A 
ATOM     27  N   UNL     1      -3.864  -1.224  24.504  0.00  0.00    -0.227 NA
ENDROOT
BRANCH  11  13
ATOM     13  C   UNL     1      -1.125   1.286  24.866  0.00  0.00    +0.054 A 
ATOM     14  C   UNL     1      -1.159   1.652  25.604  0.00  0.00    +0.005 A 
ATOM     15  C   UNL     1      -1.221   2.473  25.655  0.00  0.00    +0.000 A 
ATOM     16  C   UNL     1      -1.248   2.929  24.968  0.00  0.00    +0.000 A 
ATOM     17  C   UNL     1      -1.213   2.562  24.229  0.00  0.00    +0.000 A 
ATOM     18  C   UNL     1      -1.151   1.741  24.178  0.00  0.00    +0.005 A 
BRANCH  16  19
ATOM     19  C   UNL     1      -1.309   3.750  25.018  0.00  0.00    +0.000 A 
ATOM     20  C   UNL     1      -2.007   4.095  25.290  0.00  0.00    +0.000 A 
ATOM     21  C   UNL     1      -2.068   4.916  25.341  0.00  0.00    +0.000 A 
ATOM     22  C   UNL     1      -1.432   5.392  25.119  0.00  0.00    +0.000 A 
ATOM     23  C   UNL     1      -0.733   5.046  24.847  0.00  0.00    +0.000 A 
ATOM     24  C   UNL     1      -0.672   4.225  24.796  0.00  0.00    +0.000 A 
ENDBRANCH  16  19
ENDBRANCH  11  13
BRANCH   5   3
ATOM      3  C   UNL     1      -0.940  -1.177  24.714  0.00  0.00    +0.336 C 
ATOM      4  O   UNL     1      -0.468  -1.202  24.039  0.00  0.00    -0.248 OA
BRANCH   3   2
ATOM      1  C   UNL     1      -0.090  -2.097  25.401  0.00  0.00    +0.256 C 
ATOM      2  O   UNL     1      -0.671  -1.513  25.418  0.00  0.00    -0.443 OA
ENDBRANCH   3   2
ENDBRANCH   5   3
TORSDOF 4
ENDMDL
MODEL 5
REMARK VINA RESULT:     -11.0      2.269      4.624
REMARK  Name = 
REMARK  4 active torsions:
REMARK  status: ('A' for Active; 'I' for Inactive)
REMARK    1  A    between atoms: O_2  and  C_3
REMARK    2  A    between atoms: C_3  and  C_5
REMARK    3  A    between atoms: C_11  and  C_13
REMARK    4  A    between atoms: C_16  and  C_19
REMARK                            x       y       z     vdW  Elec       q    Type
REMARK                         _______ _______ _______ _____ _____    ______ ____
ROOT
ATOM      5  C   UNL     1      -2.731  -1.903  24.576  0.00  0.00    +0.181 C 
ATOM      6  C   UNL     1      -1.933  -2.108  24.561  0.00  0.00    +0.078 C 
ATOM      7  C   UNL     1      -1.354  -1.525  24.640  0.00  0.00    +0.078 A 
ATOM      8  C   UNL     1      -1.576  -0.735  24.733  0.00  0.00    +0.094 A 
ATOM      9  C   UNL     1      -2.375  -0.529  24.747  0.00  0.00    +0.141 C 
ATOM     10  N   UNL     1      -2.952  -1.114  24.669  0.00  0.00    -0.262 N 
ATOM     11  C   UNL     1      -3.751  -0.908  24.684  0.00  0.00    +0.250 C 
ATOM     12  O   UNL     1      -4.329  -1.492  24.605  0.00  0.00    -0.270 OA
ATOM     25  N   UNL     1      -0.889  -0.284  24.796  0.00  0.00    -0.225 NA
ATOM     26  C   UNL     1      -0.243  -0.793  24.743  0.00  0.00    +0.198 A 
ATOM     27  N   UNL     1      -0.531  -1.560  24.646  0.00  0.00    -0.227 NA
ENDROOT
BRANCH  11  13
ATOM     13  C   UNL     1      -3.972  -0.118  24.777  0.00  0.00    +0.054 A 
ATOM     14  C   UNL     1      -4.185   0.165  25.521  0.00  0.00    +0.005 A 
ATOM     15  C   UNL     1      -4.407   0.954  25.614  0.00  0.00    +0.000 A 
ATOM     16  C   UNL     1      -4.415   1.460  24.962  0.00  0.00    +0.000 A 
ATOM     17  C   UNL     1      -4.201   1.176  24.217  0.00  0.00    +0.000 A 
ATOM     18  C   UNL     1      -3.979   0.387  24.124  0.00  0.00    +0.005 A 
BRANCH  16  19
ATOM     19  C   UNL     1      -4.636   2.250  25.055  0.00  0.00    +0.000 A 
ATOM     20  C   UNL     1      -5.380   2.436  25.357  0.00  0.00    +0.000 A 
ATOM     21  C   UNL     1      -5.601   3.226  25.450  0.00  0.00    +0.000 A 
ATOM     22  C   UNL     1      -5.078   3.828  25.241  0.00  0.00    +0.000 A 
ATOM     23  C   UNL     1      -4.333   3.641  24.939  0.00  0.00    +0.000 A 
ATOM     24  C   UNL     1      -4.112   2.852  24.846  0.00  0.00    +0.000 A 
ENDBRANCH  16  19
ENDBRANCH  11  13
BRANCH   5   3
ATOM      3  C   UNL     1      -3.308  -2.486  24.498  0.00  0.00    +0.336 C 
ATOM      4  O   UNL     1      -3.597  -2.873  25.167  0.00  0.00    -0.248 OA
BRANCH   3   2
ATOM      1  C   UNL     1      -4.076  -3.348  23.656  0.00  0.00    +0.256 C 
ATOM      2  O   UNL     1      -3.598  -2.684  23.751  0.00  0.00    -0.443 OA
ENDBRANCH   3   2
ENDBRANCH   5   3
TORSDOF 4
ENDMDL
MODEL 6
REMARK VINA RESULT:     -10.8      2.759      5.252
REMARK  Name = 
REMARK  4 active torsions:
REMARK  status: ('A' for Active; 'I' for Inactive)
REMARK    1  A    between atoms: O_2  and  C_3
REMARK    2  A    between atoms: C_3  and  C_5
REMARK    3  A    between atoms: C_11  and  C_13
REMARK    4  A    between atoms: C_16  and  C_19
REMARK                            x       y       z     vdW  Elec       q    Type
REMARK                         _______ _______ _______ _____ _____    ______ ____
ROOT
ATOM      5  C   UNL     1      -0.691  -0.620  24.512  0.00  0.00    +0.181 C 
ATOM      6  C   UNL     1      -0.125  -0.972  24.027  0.00  0.00    +0.078 C 
ATOM      7  C   UNL     1       0.384  -0.503  23.578  0.00  0.00    +0.078 A 
ATOM      8  C   UNL     1       0.327   0.319  23.615  0.00  0.00    +0.094 A 
ATOM      9  C   UNL     1      -0.240   0.672  24.100  0.00  0.00    +0.141 C 
ATOM     10  N   UNL     1      -0.748   0.203  24.549  0.00  0.00    -0.262 N 
ATOM     11  C   UNL     1      -1.314   0.556  25.033  0.00  0.00    +0.250 C 
ATOM     12  O   UNL     1      -1.824   0.086  25.482  0.00  0.00    -0.270 OA
ATOM     25  N   UNL     1       0.900   0.637  23.114  0.00  0.00    -0.225 NA
ATOM     26  C   UNL     1       1.311   0.012  22.768  0.00  0.00    +0.198 A 
ATOM     27  N   UNL     1       0.992  -0.692  23.055  0.00  0.00    -0.227 NA
ENDROOT
BRANCH  11  13
ATOM     13  C   UNL     1      -1.372   1.378  25.070  0.00  0.00    +0.054 A 
ATOM     14  C   UNL     1      -0.948   1.796  25.641  0.00  0.00    +0.005 A 
ATOM     15  C   UNL     1      -1.005   2.618  25.678  0.00  0.00    +0.000 A 
ATOM     16  C   UNL     1      -1.486   3.023  25.143  0.00  0.00    +0.000 A 
ATOM     17  C   UNL     1      -1.910   2.604  24.571  0.00  0.00    +0.000 A 
ATOM     18  C   UNL     1      -1.853   1.782  24.535  0.00  0.00    +0.005 A 
BRANCH  16  19
ATOM     19  C   UNL     1      -1.543   3.845  25.180  0.00  0.00    +0.000 A 
ATOM     20  C   UNL     1      -0.942   4.314  24.867  0.00  0.00    +0.000 A 
ATOM     21  C   UNL     1      -0.999   5.136  24.904  0.00  0.00    +0.000 A 
ATOM     22  C   UNL     1      -1.658   5.489  25.253  0.00  0.00    +0.000 A 
ATOM     23  C   UNL     1      -2.260   5.019  25.566  0.00  0.00    +0.000 A 
ATOM     24  C   UNL     1      -2.203   4.197  25.529  0.00  0.00    +0.000 A 
ENDBRANCH  16  19
ENDBRANCH  11  13
BRANCH   5   3
ATOM      3  C   UNL     1      -1.200  -1.088  24.960  0.00  0.00    +0.336 C 
ATOM      4  O   UNL     1      -1.022  -1.253  25.749  0.00  0.00    -0.248 OA
BRANCH   3   2
ATOM      1  C   UNL     1      -2.277  -2.027  24.975  0.00  0.00    +0.256 C 
ATOM      2  O   UNL     1      -1.888  -1.393  24.621  0.00  0.00    -0.443 OA
ENDBRANCH   3   2
ENDBRANCH   5   3
TORSDOF 4
ENDMDL
