REMARK  Name = 
REMARK  8 active torsions:
REMARK  status: ('A' for Active; 'I' for Inactive)
REMARK    1  A    between atoms: O_2  and  C_3
REMARK    2  A    between atoms: C_6  and  C_7
REMARK    3  A    between atoms: C_7  and  N_8
REMARK    4  A    between atoms: C_9  and  C_11
REMARK    5  A    between atoms: C_11  and  C_12
REMARK    6  A    between atoms: C_17  and  C_18
REMARK    7  A    between atoms: C_18  and  C_19
REMARK    8  A    between atoms: C_22  and  C_24
REMARK                            x       y       z     vdW  Elec       q    Type
REMARK                         _______ _______ _______ _____ _____    ______ ____
ROOT
ATOM     12  C   UNL     1       1.429   0.825   0.000  0.00  0.00    +0.012 C 
ATOM     13  C   UNL     1       2.143   1.238   0.000  0.00  0.00    +0.019 C 
ATOM     14  C   UNL     1       2.858   0.825   0.000  0.00  0.00    +0.089 C 
ATOM     15  N   UNL     1       2.858   0.000   0.000  0.00  0.00    -0.218 NA
ATOM     16  C   UNL     1       2.143  -0.412   0.000  0.00  0.00    +0.089 C 
ATOM     17  C   UNL     1       1.429   0.000   0.000  0.00  0.00    +0.024 C 
ENDROOT
BRANCH  12  11
ATOM     11  C   UNL     1       0.715   1.238   0.000  0.00  0.00    +0.087 C 
BRANCH  11   9
ATOM      8  N   UNL     1       0.000   2.475   0.000  0.00  0.00    -0.201 NA
ATOM      9  C   UNL     1       0.715   2.062   0.000  0.00  0.00    +0.242 C 
ATOM     10  O   UNL     1       1.429   2.475   0.000  0.00  0.00    -0.273 OA
BRANCH   8   7
ATOM      7  C   UNL     1       0.000   3.300   0.000  0.00  0.00    +0.141 C 
BRANCH   7   6
ATOM      3  C   UNL     1       2.143   4.537   0.000  0.00  0.00    +0.139 A 
ATOM      4  C   UNL     1       2.143   3.712   0.000  0.00  0.00    +0.037 A 
ATOM      5  C   UNL     1       1.429   3.300   0.000  0.00  0.00    +0.001 A 
ATOM      6  C   UNL     1       0.715   3.712   0.000  0.00  0.00    -0.000 A 
ATOM     31  C   UNL     1       0.715   4.537   0.000  0.00  0.00    +0.001 A 
ATOM     32  C   UNL     1       1.429   4.950   0.000  0.00  0.00    +0.037 A 
BRANCH   3   2
ATOM      1  C   UNL     1       2.858   5.775   0.000  0.00  0.00    +0.252 C 
ATOM      2  O   UNL     1       2.858   4.950   0.000  0.00  0.00    -0.471 OA
ENDBRANCH   3   2
ENDBRANCH   7   6
ENDBRANCH   8   7
ENDBRANCH  11   9
ENDBRANCH  12  11
BRANCH  17  18
ATOM     18  C   UNL     1       0.715  -0.412   0.000  0.00  0.00    +0.051 C 
BRANCH  18  19
ATOM     19  C   UNL     1       0.715  -1.238   0.000  0.00  0.00    +0.101 A 
ATOM     20  N   UNL     1       1.382  -1.722   0.000  0.00  0.00    -0.081 NA
ATOM     21  O   UNL     1       1.127  -2.507   0.000  0.00  0.00    -0.354 OA
ATOM     22  C   UNL     1       0.302  -2.507   0.000  0.00  0.00    +0.177 A 
ATOM     23  C   UNL     1       0.047  -1.722   0.000  0.00  0.00    +0.058 A 
BRANCH  22  24
ATOM     24  C   UNL     1      -0.183  -3.175   0.000  0.00  0.00    +0.037 A 
ATOM     25  C   UNL     1       0.153  -3.928   0.000  0.00  0.00    +0.005 A 
ATOM     26  C   UNL     1      -0.332  -4.596   0.000  0.00  0.00    +0.030 A 
ATOM     27  C   UNL     1      -1.153  -4.509   0.000  0.00  0.00    +0.140 A 
ATOM     28  F   UNL     1      -1.638  -5.177   0.000  0.00  0.00    -0.204 F 
ATOM     29  C   UNL     1      -1.488  -3.756   0.000  0.00  0.00    +0.030 A 
ATOM     30  C   UNL     1      -1.003  -3.088   0.000  0.00  0.00    +0.005 A 
ENDBRANCH  22  24
ENDBRANCH  18  19
ENDBRANCH  17  18
TORSDOF 8
