MODEL 1
REMARK VINA RESULT:     -10.7      0.000      0.000
REMARK  Name = 
REMARK  8 active torsions:
REMARK  status: ('A' for Active; 'I' for Inactive)
REMARK    1  A    between atoms: C_2  and  C_3
REMARK    2  A    between atoms: N_5  and  S_16
REMARK    3  A    between atoms: C_8  and  C_9
REMARK    4  A    between atoms: C_9  and  C_10
REMARK    5  A    between atoms: N_12  and  C_13
REMARK    6  A    between atoms: C_13  and  C_14
REMARK    7  A    between atoms: S_16  and  C_19
REMARK    8  A    between atoms: C_22  and  O_23
REMARK                            x       y       z     vdW  Elec       q    Type
REMARK                         _______ _______ _______ _____ _____    ______ ____
ROOT
ATOM      3  C   UNL     1      -4.466   2.275  24.991  0.00  0.00    +0.018 C 
ATOM      4  C   UNL     1      -4.485   1.457  24.886  0.00  0.00    +0.096 C 
ATOM      5  N   UNL     1      -3.780   1.032  24.830  0.00  0.00    -0.156 NA
ATOM      6  C   UNL     1      -3.057   1.426  24.878  0.00  0.00    +0.096 C 
ATOM      7  C   UNL     1      -3.038   2.244  24.983  0.00  0.00    +0.020 C 
ATOM      8  C   UNL     1      -3.743   2.669  25.040  0.00  0.00    +0.012 C 
ENDROOT
BRANCH   5  16
ATOM     16  S   UNL     1      -3.799   0.215  24.725  0.00  0.00    +0.063 S 
ATOM     17  O   UNL     1      -4.045   0.120  25.506  0.00  0.00    -0.153 OA
ATOM     18  O   UNL     1      -3.552   0.309  23.943  0.00  0.00    -0.153 OA
BRANCH  16  19
ATOM     19  C   UNL     1      -3.818  -0.604  24.620  0.00  0.00    +0.122 A 
ATOM     20  C   UNL     1      -4.173  -0.925  23.948  0.00  0.00    +0.023 A 
ATOM     21  C   UNL     1      -4.191  -1.744  23.843  0.00  0.00    +0.038 A 
ATOM     22  C   UNL     1      -3.855  -2.240  24.410  0.00  0.00    +0.139 A 
ATOM     25  C   UNL     1      -3.501  -1.918  25.082  0.00  0.00    +0.038 A 
ATOM     26  C   UNL     1      -3.482  -1.100  25.187  0.00  0.00    +0.023 A 
BRANCH  22  23
ATOM     23  O   UNL     1      -3.874  -3.057  24.305  0.00  0.00    -0.471 OA
ATOM     24  C   UNL     1      -3.186  -3.502  24.398  0.00  0.00    +0.252 C 
ENDBRANCH  22  23
ENDBRANCH  16  19
ENDBRANCH   5  16
BRANCH   3   2
ATOM      1  C   UNL     1      -5.890   2.299  25.114  0.00  0.00    +0.000 C 
ATOM      2  C   UNL     1      -5.171   2.699  25.048  0.00  0.00    +0.001 C 
ENDBRANCH   3   2
BRANCH   8   9
ATOM      9  C   UNL     1      -3.723   3.487  25.145  0.00  0.00    +0.087 C 
BRANCH   9  10
ATOM     10  C   UNL     1      -3.072   3.842  25.505  0.00  0.00    +0.242 C 
ATOM     11  O   UNL     1      -2.947   3.747  26.315  0.00  0.00    -0.273 OA
ATOM     12  N   UNL     1      -2.547   4.292  25.057  0.00  0.00    -0.201 NA
BRANCH  12  13
ATOM     13  C   UNL     1      -1.895   4.647  25.417  0.00  0.00    +0.141 C 
BRANCH  13  14
ATOM     14  C   UNL     1      -1.475   5.236  25.021  0.00  0.00    -0.003 C 
ATOM     15  C   UNL     1      -0.683   5.115  24.822  0.00  0.00    -0.003 C 
ENDBRANCH  13  14
ENDBRANCH  12  13
ENDBRANCH   9  10
ENDBRANCH   8   9
TORSDOF 8
ENDMDL
MODEL 2
REMARK VINA RESULT:      -9.6      1.290      5.269
REMARK  Name = 
REMARK  8 active torsions:
REMARK  status: ('A' for Active; 'I' for Inactive)
REMARK    1  A    between atoms: C_2  and  C_3
REMARK    2  A    between atoms: N_5  and  S_16
REMARK    3  A    between atoms: C_8  and  C_9
REMARK    4  A    between atoms: C_9  and  C_10
REMARK    5  A    between atoms: N_12  and  C_13
REMARK    6  A    between atoms: C_13  and  C_14
REMARK    7  A    between atoms: S_16  and  C_19
REMARK    8  A    between atoms: C_22  and  O_23
REMARK                            x       y       z     vdW  Elec       q    Type
REMARK                         _______ _______ _______ _____ _____    ______ ____
ROOT
ATOM      3  C   UNL     1      -4.444   1.240  24.874  0.00  0.00    +0.018 C 
ATOM      4  C   UNL     1      -3.997   1.927  24.959  0.00  0.00    +0.096 C 
ATOM      5  N   UNL     1      -3.186   1.912  24.813  0.00  0.00    -0.156 NA
ATOM      6  C   UNL     1      -2.821   1.209  24.583  0.00  0.00    +0.096 C 
ATOM      7  C   UNL     1      -3.268   0.520  24.499  0.00  0.00    +0.020 C 
ATOM      8  C   UNL     1      -4.080   0.536  24.644  0.00  0.00    +0.012 C 
ENDROOT
BRANCH   5  16
ATOM     16  S   UNL     1      -2.739   2.599  24.897  0.00  0.00    +0.063 S 
ATOM     17  O   UNL     1      -2.480   2.341  25.637  0.00  0.00    -0.153 OA
ATOM     18  O   UNL     1      -2.996   2.859  24.158  0.00  0.00    -0.153 OA
BRANCH  16  19
ATOM     19  C   UNL     1      -2.291   3.288  24.982  0.00  0.00    +0.122 A 
ATOM     20  C   UNL     1      -1.484   3.278  24.810  0.00  0.00    +0.023 A 
ATOM     21  C   UNL     1      -1.037   3.967  24.895  0.00  0.00    +0.038 A 
ATOM     22  C   UNL     1      -1.396   4.664  25.152  0.00  0.00    +0.139 A 
ATOM     25  C   UNL     1      -2.203   4.672  25.323  0.00  0.00    +0.038 A 
ATOM     26  C   UNL     1      -2.650   3.985  25.239  0.00  0.00    +0.023 A 
BRANCH  22  23
ATOM     23  O   UNL     1      -0.949   5.351  25.236  0.00  0.00    -0.471 OA
ATOM     24  C   UNL     1      -0.643   5.730  24.570  0.00  0.00    +0.252 C 
ENDBRANCH  22  23
ENDBRANCH  16  19
ENDBRANCH   5  16
BRANCH   3   2
ATOM      1  C   UNL     1      -5.617   1.953  25.273  0.00  0.00    +0.000 C 
ATOM      2  C   UNL     1      -5.256   1.255  25.020  0.00  0.00    +0.001 C 
ENDBRANCH   3   2
BRANCH   8   9
ATOM      9  C   UNL     1      -4.527  -0.153  24.560  0.00  0.00    +0.087 C 
BRANCH   9  10
ATOM     10  C   UNL     1      -4.207  -0.808  24.176  0.00  0.00    +0.242 C 
ATOM     11  O   UNL     1      -4.035  -0.771  23.370  0.00  0.00    -0.273 OA
ATOM     12  N   UNL     1      -4.059  -1.501  24.597  0.00  0.00    -0.201 NA
BRANCH  12  13
ATOM     13  C   UNL     1      -3.739  -2.158  24.214  0.00  0.00    +0.141 C 
BRANCH  13  14
ATOM     14  C   UNL     1      -3.652  -2.871  24.618  0.00  0.00    -0.003 C 
ATOM     15  C   UNL     1      -2.944  -3.291  24.569  0.00  0.00    -0.003 C 
ENDBRANCH  13  14
ENDBRANCH  12  13
ENDBRANCH   9  10
ENDBRANCH   8   9
TORSDOF 8
ENDMDL
MODEL 3
REMARK VINA RESULT:      -8.9      2.129      2.855
REMARK  Name = 
REMARK  8 active torsions:
REMARK  status: ('A' for Active; 'I' for Inactive)
REMARK    1  A    between atoms: C_2  and  C_3
REMARK    2  A    between atoms: N_5  and  S_16
REMARK    3  A    between atoms: C_8  and  C_9
REMARK    4  A    between atoms: C_9  and  C_10
REMARK    5  A    between atoms: N_12  and  C_13
REMARK    6  A    between atoms: C_13  and  C_14
REMARK    7  A    between atoms: S_16  and  C_19
REMARK    8  A    between atoms: C_22  and  O_23
REMARK                            x       y       z     vdW  Elec       q    Type
REMARK                         _______ _______ _______ _____ _____    ______ ____
ROOT
ATOM      3  C   UNL     1      -0.327   0.923  24.361  0.00  0.00    +0.018 C 
ATOM      4  C   UNL     1      -0.817   0.263  24.293  0.00  0.00    +0.096 C 
ATOM      5  N   UNL     1      -1.444   0.160  24.819  0.00  0.00    -0.156 NA
ATOM      6  C   UNL     1      -1.582   0.716  25.411  0.00  0.00    +0.096 C 
ATOM      7  C   UNL     1      -1.092   1.377  25.479  0.00  0.00    +0.020 C 
ATOM      8  C   UNL     1      -0.465   1.481  24.954  0.00  0.00    +0.012 C 
ENDROOT
BRANCH   5  16
ATOM     16  S   UNL     1      -1.933  -0.500  24.751  0.00  0.00    +0.063 S 
ATOM     17  O   UNL     1      -1.470  -0.901  25.304  0.00  0.00    -0.153 OA
ATOM     18  O   UNL     1      -2.397  -0.101  24.198  0.00  0.00    -0.153 OA
BRANCH  16  19
ATOM     19  C   UNL     1      -2.423  -1.162  24.684  0.00  0.00    +0.122 A 
ATOM     20  C   UNL     1      -2.093  -1.917  24.646  0.00  0.00    +0.023 A 
ATOM     21  C   UNL     1      -2.583  -2.578  24.579  0.00  0.00    +0.038 A 
ATOM     22  C   UNL     1      -3.402  -2.484  24.549  0.00  0.00    +0.139 A 
ATOM     25  C   UNL     1      -3.731  -1.728  24.586  0.00  0.00    +0.038 A 
ATOM     26  C   UNL     1      -3.242  -1.067  24.654  0.00  0.00    +0.023 A 
BRANCH  22  23
ATOM     23  O   UNL     1      -3.890  -3.144  24.481  0.00  0.00    -0.471 OA
ATOM     24  C   UNL     1      -4.329  -3.265  23.793  0.00  0.00    +0.252 C 
ENDBRANCH  22  23
ENDBRANCH  16  19
ENDBRANCH   5  16
BRANCH   3   2
ATOM      1  C   UNL     1       0.561   0.394  23.374  0.00  0.00    +0.000 C 
ATOM      2  C   UNL     1       0.300   1.027  23.835  0.00  0.00    +0.001 C 
ENDBRANCH   3   2
BRANCH   8   9
ATOM      9  C   UNL     1       0.025   2.142  25.022  0.00  0.00    +0.087 C 
BRANCH   9  10
ATOM     10  C   UNL     1      -0.244   2.816  25.413  0.00  0.00    +0.242 C 
ATOM     11  O   UNL     1      -0.242   2.842  26.238  0.00  0.00    -0.273 OA
ATOM     12  N   UNL     1      -0.514   3.463  24.981  0.00  0.00    -0.201 NA
BRANCH  12  13
ATOM     13  C   UNL     1      -0.783   4.138  25.372  0.00  0.00    +0.141 C 
BRANCH  13  14
ATOM     14  C   UNL     1      -0.913   4.835  24.951  0.00  0.00    -0.003 C 
ATOM     15  C   UNL     1      -1.565   5.309  25.128  0.00  0.00    -0.003 C 
ENDBRANCH  13  14
ENDBRANCH  12  13
ENDBRANCH   9  10
ENDBRANCH   8   9
TORSDOF 8
ENDMDL
MODEL 4
REMARK VINA RESULT:      -8.8      2.269      5.860
REMARK  Name = 
REMARK  8 active torsions:
REMARK  status: ('A' for Active; 'I' for Inactive)
REMARK    1  A    between atoms: C_2  and  C_3
REMARK    2  A    between atoms: N_5  and  S_16
REMARK    3  A    between atoms: C_8  and  C_9
REMARK    4  A    between atoms: C_9  and  C_10
REMARK    5  A    between atoms: N_12  and  C_13
REMARK    6  A    between atoms: C_13  and  C_14
REMARK    7  A    between atoms: S_16  and  C_19
REMARK    8  A    between atoms: C_22  and  O_23
REMARK                            x       y       z     vdW  Elec       q    Type
REMARK                         _______ _______ _______ _____ _____    ______ ____
ROOT
ATOM      3  C   UNL     1      -0.691  -0.107  24.419  0.00  0.00    +0.018 C 
ATOM      4  C   UNL     1      -0.648   0.715  24.463  0.00  0.00    +0.096 C 
ATOM      5  N   UNL     1      -1.212   1.135  24.896  0.00  0.00    -0.156 NA
ATOM      6  C   UNL     1      -1.818   0.732  25.283  0.00  0.00    +0.096 C 
ATOM      7  C   UNL     1      -1.861  -0.091  25.239  0.00  0.00    +0.020 C 
ATOM      8  C   UNL     1      -1.298  -0.511  24.806  0.00  0.00    +0.012 C 
ENDROOT
BRANCH   5  16
ATOM     16  S   UNL     1      -1.168   1.957  24.941  0.00  0.00    +0.063 S 
ATOM     17  O   UNL     1      -1.654   2.019  24.276  0.00  0.00    -0.153 OA
ATOM     18  O   UNL     1      -0.683   1.896  25.605  0.00  0.00    -0.153 OA
BRANCH  16  19
ATOM     19  C   UNL     1      -1.125   2.780  24.985  0.00  0.00    +0.122 A 
ATOM     20  C   UNL     1      -1.664   3.196  25.450  0.00  0.00    +0.023 A 
ATOM     21  C   UNL     1      -1.621   4.019  25.495  0.00  0.00    +0.038 A 
ATOM     22  C   UNL     1      -1.039   4.425  25.074  0.00  0.00    +0.139 A 
ATOM     25  C   UNL     1      -0.501   4.008  24.609  0.00  0.00    +0.038 A 
ATOM     26  C   UNL     1      -0.543   3.186  24.564  0.00  0.00    +0.023 A 
BRANCH  22  23
ATOM     23  O   UNL     1      -0.997   5.247  25.119  0.00  0.00    -0.471 OA
ATOM     24  C   UNL     1      -1.685   5.700  25.074  0.00  0.00    +0.252 C 
ENDBRANCH  22  23
ENDBRANCH  16  19
ENDBRANCH   5  16
BRANCH   3   2
ATOM      1  C   UNL     1       0.403  -0.124  23.499  0.00  0.00    +0.000 C 
ATOM      2  C   UNL     1      -0.128  -0.527  23.986  0.00  0.00    +0.001 C 
ENDBRANCH   3   2
BRANCH   8   9
ATOM      9  C   UNL     1      -1.342  -1.334  24.762  0.00  0.00    +0.087 C 
BRANCH   9  10
ATOM     10  C   UNL     1      -2.029  -1.724  24.997  0.00  0.00    +0.242 C 
ATOM     11  O   UNL     1      -2.216  -1.783  25.798  0.00  0.00    -0.273 OA
ATOM     12  N   UNL     1      -2.529  -2.055  24.431  0.00  0.00    -0.201 NA
BRANCH  12  13
ATOM     13  C   UNL     1      -3.217  -2.446  24.666  0.00  0.00    +0.141 C 
BRANCH  13  14
ATOM     14  C   UNL     1      -3.686  -2.828  24.106  0.00  0.00    -0.003 C 
ATOM     15  C   UNL     1      -4.379  -2.472  23.835  0.00  0.00    -0.003 C 
ENDBRANCH  13  14
ENDBRANCH  12  13
ENDBRANCH   9  10
ENDBRANCH   8   9
TORSDOF 8
ENDMDL
MODEL 5
REMARK VINA RESULT:      -8.3      3.112      4.604
REMARK  Name = 
REMARK  8 active torsions:
REMARK  status: ('A' for Active; 'I' for Inactive)
REMARK    1  A    between atoms: C_2  and  C_3
REMARK    2  A    between atoms: N_5  and  S_16
REMARK    3  A    between atoms: C_8  and  C_9
REMARK    4  A    between atoms: C_9  and  C_10
REMARK    5  A    between atoms: N_12  and  C_13
REMARK    6  A    between atoms: C_13  and  C_14
REMARK    7  A    between atoms: S_16  and  C_19
REMARK    8  A    between atoms: C_22  and  O_23
REMARK                            x       y       z     vdW  Elec       q    Type
REMARK                         _______ _______ _______ _____ _____    ______ ____
ROOT
ATOM      3  C   UNL     1      -1.193  -0.308  24.472  0.00  0.00    +0.018 C 
ATOM      4  C   UNL     1      -1.929   0.029  24.626  0.00  0.00    +0.096 C 
ATOM      5  N   UNL     1      -2.135   0.747  24.275  0.00  0.00    -0.156 NA
ATOM      6  C   UNL     1      -1.605   1.126  23.770  0.00  0.00    +0.096 C 
ATOM      7  C   UNL     1      -0.868   0.788  23.615  0.00  0.00    +0.020 C 
ATOM      8  C   UNL     1      -0.662   0.070  23.966  0.00  0.00    +0.012 C 
ENDROOT
BRANCH   5  16
ATOM     16  S   UNL     1      -2.871   1.085  24.430  0.00  0.00    +0.063 S 
ATOM     17  O   UNL     1      -3.165   0.767  23.728  0.00  0.00    -0.153 OA
ATOM     18  O   UNL     1      -2.578   1.403  25.133  0.00  0.00    -0.153 OA
BRANCH  16  19
ATOM     19  C   UNL     1      -3.608   1.423  24.585  0.00  0.00    +0.122 A 
ATOM     20  C   UNL     1      -3.714   2.237  24.498  0.00  0.00    +0.023 A 
ATOM     21  C   UNL     1      -4.451   2.575  24.652  0.00  0.00    +0.038 A 
ATOM     22  C   UNL     1      -5.081   2.100  24.893  0.00  0.00    +0.139 A 
ATOM     25  C   UNL     1      -4.974   1.286  24.980  0.00  0.00    +0.038 A 
ATOM     26  C   UNL     1      -4.238   0.948  24.826  0.00  0.00    +0.023 A 
BRANCH  22  23
ATOM     23  O   UNL     1      -5.817   2.438  25.048  0.00  0.00    -0.471 OA
ATOM     24  C   UNL     1      -5.905   2.967  25.674  0.00  0.00    +0.252 C 
ENDBRANCH  22  23
ENDBRANCH  16  19
ENDBRANCH   5  16
BRANCH   3   2
ATOM      1  C   UNL     1      -1.556  -1.616  24.922  0.00  0.00    +0.000 C 
ATOM      2  C   UNL     1      -0.987  -1.026  24.823  0.00  0.00    +0.001 C 
ENDBRANCH   3   2
BRANCH   8   9
ATOM      9  C   UNL     1       0.075  -0.267  23.811  0.00  0.00    +0.087 C 
BRANCH   9  10
ATOM     10  C   UNL     1       0.703   0.207  23.566  0.00  0.00    +0.242 C 
ATOM     11  O   UNL     1       0.763   0.984  23.836  0.00  0.00    -0.273 OA
ATOM     12  N   UNL     1       1.272  -0.096  23.052  0.00  0.00    -0.201 NA
BRANCH  12  13
ATOM     13  C   UNL     1       1.901   0.379  22.806  0.00  0.00    +0.141 C 
BRANCH  13  14
ATOM     14  C   UNL     1       2.533   0.046  22.395  0.00  0.00    -0.003 C 
ATOM     15  C   UNL     1       3.263   0.430  22.377  0.00  0.00    -0.003 C 
ENDBRANCH  13  14
ENDBRANCH  12  13
ENDBRANCH   9  10
ENDBRANCH   8   9
TORSDOF 8
ENDMDL
MODEL 6
REMARK VINA RESULT:      -8.0      2.814      4.086
REMARK  Name = 
REMARK  8 active torsions:
REMARK  status: ('A' for Active; 'I' for Inactive)
REMARK    1  A    between atoms: C_2  and  C_3
REMARK    2  A    between atoms: N_5  and  S_16
REMARK    3  A    between atoms: C_8  and  C_9
REMARK    4  A    between atoms: C_9  and  C_10
REMARK    5  A    between atoms: N_12  and  C_13
REMARK    6  A    between atoms: C_13  and  C_14
REMARK    7  A    between atoms: S_16  and  C_19
REMARK    8  A    between atoms: C_22  and  O_23
REMARK                            x       y       z     vdW  Elec       q    Type
REMARK                         _______ _______ _______ _____ _____    ______ ____
ROOT
ATOM      3  C   UNL     1      -1.818   3.437  25.150  0.00  0.00    +0.018 C 
ATOM      4  C   UNL     1      -1.224   2.947  24.856  0.00  0.00    +0.096 C 
ATOM      5  N   UNL     1      -1.417   2.207  24.546  0.00  0.00    -0.156 NA
ATOM      6  C   UNL     1      -2.203   1.959  24.529  0.00  0.00    +0.096 C 
ATOM      7  C   UNL     1      -2.798   2.450  24.823  0.00  0.00    +0.020 C 
ATOM      8  C   UNL     1      -2.605   3.189  25.134  0.00  0.00    +0.012 C 
ENDROOT
BRANCH   5  16
ATOM     16  S   UNL     1      -0.823   1.716  24.252  0.00  0.00    +0.063 S 
ATOM     17  O   UNL     1      -1.014   1.945  23.482  0.00  0.00    -0.153 OA
ATOM     18  O   UNL     1      -0.631   1.487  25.021  0.00  0.00    -0.153 OA
BRANCH  16  19
ATOM     19  C   UNL     1      -0.229   1.225  23.957  0.00  0.00    +0.122 A 
ATOM     20  C   UNL     1      -0.398   0.439  23.772  0.00  0.00    +0.023 A 
ATOM     21  C   UNL     1       0.197  -0.052  23.478  0.00  0.00    +0.038 A 
ATOM     22  C   UNL     1       0.959   0.243  23.368  0.00  0.00    +0.139 A 
ATOM     25  C   UNL     1       1.127   1.029  23.554  0.00  0.00    +0.038 A 
ATOM     26  C   UNL     1       0.534   1.520  23.848  0.00  0.00    +0.023 A 
BRANCH  22  23
ATOM     23  O   UNL     1       1.553  -0.248  23.074  0.00  0.00    -0.471 OA
ATOM     24  C   UNL     1       2.192   0.076  22.665  0.00  0.00    +0.252 C 
ENDBRANCH  22  23
ENDBRANCH  16  19
ENDBRANCH   5  16
BRANCH   3   2
ATOM      1  C   UNL     1      -0.993   4.605  25.147  0.00  0.00    +0.000 C 
ATOM      2  C   UNL     1      -1.626   4.177  25.461  0.00  0.00    +0.001 C 
ENDBRANCH   3   2
BRANCH   8   9
ATOM      9  C   UNL     1      -3.200   3.680  25.428  0.00  0.00    +0.087 C 
BRANCH   9  10
ATOM     10  C   UNL     1      -3.984   3.555  25.209  0.00  0.00    +0.242 C 
ATOM     11  O   UNL     1      -4.244   3.781  24.459  0.00  0.00    -0.273 OA
ATOM     12  N   UNL     1      -4.510   3.204  25.738  0.00  0.00    -0.201 NA
BRANCH  12  13
ATOM     13  C   UNL     1      -5.296   3.079  25.519  0.00  0.00    +0.141 C 
BRANCH  13  14
ATOM     14  C   UNL     1      -5.828   2.754  26.058  0.00  0.00    -0.003 C 
ATOM     15  C   UNL     1      -6.231   2.058  25.872  0.00  0.00    -0.003 C 
ENDBRANCH  13  14
ENDBRANCH  12  13
ENDBRANCH   9  10
ENDBRANCH   8   9
TORSDOF 8
ENDMDL
MODEL 7
REMARK VINA RESULT:      -7.8      2.684      4.027
REMARK  Name = 
REMARK  8 active torsions:
REMARK  status: ('A' for Active; 'I' for Inactive)
REMARK    1  A    between atoms: C_2  and  C_3
REMARK    2  A    between atoms: N_5  and  S_16
REMARK    3  A    between atoms: C_8  and  C_9
REMARK    4  A    between atoms: C_9  and  C_10
REMARK    5  A    between atoms: N_12  and  C_13
REMARK    6  A    between atoms: C_13  and  C_14
REMARK    7  A    between atoms: S_16  and  C_19
REMARK    8  A    between atoms: C_22  and  O_23
REMARK                            x       y       z     vdW  Elec       q    Type
REMARK                         _______ _______ _______ _____ _____    ______ ____
ROOT
ATOM      3  C   UNL     1      -3.181  -0.198  25.146  0.00  0.00    +0.018 C 
ATOM      4  C   UNL     1      -2.399  -0.226  24.887  0.00  0.00    +0.096 C 
ATOM      5  N   UNL     1      -2.083   0.407  24.462  0.00  0.00    -0.156 NA
ATOM      6  C   UNL     1      -2.549   1.066  24.296  0.00  0.00    +0.096 C 
ATOM      7  C   UNL     1      -3.332   1.094  24.555  0.00  0.00    +0.020 C 
ATOM      8  C   UNL     1      -3.648   0.462  24.980  0.00  0.00    +0.012 C 
ENDROOT
BRANCH   5  16
ATOM     16  S   UNL     1      -1.300   0.379  24.204  0.00  0.00    +0.063 S 
ATOM     17  O   UNL     1      -1.040   0.397  24.987  0.00  0.00    -0.153 OA
ATOM     18  O   UNL     1      -1.559   0.361  23.421  0.00  0.00    -0.153 OA
BRANCH  16  19
ATOM     19  C   UNL     1      -0.517   0.352  23.945  0.00  0.00    +0.122 A 
ATOM     20  C   UNL     1      -0.195  -0.361  23.682  0.00  0.00    +0.023 A 
ATOM     21  C   UNL     1       0.589  -0.388  23.424  0.00  0.00    +0.038 A 
ATOM     22  C   UNL     1       1.049   0.296  23.428  0.00  0.00    +0.139 A 
ATOM     25  C   UNL     1       0.726   1.008  23.691  0.00  0.00    +0.038 A 
ATOM     26  C   UNL     1      -0.056   1.036  23.950  0.00  0.00    +0.023 A 
BRANCH  22  23
ATOM     23  O   UNL     1       1.832   0.268  23.170  0.00  0.00    -0.471 OA
ATOM     24  C   UNL     1       2.009  -0.021  22.418  0.00  0.00    +0.252 C 
ENDBRANCH  22  23
ENDBRANCH  16  19
ENDBRANCH   5  16
BRANCH   3   2
ATOM      1  C   UNL     1      -3.290  -1.605  25.375  0.00  0.00    +0.000 C 
ATOM      2  C   UNL     1      -3.497  -0.830  25.571  0.00  0.00    +0.001 C 
ENDBRANCH   3   2
BRANCH   8   9
ATOM      9  C   UNL     1      -4.432   0.490  25.239  0.00  0.00    +0.087 C 
BRANCH   9  10
ATOM     10  C   UNL     1      -4.916   1.119  25.020  0.00  0.00    +0.242 C 
ATOM     11  O   UNL     1      -5.244   1.144  24.263  0.00  0.00    -0.273 OA
ATOM     12  N   UNL     1      -5.074   1.724  25.557  0.00  0.00    -0.201 NA
BRANCH  12  13
ATOM     13  C   UNL     1      -5.560   2.355  25.339  0.00  0.00    +0.141 C 
BRANCH  13  14
ATOM     14  C   UNL     1      -5.705   2.967  25.871  0.00  0.00    -0.003 C 
ATOM     15  C   UNL     1      -5.610   3.752  25.635  0.00  0.00    -0.003 C 
ENDBRANCH  13  14
ENDBRANCH  12  13
ENDBRANCH   9  10
ENDBRANCH   8   9
TORSDOF 8
ENDMDL
