MODEL 1
REMARK VINA RESULT:     -10.7      0.000      0.000
REMARK  Name = 
REMARK  6 active torsions:
REMARK  status: ('A' for Active; 'I' for Inactive)
REMARK    1  A    between atoms: N_2  and  C_3
REMARK    2  A    between atoms: C_6  and  C_9
REMARK    3  A    between atoms: C_12  and  C_14
REMARK    4  A    between atoms: N_18  and  C_19
REMARK    5  A    between atoms: C_19  and  C_20
REMARK    6  A    between atoms: C_23  and  N_24
REMARK                            x       y       z     vdW  Elec       q    Type
REMARK                         _______ _______ _______ _____ _____    ______ ____
ROOT
ATOM     14  C   UNL     1      -4.994   2.277  25.264  0.00  0.00    +0.138 C 
ATOM     15  C   UNL     1      -5.806   2.409  25.196  0.00  0.00    +0.027 C 
ATOM     16  C   UNL     1      -6.153   1.721  24.901  0.00  0.00    +0.019 C 
ATOM     17  C   UNL     1      -5.555   1.163  24.787  0.00  0.00    +0.073 C 
ATOM     18  N   UNL     1      -4.839   1.507  25.012  0.00  0.00    -0.263 NA
ENDROOT
BRANCH  14  12
ATOM      9  C   UNL     1      -3.352   3.594  25.617  0.00  0.00    +0.205 A 
ATOM     10  N   UNL     1      -3.801   3.714  26.298  0.00  0.00    -0.056 NA
ATOM     11  O   UNL     1      -4.472   3.235  26.249  0.00  0.00    -0.336 OA
ATOM     12  C   UNL     1      -4.436   2.819  25.538  0.00  0.00    +0.251 A 
ATOM     13  N   UNL     1      -3.744   3.041  25.147  0.00  0.00    -0.190 NA
BRANCH   9   6
ATOM      3  C   UNL     1      -1.203   4.698  25.078  0.00  0.00    +0.148 A 
ATOM      4  C   UNL     1      -1.210   3.922  25.358  0.00  0.00    +0.036 A 
ATOM      5  C   UNL     1      -1.926   3.554  25.537  0.00  0.00    +0.008 A 
ATOM      6  C   UNL     1      -2.635   3.962  25.437  0.00  0.00    +0.058 A 
ATOM      7  C   UNL     1      -2.630   4.738  25.157  0.00  0.00    +0.103 A 
ATOM      8  N   UNL     1      -1.914   5.106  24.978  0.00  0.00    -0.228 NA
BRANCH   3   2
ATOM      1  C   UNL     1      -0.120   4.923  24.174  0.00  0.00    +0.137 C 
ATOM      2  N   UNL     1      -0.487   5.067  24.899  0.00  0.00    -0.218 NA
ENDBRANCH   3   2
ENDBRANCH   9   6
ENDBRANCH  14  12
BRANCH  18  19
ATOM     19  C   UNL     1      -4.099   1.144  24.988  0.00  0.00    +0.099 C 
BRANCH  19  20
ATOM     20  C   UNL     1      -4.042   0.331  24.860  0.00  0.00    -0.006 A 
ATOM     21  C   UNL     1      -4.003  -0.186  25.501  0.00  0.00    -0.002 A 
ATOM     22  C   UNL     1      -3.946  -1.000  25.373  0.00  0.00    +0.016 A 
ATOM     23  C   UNL     1      -3.927  -1.295  24.602  0.00  0.00    +0.073 A 
ATOM     28  C   UNL     1      -3.966  -0.777  23.961  0.00  0.00    +0.016 A 
ATOM     29  C   UNL     1      -4.023   0.035  24.090  0.00  0.00    -0.002 A 
BRANCH  23  24
ATOM     24  N   UNL     1      -3.870  -2.108  24.474  0.00  0.00    -0.179 NA
ATOM     25  C   UNL     1      -3.130  -2.474  24.477  0.00  0.00    +0.246 C 
ATOM     26  C   UNL     1      -3.073  -3.288  24.348  0.00  0.00    +0.097 C 
ATOM     27  O   UNL     1      -2.450  -2.029  24.608  0.00  0.00    -0.273 OA
ENDBRANCH  23  24
ENDBRANCH  19  20
ENDBRANCH  18  19
TORSDOF 6
ENDMDL
MODEL 2
REMARK VINA RESULT:     -10.3      1.304      5.254
REMARK  Name = 
REMARK  6 active torsions:
REMARK  status: ('A' for Active; 'I' for Inactive)
REMARK    1  A    between atoms: N_2  and  C_3
REMARK    2  A    between atoms: C_6  and  C_9
REMARK    3  A    between atoms: C_12  and  C_14
REMARK    4  A    between atoms: N_18  and  C_19
REMARK    5  A    between atoms: C_19  and  C_20
REMARK    6  A    between atoms: C_23  and  N_24
REMARK                            x       y       z     vdW  Elec       q    Type
REMARK                         _______ _______ _______ _____ _____    ______ ____
ROOT
ATOM     14  C   UNL     1      -5.094   1.835  25.347  0.00  0.00    +0.138 C 
ATOM     15  C   UNL     1      -5.697   2.036  25.873  0.00  0.00    +0.027 C 
ATOM     16  C   UNL     1      -5.595   2.825  26.090  0.00  0.00    +0.019 C 
ATOM     17  C   UNL     1      -4.928   3.113  25.698  0.00  0.00    +0.073 C 
ATOM     18  N   UNL     1      -4.618   2.501  25.239  0.00  0.00    -0.263 NA
ENDROOT
BRANCH  14  12
ATOM      9  C   UNL     1      -4.506  -0.113  24.703  0.00  0.00    +0.205 A 
ATOM     10  N   UNL     1      -5.130   0.044  24.186  0.00  0.00    -0.056 NA
ATOM     11  O   UNL     1      -5.426   0.793  24.364  0.00  0.00    -0.336 OA
ATOM     12  C   UNL     1      -4.986   1.099  24.991  0.00  0.00    +0.251 A 
ATOM     13  N   UNL     1      -4.417   0.539  25.201  0.00  0.00    -0.190 NA
BRANCH   9   6
ATOM      3  C   UNL     1      -3.143  -2.179  24.752  0.00  0.00    +0.148 A 
ATOM      4  C   UNL     1      -3.704  -2.068  24.157  0.00  0.00    +0.036 A 
ATOM      5  C   UNL     1      -4.158  -1.379  24.141  0.00  0.00    +0.008 A 
ATOM      6  C   UNL     1      -4.052  -0.802  24.720  0.00  0.00    +0.058 A 
ATOM      7  C   UNL     1      -3.492  -0.912  25.316  0.00  0.00    +0.103 A 
ATOM      8  N   UNL     1      -3.037  -1.600  25.332  0.00  0.00    -0.228 NA
BRANCH   3   2
ATOM      1  C   UNL     1      -1.899  -2.845  24.531  0.00  0.00    +0.137 C 
ATOM      2  N   UNL     1      -2.689  -2.867  24.769  0.00  0.00    -0.218 NA
ENDBRANCH   3   2
ENDBRANCH   9   6
ENDBRANCH  14  12
BRANCH  18  19
ATOM     19  C   UNL     1      -3.951   2.547  24.756  0.00  0.00    +0.099 C 
BRANCH  19  20
ATOM     20  C   UNL     1      -3.399   3.149  24.872  0.00  0.00    -0.006 A 
ATOM     21  C   UNL     1      -3.434   3.834  24.415  0.00  0.00    -0.002 A 
ATOM     22  C   UNL     1      -2.881   4.436  24.530  0.00  0.00    +0.016 A 
ATOM     23  C   UNL     1      -2.294   4.352  25.103  0.00  0.00    +0.073 A 
ATOM     28  C   UNL     1      -2.259   3.666  25.561  0.00  0.00    +0.016 A 
ATOM     29  C   UNL     1      -2.811   3.065  25.445  0.00  0.00    -0.002 A 
BRANCH  23  24
ATOM     24  N   UNL     1      -1.742   4.954  25.219  0.00  0.00    -0.179 NA
ATOM     25  C   UNL     1      -0.992   4.897  24.878  0.00  0.00    +0.246 C 
ATOM     26  C   UNL     1      -0.440   5.499  24.994  0.00  0.00    +0.097 C 
ATOM     27  O   UNL     1      -0.795   4.239  24.422  0.00  0.00    -0.273 OA
ENDBRANCH  23  24
ENDBRANCH  19  20
ENDBRANCH  18  19
TORSDOF 6
ENDMDL
MODEL 3
REMARK VINA RESULT:      -9.9      2.313      6.285
REMARK  Name = 
REMARK  6 active torsions:
REMARK  status: ('A' for Active; 'I' for Inactive)
REMARK    1  A    between atoms: N_2  and  C_3
REMARK    2  A    between atoms: C_6  and  C_9
REMARK    3  A    between atoms: C_12  and  C_14
REMARK    4  A    between atoms: N_18  and  C_19
REMARK    5  A    between atoms: C_19  and  C_20
REMARK    6  A    between atoms: C_23  and  N_24
REMARK                            x       y       z     vdW  Elec       q    Type
REMARK                         _______ _______ _______ _____ _____    ______ ____
ROOT
ATOM     14  C   UNL     1      -0.153   0.465  24.428  0.00  0.00    +0.138 C 
ATOM     15  C   UNL     1       0.427   0.488  23.841  0.00  0.00    +0.027 C 
ATOM     16  C   UNL     1       0.680   1.269  23.764  0.00  0.00    +0.019 C 
ATOM     17  C   UNL     1       0.257   1.729  24.302  0.00  0.00    +0.073 C 
ATOM     18  N   UNL     1      -0.258   1.232  24.713  0.00  0.00    -0.263 NA
ENDROOT
BRANCH  14  12
ATOM      9  C   UNL     1      -1.469  -1.176  24.792  0.00  0.00    +0.205 A 
ATOM     10  N   UNL     1      -0.889  -1.306  25.365  0.00  0.00    -0.056 NA
ATOM     11  O   UNL     1      -0.326  -0.707  25.298  0.00  0.00    -0.336 OA
ATOM     12  C   UNL     1      -0.557  -0.207  24.684  0.00  0.00    +0.251 A 
ATOM     13  N   UNL     1      -1.264  -0.497  24.372  0.00  0.00    -0.190 NA
BRANCH   9   6
ATOM      3  C   UNL     1      -3.472  -2.577  24.404  0.00  0.00    +0.148 A 
ATOM      4  C   UNL     1      -3.556  -1.802  24.674  0.00  0.00    +0.036 A 
ATOM      5  C   UNL     1      -2.888  -1.335  24.803  0.00  0.00    +0.008 A 
ATOM      6  C   UNL     1      -2.137  -1.643  24.662  0.00  0.00    +0.058 A 
ATOM      7  C   UNL     1      -2.051  -2.418  24.393  0.00  0.00    +0.103 A 
ATOM      8  N   UNL     1      -2.718  -2.885  24.263  0.00  0.00    -0.228 NA
BRANCH   3   2
ATOM      1  C   UNL     1      -4.624  -2.899  23.622  0.00  0.00    +0.137 C 
ATOM      2  N   UNL     1      -4.139  -3.045  24.274  0.00  0.00    -0.218 NA
ENDBRANCH   3   2
ENDBRANCH   9   6
ENDBRANCH  14  12
BRANCH  18  19
ATOM     19  C   UNL     1      -0.785   1.462  25.304  0.00  0.00    +0.099 C 
BRANCH  19  20
ATOM     20  C   UNL     1      -1.047   2.243  25.343  0.00  0.00    -0.006 A 
ATOM     21  C   UNL     1      -1.680   2.489  24.875  0.00  0.00    -0.002 A 
ATOM     22  C   UNL     1      -1.943   3.271  24.914  0.00  0.00    +0.016 A 
ATOM     23  C   UNL     1      -1.571   3.806  25.420  0.00  0.00    +0.073 A 
ATOM     28  C   UNL     1      -0.937   3.560  25.887  0.00  0.00    +0.016 A 
ATOM     29  C   UNL     1      -0.675   2.779  25.849  0.00  0.00    -0.002 A 
BRANCH  23  24
ATOM     24  N   UNL     1      -1.833   4.588  25.458  0.00  0.00    -0.179 NA
ATOM     25  C   UNL     1      -1.419   5.181  25.062  0.00  0.00    +0.246 C 
ATOM     26  C   UNL     1      -1.681   5.963  25.101  0.00  0.00    +0.097 C 
ATOM     27  O   UNL     1      -0.743   4.994  24.629  0.00  0.00    -0.273 OA
ENDBRANCH  23  24
ENDBRANCH  19  20
ENDBRANCH  18  19
TORSDOF 6
ENDMDL
MODEL 4
REMARK VINA RESULT:      -9.9      2.710      4.614
REMARK  Name = 
REMARK  6 active torsions:
REMARK  status: ('A' for Active; 'I' for Inactive)
REMARK    1  A    between atoms: N_2  and  C_3
REMARK    2  A    between atoms: C_6  and  C_9
REMARK    3  A    between atoms: C_12  and  C_14
REMARK    4  A    between atoms: N_18  and  C_19
REMARK    5  A    between atoms: C_19  and  C_20
REMARK    6  A    between atoms: C_23  and  N_24
REMARK                            x       y       z     vdW  Elec       q    Type
REMARK                         _______ _______ _______ _____ _____    ______ ____
ROOT
ATOM     14  C   UNL     1      -1.056   3.910  25.180  0.00  0.00    +0.138 C 
ATOM     15  C   UNL     1      -0.865   4.675  24.936  0.00  0.00    +0.027 C 
ATOM     16  C   UNL     1      -1.524   5.155  25.063  0.00  0.00    +0.019 C 
ATOM     17  C   UNL     1      -2.122   4.687  25.385  0.00  0.00    +0.073 C 
ATOM     18  N   UNL     1      -1.833   3.917  25.457  0.00  0.00    -0.263 NA
ENDROOT
BRANCH  14  12
ATOM      9  C   UNL     1       0.090   2.170  24.717  0.00  0.00    +0.205 A 
ATOM     10  N   UNL     1       0.328   2.316  25.494  0.00  0.00    -0.056 NA
ATOM     11  O   UNL     1      -0.073   2.985  25.762  0.00  0.00    -0.336 OA
ATOM     12  C   UNL     1      -0.558   3.253  25.151  0.00  0.00    +0.251 A 
ATOM     13  N   UNL     1      -0.457   2.749  24.505  0.00  0.00    -0.190 NA
BRANCH   9   6
ATOM      3  C   UNL     1       0.881   0.319  23.277  0.00  0.00    +0.148 A 
ATOM      4  C   UNL     1       0.134   0.281  23.625  0.00  0.00    +0.036 A 
ATOM      5  C   UNL     1      -0.129   0.898  24.105  0.00  0.00    +0.008 A 
ATOM      6  C   UNL     1       0.354   1.553  24.237  0.00  0.00    +0.058 A 
ATOM      7  C   UNL     1       1.101   1.592  23.889  0.00  0.00    +0.103 A 
ATOM      8  N   UNL     1       1.365   0.975  23.409  0.00  0.00    -0.228 NA
BRANCH   3   2
ATOM      1  C   UNL     1       1.845  -0.217  22.368  0.00  0.00    +0.137 C 
ATOM      2  N   UNL     1       1.145  -0.299  22.797  0.00  0.00    -0.218 NA
ENDBRANCH   3   2
ENDBRANCH   9   6
ENDBRANCH  14  12
BRANCH  18  19
ATOM     19  C   UNL     1      -2.248   3.270  25.755  0.00  0.00    +0.099 C 
BRANCH  19  20
ATOM     20  C   UNL     1      -3.045   3.168  25.567  0.00  0.00    -0.006 A 
ATOM     21  C   UNL     1      -3.260   2.724  24.906  0.00  0.00    -0.002 A 
ATOM     22  C   UNL     1      -4.057   2.622  24.718  0.00  0.00    +0.016 A 
ATOM     23  C   UNL     1      -4.639   2.965  25.192  0.00  0.00    +0.073 A 
ATOM     28  C   UNL     1      -4.424   3.410  25.853  0.00  0.00    +0.016 A 
ATOM     29  C   UNL     1      -3.627   3.511  26.040  0.00  0.00    -0.002 A 
BRANCH  23  24
ATOM     24  N   UNL     1      -5.436   2.864  25.004  0.00  0.00    -0.179 NA
ATOM     25  C   UNL     1      -5.814   2.153  25.183  0.00  0.00    +0.246 C 
ATOM     26  C   UNL     1      -6.611   2.051  24.995  0.00  0.00    +0.097 C 
ATOM     27  O   UNL     1      -5.396   1.544  25.550  0.00  0.00    -0.273 OA
ENDBRANCH  23  24
ENDBRANCH  19  20
ENDBRANCH  18  19
TORSDOF 6
ENDMDL
MODEL 5
REMARK VINA RESULT:      -9.5      2.302      4.385
REMARK  Name = 
REMARK  6 active torsions:
REMARK  status: ('A' for Active; 'I' for Inactive)
REMARK    1  A    between atoms: N_2  and  C_3
REMARK    2  A    between atoms: C_6  and  C_9
REMARK    3  A    between atoms: C_12  and  C_14
REMARK    4  A    between atoms: N_18  and  C_19
REMARK    5  A    between atoms: C_19  and  C_20
REMARK    6  A    between atoms: C_23  and  N_24
REMARK                            x       y       z     vdW  Elec       q    Type
REMARK                         _______ _______ _______ _____ _____    ______ ____
ROOT
ATOM     14  C   UNL     1      -1.771   4.355  25.324  0.00  0.00    +0.138 C 
ATOM     15  C   UNL     1      -1.544   5.108  25.072  0.00  0.00    +0.027 C 
ATOM     16  C   UNL     1      -0.764   5.064  24.808  0.00  0.00    +0.019 C 
ATOM     17  C   UNL     1      -0.509   4.284  24.896  0.00  0.00    +0.073 C 
ATOM     18  N   UNL     1      -1.131   3.846  25.215  0.00  0.00    -0.263 NA
ENDROOT
BRANCH  14  12
ATOM      9  C   UNL     1      -3.738   3.641  25.748  0.00  0.00    +0.205 A 
ATOM     10  N   UNL     1      -3.549   4.020  26.457  0.00  0.00    -0.056 NA
ATOM     11  O   UNL     1      -2.789   4.333  26.385  0.00  0.00    -0.336 OA
ATOM     12  C   UNL     1      -2.508   4.149  25.631  0.00  0.00    +0.251 A 
ATOM     13  N   UNL     1      -3.095   3.721  25.238  0.00  0.00    -0.190 NA
BRANCH   9   6
ATOM      3  C   UNL     1      -5.860   2.473  25.243  0.00  0.00    +0.148 A 
ATOM      4  C   UNL     1      -5.139   2.097  25.106  0.00  0.00    +0.036 A 
ATOM      5  C   UNL     1      -4.432   2.486  25.274  0.00  0.00    +0.008 A 
ATOM      6  C   UNL     1      -4.445   3.252  25.580  0.00  0.00    +0.058 A 
ATOM      7  C   UNL     1      -5.166   3.629  25.718  0.00  0.00    +0.103 A 
ATOM      8  N   UNL     1      -5.874   3.240  25.549  0.00  0.00    -0.228 NA
BRANCH   3   2
ATOM      1  C   UNL     1      -6.554   1.319  24.766  0.00  0.00    +0.137 C 
ATOM      2  N   UNL     1      -6.568   2.084  25.075  0.00  0.00    -0.218 NA
ENDBRANCH   3   2
ENDBRANCH   9   6
ENDBRANCH  14  12
BRANCH  18  19
ATOM     19  C   UNL     1      -1.116   3.041  25.394  0.00  0.00    +0.099 C 
BRANCH  19  20
ATOM     20  C   UNL     1      -0.658   2.526  24.941  0.00  0.00    -0.006 A 
ATOM     21  C   UNL     1       0.071   2.264  25.224  0.00  0.00    -0.002 A 
ATOM     22  C   UNL     1       0.530   1.749  24.771  0.00  0.00    +0.016 A 
ATOM     23  C   UNL     1       0.258   1.497  24.034  0.00  0.00    +0.073 A 
ATOM     28  C   UNL     1      -0.470   1.759  23.750  0.00  0.00    +0.016 A 
ATOM     29  C   UNL     1      -0.929   2.273  24.203  0.00  0.00    -0.002 A 
BRANCH  23  24
ATOM     24  N   UNL     1       0.717   0.981  23.580  0.00  0.00    -0.179 NA
ATOM     25  C   UNL     1       0.493   0.191  23.502  0.00  0.00    +0.246 C 
ATOM     26  C   UNL     1       0.952  -0.324  23.048  0.00  0.00    +0.097 C 
ATOM     27  O   UNL     1      -0.188  -0.084  23.875  0.00  0.00    -0.273 OA
ENDBRANCH  23  24
ENDBRANCH  19  20
ENDBRANCH  18  19
TORSDOF 6
ENDMDL
MODEL 6
REMARK VINA RESULT:      -9.5      2.692      4.632
REMARK  Name = 
REMARK  6 active torsions:
REMARK  status: ('A' for Active; 'I' for Inactive)
REMARK    1  A    between atoms: N_2  and  C_3
REMARK    2  A    between atoms: C_6  and  C_9
REMARK    3  A    between atoms: C_12  and  C_14
REMARK    4  A    between atoms: N_18  and  C_19
REMARK    5  A    between atoms: C_19  and  C_20
REMARK    6  A    between atoms: C_23  and  N_24
REMARK                            x       y       z     vdW  Elec       q    Type
REMARK                         _______ _______ _______ _____ _____    ______ ____
ROOT
ATOM     14  C   UNL     1      -3.089  -1.069  24.416  0.00  0.00    +0.138 C 
ATOM     15  C   UNL     1      -3.492  -1.675  24.027  0.00  0.00    +0.027 C 
ATOM     16  C   UNL     1      -4.299  -1.511  24.067  0.00  0.00    +0.019 C 
ATOM     17  C   UNL     1      -4.396  -0.804  24.481  0.00  0.00    +0.073 C 
ATOM     18  N   UNL     1      -3.647  -0.530  24.697  0.00  0.00    -0.263 NA
ENDROOT
BRANCH  14  12
ATOM      9  C   UNL     1      -0.991  -0.690  24.308  0.00  0.00    +0.205 A 
ATOM     10  N   UNL     1      -1.034  -1.155  24.989  0.00  0.00    -0.056 NA
ATOM     11  O   UNL     1      -1.826  -1.353  25.112  0.00  0.00    -0.336 OA
ATOM     12  C   UNL     1      -2.271  -1.011  24.508  0.00  0.00    +0.251 A 
ATOM     13  N   UNL     1      -1.755  -0.602  24.011  0.00  0.00    -0.190 NA
BRANCH   9   6
ATOM      3  C   UNL     1       1.071   0.268  23.331  0.00  0.00    +0.148 A 
ATOM      4  C   UNL     1       0.527   0.759  23.710  0.00  0.00    +0.036 A 
ATOM      5  C   UNL     1      -0.160   0.439  24.036  0.00  0.00    +0.008 A 
ATOM      6  C   UNL     1      -0.303  -0.371  23.982  0.00  0.00    +0.058 A 
ATOM      7  C   UNL     1       0.240  -0.863  23.604  0.00  0.00    +0.103 A 
ATOM      8  N   UNL     1       0.928  -0.543  23.278  0.00  0.00    -0.228 NA
BRANCH   3   2
ATOM      1  C   UNL     1       2.300   0.097  22.621  0.00  0.00    +0.137 C 
ATOM      2  N   UNL     1       1.759   0.588  23.005  0.00  0.00    -0.218 NA
ENDBRANCH   3   2
ENDBRANCH   9   6
ENDBRANCH  14  12
BRANCH  18  19
ATOM     19  C   UNL     1      -3.487   0.160  25.119  0.00  0.00    +0.099 C 
BRANCH  19  20
ATOM     20  C   UNL     1      -4.012   0.795  25.087  0.00  0.00    -0.006 A 
ATOM     21  C   UNL     1      -4.690   0.793  25.557  0.00  0.00    -0.002 A 
ATOM     22  C   UNL     1      -5.216   1.429  25.525  0.00  0.00    +0.016 A 
ATOM     23  C   UNL     1      -5.063   2.065  25.024  0.00  0.00    +0.073 A 
ATOM     28  C   UNL     1      -4.385   2.067  24.554  0.00  0.00    +0.016 A 
ATOM     29  C   UNL     1      -3.859   1.432  24.585  0.00  0.00    -0.002 A 
BRANCH  23  24
ATOM     24  N   UNL     1      -5.589   2.701  24.992  0.00  0.00    -0.179 NA
ATOM     25  C   UNL     1      -5.458   3.367  25.462  0.00  0.00    +0.246 C 
ATOM     26  C   UNL     1      -5.984   4.002  25.430  0.00  0.00    +0.097 C 
ATOM     27  O   UNL     1      -4.804   3.398  25.962  0.00  0.00    -0.273 OA
ENDBRANCH  23  24
ENDBRANCH  19  20
ENDBRANCH  18  19
TORSDOF 6
ENDMDL
MODEL 7
REMARK VINA RESULT:      -9.3      2.321      3.276
REMARK  Name = 
REMARK  6 active torsions:
REMARK  status: ('A' for Active; 'I' for Inactive)
REMARK    1  A    between atoms: N_2  and  C_3
REMARK    2  A    between atoms: C_6  and  C_9
REMARK    3  A    between atoms: C_12  and  C_14
REMARK    4  A    between atoms: N_18  and  C_19
REMARK    5  A    between atoms: C_19  and  C_20
REMARK    6  A    between atoms: C_23  and  N_24
REMARK                            x       y       z     vdW  Elec       q    Type
REMARK                         _______ _______ _______ _____ _____    ______ ____
ROOT
ATOM     14  C   UNL     1      -0.178   0.585  24.456  0.00  0.00    +0.138 C 
ATOM     15  C   UNL     1       0.314   0.501  23.798  0.00  0.00    +0.027 C 
ATOM     16  C   UNL     1       0.239  -0.272  23.521  0.00  0.00    +0.019 C 
ATOM     17  C   UNL     1      -0.299  -0.666  24.007  0.00  0.00    +0.073 C 
ATOM     18  N   UNL     1      -0.557  -0.136  24.585  0.00  0.00    -0.263 NA
ENDROOT
BRANCH  14  12
ATOM      9  C   UNL     1      -0.642   2.495  25.290  0.00  0.00    +0.205 A 
ATOM     10  N   UNL     1      -0.202   2.157  25.901  0.00  0.00    -0.056 NA
ATOM     11  O   UNL     1       0.026   1.400  25.663  0.00  0.00    -0.336 OA
ATOM     12  C   UNL     1      -0.274   1.270  24.905  0.00  0.00    +0.251 A 
ATOM     13  N   UNL     1      -0.687   1.947  24.675  0.00  0.00    -0.190 NA
BRANCH   9   6
ATOM      3  C   UNL     1      -1.653   4.754  25.304  0.00  0.00    +0.148 A 
ATOM      4  C   UNL     1      -2.047   4.123  25.660  0.00  0.00    +0.036 A 
ATOM      5  C   UNL     1      -1.710   3.370  25.655  0.00  0.00    +0.008 A 
ATOM      6  C   UNL     1      -0.979   3.248  25.295  0.00  0.00    +0.058 A 
ATOM      7  C   UNL     1      -0.583   3.878  24.939  0.00  0.00    +0.103 A 
ATOM      8  N   UNL     1      -0.920   4.631  24.943  0.00  0.00    -0.228 NA
BRANCH   3   2
ATOM      1  C   UNL     1      -1.616   6.128  24.912  0.00  0.00    +0.137 C 
ATOM      2  N   UNL     1      -1.989   5.507  25.308  0.00  0.00    -0.218 NA
ENDBRANCH   3   2
ENDBRANCH   9   6
ENDBRANCH  14  12
BRANCH  18  19
ATOM     19  C   UNL     1      -1.097  -0.300  25.186  0.00  0.00    +0.099 C 
BRANCH  19  20
ATOM     20  C   UNL     1      -1.723  -0.819  25.048  0.00  0.00    -0.006 A 
ATOM     21  C   UNL     1      -1.576  -1.622  24.936  0.00  0.00    -0.002 A 
ATOM     22  C   UNL     1      -2.202  -2.142  24.798  0.00  0.00    +0.016 A 
ATOM     23  C   UNL     1      -2.976  -1.857  24.772  0.00  0.00    +0.073 A 
ATOM     28  C   UNL     1      -3.123  -1.053  24.884  0.00  0.00    +0.016 A 
ATOM     29  C   UNL     1      -2.497  -0.534  25.022  0.00  0.00    -0.002 A 
BRANCH  23  24
ATOM     24  N   UNL     1      -3.602  -2.377  24.634  0.00  0.00    -0.179 NA
ATOM     25  C   UNL     1      -4.070  -2.288  23.961  0.00  0.00    +0.246 C 
ATOM     26  C   UNL     1      -4.696  -2.808  23.823  0.00  0.00    +0.097 C 
ATOM     27  O   UNL     1      -3.912  -1.681  23.425  0.00  0.00    -0.273 OA
ENDBRANCH  23  24
ENDBRANCH  19  20
ENDBRANCH  18  19
TORSDOF 6
ENDMDL
MODEL 8
REMARK VINA RESULT:      -9.3      1.990      5.556
REMARK  Name = 
REMARK  6 active torsions:
REMARK  status: ('A' for Active; 'I' for Inactive)
REMARK    1  A    between atoms: N_2  and  C_3
REMARK    2  A    between atoms: C_6  and  C_9
REMARK    3  A    between atoms: C_12  and  C_14
REMARK    4  A    between atoms: N_18  and  C_19
REMARK    5  A    between atoms: C_19  and  C_20
REMARK    6  A    between atoms: C_23  and  N_24
REMARK                            x       y       z     vdW  Elec       q    Type
REMARK                         _______ _______ _______ _____ _____    ______ ____
ROOT
ATOM     14  C   UNL     1      -0.630   1.739  25.416  0.00  0.00    +0.138 C 
ATOM     15  C   UNL     1      -0.167   1.881  26.084  0.00  0.00    +0.027 C 
ATOM     16  C   UNL     1      -0.234   2.680  26.276  0.00  0.00    +0.019 C 
ATOM     17  C   UNL     1      -0.739   3.032  25.727  0.00  0.00    +0.073 C 
ATOM     18  N   UNL     1      -0.983   2.450  25.195  0.00  0.00    -0.263 NA
ENDROOT
BRANCH  14  12
ATOM      9  C   UNL     1      -1.179  -0.198  24.704  0.00  0.00    +0.205 A 
ATOM     10  N   UNL     1      -0.553  -0.014  24.199  0.00  0.00    -0.056 NA
ATOM     11  O   UNL     1      -0.271   0.735  24.404  0.00  0.00    -0.336 OA
ATOM     12  C   UNL     1      -0.722   1.013  25.036  0.00  0.00    +0.251 A 
ATOM     13  N   UNL     1      -1.283   0.436  25.221  0.00  0.00    -0.190 NA
BRANCH   9   6
ATOM      3  C   UNL     1      -2.508  -2.285  24.673  0.00  0.00    +0.148 A 
ATOM      4  C   UNL     1      -2.887  -1.555  24.728  0.00  0.00    +0.036 A 
ATOM      5  C   UNL     1      -2.444  -0.859  24.738  0.00  0.00    +0.008 A 
ATOM      6  C   UNL     1      -1.622  -0.894  24.694  0.00  0.00    +0.058 A 
ATOM      7  C   UNL     1      -1.241  -1.624  24.639  0.00  0.00    +0.103 A 
ATOM      8  N   UNL     1      -1.684  -2.319  24.629  0.00  0.00    -0.228 NA
BRANCH   3   2
ATOM      1  C   UNL     1      -3.717  -2.977  24.357  0.00  0.00    +0.137 C 
ATOM      2  N   UNL     1      -2.950  -2.981  24.662  0.00  0.00    -0.218 NA
ENDBRANCH   3   2
ENDBRANCH   9   6
ENDBRANCH  14  12
BRANCH  18  19
ATOM     19  C   UNL     1      -1.492   2.561  24.555  0.00  0.00    +0.099 C 
BRANCH  19  20
ATOM     20  C   UNL     1      -2.224   2.924  24.668  0.00  0.00    -0.006 A 
ATOM     21  C   UNL     1      -2.311   3.508  25.244  0.00  0.00    -0.002 A 
ATOM     22  C   UNL     1      -3.044   3.871  25.356  0.00  0.00    +0.016 A 
ATOM     23  C   UNL     1      -3.689   3.649  24.892  0.00  0.00    +0.073 A 
ATOM     28  C   UNL     1      -3.601   3.066  24.316  0.00  0.00    +0.016 A 
ATOM     29  C   UNL     1      -2.869   2.703  24.203  0.00  0.00    -0.002 A 
BRANCH  23  24
ATOM     24  N   UNL     1      -4.421   4.013  25.005  0.00  0.00    -0.179 NA
ATOM     25  C   UNL     1      -4.993   3.649  25.476  0.00  0.00    +0.246 C 
ATOM     26  C   UNL     1      -5.725   4.013  25.589  0.00  0.00    +0.097 C 
ATOM     27  O   UNL     1      -4.833   2.925  25.835  0.00  0.00    -0.273 OA
ENDBRANCH  23  24
ENDBRANCH  19  20
ENDBRANCH  18  19
TORSDOF 6
ENDMDL
MODEL 9
REMARK VINA RESULT:      -9.0      4.438      5.937
REMARK  Name = 
REMARK  6 active torsions:
REMARK  status: ('A' for Active; 'I' for Inactive)
REMARK    1  A    between atoms: N_2  and  C_3
REMARK    2  A    between atoms: C_6  and  C_9
REMARK    3  A    between atoms: C_12  and  C_14
REMARK    4  A    between atoms: N_18  and  C_19
REMARK    5  A    between atoms: C_19  and  C_20
REMARK    6  A    between atoms: C_23  and  N_24
REMARK                            x       y       z     vdW  Elec       q    Type
REMARK                         _______ _______ _______ _____ _____    ______ ____
ROOT
ATOM     14  C   UNL     1      -0.135  -0.196  23.843  0.00  0.00    +0.138 C 
ATOM     15  C   UNL     1      -0.371  -0.871  24.255  0.00  0.00    +0.027 C 
ATOM     16  C   UNL     1      -1.059  -0.689  24.671  0.00  0.00    +0.019 C 
ATOM     17  C   UNL     1      -1.249   0.100  24.517  0.00  0.00    +0.073 C 
ATOM     18  N   UNL     1      -0.677   0.404  24.005  0.00  0.00    -0.263 NA
ENDROOT
BRANCH  14  12
ATOM      9  C   UNL     1       1.788   0.012  22.939  0.00  0.00    +0.205 A 
ATOM     10  N   UNL     1       1.308  -0.079  22.274  0.00  0.00    -0.056 NA
ATOM     11  O   UNL     1       0.529  -0.168  22.532  0.00  0.00    -0.336 OA
ATOM     12  C   UNL     1       0.528  -0.132  23.356  0.00  0.00    +0.251 A 
ATOM     13  N   UNL     1       1.306  -0.020  23.608  0.00  0.00    -0.190 NA
BRANCH   9   6
ATOM      3  C   UNL     1       4.243   0.329  22.929  0.00  0.00    +0.148 A 
ATOM      4  C   UNL     1       3.743   0.968  22.783  0.00  0.00    +0.036 A 
ATOM      5  C   UNL     1       2.925   0.863  22.786  0.00  0.00    +0.008 A 
ATOM      6  C   UNL     1       2.606   0.118  22.936  0.00  0.00    +0.058 A 
ATOM      7  C   UNL     1       3.105  -0.523  23.083  0.00  0.00    +0.103 A 
ATOM      8  N   UNL     1       3.923  -0.418  23.079  0.00  0.00    -0.228 NA
BRANCH   3   2
ATOM      1  C   UNL     1       5.508   0.210  23.583  0.00  0.00    +0.137 C 
ATOM      2  N   UNL     1       5.061   0.434  22.926  0.00  0.00    -0.218 NA
ENDBRANCH   3   2
ENDBRANCH   9   6
ENDBRANCH  14  12
BRANCH  18  19
ATOM     19  C   UNL     1      -0.653   1.173  23.708  0.00  0.00    +0.099 C 
BRANCH  19  20
ATOM     20  C   UNL     1      -1.261   1.702  23.883  0.00  0.00    -0.006 A 
ATOM     21  C   UNL     1      -1.201   2.199  24.538  0.00  0.00    -0.002 A 
ATOM     22  C   UNL     1      -1.810   2.729  24.713  0.00  0.00    +0.016 A 
ATOM     23  C   UNL     1      -2.478   2.760  24.231  0.00  0.00    +0.073 A 
ATOM     28  C   UNL     1      -2.539   2.264  23.575  0.00  0.00    +0.016 A 
ATOM     29  C   UNL     1      -1.931   1.735  23.401  0.00  0.00    -0.002 A 
BRANCH  23  24
ATOM     24  N   UNL     1      -3.087   3.290  24.405  0.00  0.00    -0.179 NA
ATOM     25  C   UNL     1      -3.731   3.042  24.857  0.00  0.00    +0.246 C 
ATOM     26  C   UNL     1      -4.340   3.572  25.032  0.00  0.00    +0.097 C 
ATOM     27  O   UNL     1      -3.768   2.267  25.134  0.00  0.00    -0.273 OA
ENDBRANCH  23  24
ENDBRANCH  19  20
ENDBRANCH  18  19
TORSDOF 6
ENDMDL
