MODEL 1
REMARK VINA RESULT:     -10.5      0.000      0.000
REMARK  Name = 
REMARK  2 active torsions:
REMARK  status: ('A' for Active; 'I' for Inactive)
REMARK    1  A    between atoms: C_5  and  C_8
REMARK    2  A    between atoms: C_11  and  C_13
REMARK                            x       y       z     vdW  Elec       q    Type
REMARK                         _______ _______ _______ _____ _____    ______ ____
ROOT
ATOM      8  C   UNL     1      -3.915   0.130  24.474  0.00  0.00    +0.102 A 
ATOM      9  C   UNL     1      -3.552   0.608  23.909  0.00  0.00    +0.119 A 
ATOM     10  N   UNL     1      -3.803   1.384  24.032  0.00  0.00    -0.226 NA
ATOM     11  C   UNL     1      -4.321   1.386  24.674  0.00  0.00    +0.157 A 
ATOM     12  N   UNL     1      -4.390   0.610  24.947  0.00  0.00    -0.228 NA
ENDROOT
BRANCH   8   5
ATOM      1 CL   UNL     1      -3.535  -3.133  24.788  0.00  0.00    -0.082 Cl
ATOM      2  C   UNL     1      -3.630  -2.318  24.710  0.00  0.00    +0.058 A 
ATOM      3  C   UNL     1      -4.017  -2.009  24.051  0.00  0.00    +0.011 A 
ATOM      4  C   UNL     1      -4.112  -1.193  23.972  0.00  0.00    +0.002 A 
ATOM      5  C   UNL     1      -3.820  -0.686  24.553  0.00  0.00    +0.019 A 
ATOM      6  C   UNL     1      -3.432  -0.994  25.213  0.00  0.00    +0.002 A 
ATOM      7  C   UNL     1      -3.337  -1.810  25.291  0.00  0.00    +0.011 A 
ENDBRANCH   8   5
BRANCH  11  13
ATOM     13  C   UNL     1      -4.702   2.047  24.988  0.00  0.00    +0.160 C 
ATOM     14  C   UNL     1      -5.526   2.077  25.007  0.00  0.00    +0.167 C 
ATOM     15  O   UNL     1      -5.908   2.739  25.320  0.00  0.00    -0.350 OA
ATOM     16  C   UNL     1      -5.464   3.369  25.615  0.00  0.00    +0.161 C 
ATOM     17  C   UNL     1      -4.640   3.338  25.596  0.00  0.00    +0.121 C 
ATOM     18  N   UNL     1      -4.259   2.677  25.282  0.00  0.00    -0.207 NA
ENDBRANCH  11  13
TORSDOF 2
ENDMDL
MODEL 2
REMARK VINA RESULT:     -10.3      1.078      1.433
REMARK  Name = 
REMARK  2 active torsions:
REMARK  status: ('A' for Active; 'I' for Inactive)
REMARK    1  A    between atoms: C_5  and  C_8
REMARK    2  A    between atoms: C_11  and  C_13
REMARK                            x       y       z     vdW  Elec       q    Type
REMARK                         _______ _______ _______ _____ _____    ______ ____
ROOT
ATOM      8  C   UNL     1      -4.223   0.287  24.862  0.00  0.00    +0.102 A 
ATOM      9  C   UNL     1      -4.917   0.593  25.183  0.00  0.00    +0.119 A 
ATOM     10  N   UNL     1      -4.863   1.417  25.170  0.00  0.00    -0.226 NA
ATOM     11  C   UNL     1      -4.134   1.619  24.841  0.00  0.00    +0.157 A 
ATOM     12  N   UNL     1      -3.738   0.920  24.650  0.00  0.00    -0.228 NA
ENDROOT
BRANCH   8   5
ATOM      1 CL   UNL     1      -3.505  -2.912  24.490  0.00  0.00    -0.082 Cl
ATOM      2  C   UNL     1      -3.684  -2.113  24.583  0.00  0.00    +0.058 A 
ATOM      3  C   UNL     1      -3.470  -1.720  25.276  0.00  0.00    +0.011 A 
ATOM      4  C   UNL     1      -3.649  -0.920  25.369  0.00  0.00    +0.002 A 
ATOM      5  C   UNL     1      -4.043  -0.513  24.769  0.00  0.00    +0.019 A 
ATOM      6  C   UNL     1      -4.258  -0.906  24.076  0.00  0.00    +0.002 A 
ATOM      7  C   UNL     1      -4.079  -1.706  23.983  0.00  0.00    +0.011 A 
ENDBRANCH   8   5
BRANCH  11  13
ATOM     13  C   UNL     1      -3.851   2.385  24.722  0.00  0.00    +0.160 C 
ATOM     14  C   UNL     1      -4.102   2.821  24.069  0.00  0.00    +0.167 C 
ATOM     15  O   UNL     1      -3.818   3.587  23.950  0.00  0.00    -0.350 OA
ATOM     16  C   UNL     1      -3.284   3.916  24.487  0.00  0.00    +0.161 C 
ATOM     17  C   UNL     1      -3.034   3.480  25.140  0.00  0.00    +0.121 C 
ATOM     18  N   UNL     1      -3.317   2.714  25.258  0.00  0.00    -0.207 NA
ENDBRANCH  11  13
TORSDOF 2
ENDMDL
MODEL 3
REMARK VINA RESULT:      -9.5      2.298      4.232
REMARK  Name = 
REMARK  2 active torsions:
REMARK  status: ('A' for Active; 'I' for Inactive)
REMARK    1  A    between atoms: C_5  and  C_8
REMARK    2  A    between atoms: C_11  and  C_13
REMARK                            x       y       z     vdW  Elec       q    Type
REMARK                         _______ _______ _______ _____ _____    ______ ____
ROOT
ATOM      8  C   UNL     1      -4.202   0.982  24.533  0.00  0.00    +0.102 A 
ATOM      9  C   UNL     1      -3.662   0.950  23.912  0.00  0.00    +0.119 A 
ATOM     10  N   UNL     1      -3.445   0.161  23.804  0.00  0.00    -0.226 NA
ATOM     11  C   UNL     1      -3.851  -0.294  24.360  0.00  0.00    +0.157 A 
ATOM     12  N   UNL     1      -4.320   0.214  24.811  0.00  0.00    -0.228 NA
ENDROOT
BRANCH   8   5
ATOM      1 CL   UNL     1      -5.645   3.707  25.709  0.00  0.00    -0.082 Cl
ATOM      2  C   UNL     1      -5.285   3.026  25.416  0.00  0.00    +0.058 A 
ATOM      3  C   UNL     1      -4.472   3.017  25.276  0.00  0.00    +0.011 A 
ATOM      4  C   UNL     1      -4.111   2.335  24.982  0.00  0.00    +0.002 A 
ATOM      5  C   UNL     1      -4.564   1.664  24.828  0.00  0.00    +0.019 A 
ATOM      6  C   UNL     1      -5.377   1.672  24.967  0.00  0.00    +0.002 A 
ATOM      7  C   UNL     1      -5.738   2.353  25.261  0.00  0.00    +0.011 A 
ENDBRANCH   8   5
BRANCH  11  13
ATOM     13  C   UNL     1      -3.797  -1.113  24.448  0.00  0.00    +0.160 C 
ATOM     14  C   UNL     1      -4.140  -1.611  23.888  0.00  0.00    +0.167 C 
ATOM     15  O   UNL     1      -4.087  -2.430  23.977  0.00  0.00    -0.350 OA
ATOM     16  C   UNL     1      -3.690  -2.749  24.627  0.00  0.00    +0.161 C 
ATOM     17  C   UNL     1      -3.348  -2.250  25.186  0.00  0.00    +0.121 C 
ATOM     18  N   UNL     1      -3.401  -1.431  25.097  0.00  0.00    -0.207 NA
ENDBRANCH  11  13
TORSDOF 2
ENDMDL
MODEL 4
REMARK VINA RESULT:      -7.6     18.639     19.343
REMARK  Name = 
REMARK  2 active torsions:
REMARK  status: ('A' for Active; 'I' for Inactive)
REMARK    1  A    between atoms: C_5  and  C_8
REMARK    2  A    between atoms: C_11  and  C_13
REMARK                            x       y       z     vdW  Elec       q    Type
REMARK                         _______ _______ _______ _____ _____    ______ ____
ROOT
ATOM      8  C   UNL     1      13.551   6.881  19.868  0.00  0.00    +0.102 A 
ATOM      9  C   UNL     1      13.016   6.826  19.243  0.00  0.00    +0.119 A 
ATOM     10  N   UNL     1      12.255   6.908  19.552  0.00  0.00    -0.226 NA
ATOM     11  C   UNL     1      12.320   7.013  20.367  0.00  0.00    +0.157 A 
ATOM     12  N   UNL     1      13.122   6.996  20.563  0.00  0.00    -0.228 NA
ENDROOT
BRANCH   8   5
ATOM      1 CL   UNL     1      16.836   6.676  19.630  0.00  0.00    -0.082 Cl
ATOM      2  C   UNL     1      16.016   6.728  19.689  0.00  0.00    +0.058 A 
ATOM      3  C   UNL     1      15.575   7.037  19.064  0.00  0.00    +0.011 A 
ATOM      4  C   UNL     1      14.753   7.088  19.124  0.00  0.00    +0.002 A 
ATOM      5  C   UNL     1      14.373   6.830  19.808  0.00  0.00    +0.019 A 
ATOM      6  C   UNL     1      14.813   6.520  20.434  0.00  0.00    +0.002 A 
ATOM      7  C   UNL     1      15.634   6.469  20.374  0.00  0.00    +0.011 A 
ENDBRANCH   8   5
BRANCH  11  13
ATOM     13  C   UNL     1      11.694   7.116  20.895  0.00  0.00    +0.160 C 
ATOM     14  C   UNL     1      11.396   6.470  21.312  0.00  0.00    +0.167 C 
ATOM     15  O   UNL     1      10.770   6.573  21.840  0.00  0.00    -0.350 OA
ATOM     16  C   UNL     1      10.442   7.323  21.949  0.00  0.00    +0.161 C 
ATOM     17  C   UNL     1      10.741   7.968  21.532  0.00  0.00    +0.121 C 
ATOM     18  N   UNL     1      11.367   7.865  21.004  0.00  0.00    -0.207 NA
ENDBRANCH  11  13
TORSDOF 2
ENDMDL
MODEL 5
REMARK VINA RESULT:      -7.2     18.637     19.470
REMARK  Name = 
REMARK  2 active torsions:
REMARK  status: ('A' for Active; 'I' for Inactive)
REMARK    1  A    between atoms: C_5  and  C_8
REMARK    2  A    between atoms: C_11  and  C_13
REMARK                            x       y       z     vdW  Elec       q    Type
REMARK                         _______ _______ _______ _____ _____    ______ ____
ROOT
ATOM      8  C   UNL     1      12.625   7.034  20.198  0.00  0.00    +0.102 A 
ATOM      9  C   UNL     1      12.606   6.904  19.384  0.00  0.00    +0.119 A 
ATOM     10  N   UNL     1      13.385   6.874  19.113  0.00  0.00    -0.226 NA
ATOM     11  C   UNL     1      13.885   6.985  19.759  0.00  0.00    +0.157 A 
ATOM     12  N   UNL     1      13.415   7.084  20.431  0.00  0.00    -0.228 NA
ENDROOT
BRANCH   8   5
ATOM      1 CL   UNL     1      10.001   7.305  22.180  0.00  0.00    -0.082 Cl
ATOM      2  C   UNL     1      10.656   7.237  21.685  0.00  0.00    +0.058 A 
ATOM      3  C   UNL     1      11.083   6.532  21.659  0.00  0.00    +0.011 A 
ATOM      4  C   UNL     1      11.739   6.464  21.164  0.00  0.00    +0.002 A 
ATOM      5  C   UNL     1      11.968   7.102  20.694  0.00  0.00    +0.019 A 
ATOM      6  C   UNL     1      11.542   7.808  20.719  0.00  0.00    +0.002 A 
ATOM      7  C   UNL     1      10.886   7.875  21.215  0.00  0.00    +0.011 A 
ENDBRANCH   8   5
BRANCH  11  13
ATOM     13  C   UNL     1      14.710   6.995  19.739  0.00  0.00    +0.160 C 
ATOM     14  C   UNL     1      15.105   7.640  19.409  0.00  0.00    +0.167 C 
ATOM     15  O   UNL     1      15.931   7.650  19.388  0.00  0.00    -0.350 OA
ATOM     16  C   UNL     1      16.359   7.015  19.697  0.00  0.00    +0.161 C 
ATOM     17  C   UNL     1      15.962   6.372  20.026  0.00  0.00    +0.121 C 
ATOM     18  N   UNL     1      15.137   6.361  20.047  0.00  0.00    -0.207 NA
ENDBRANCH  11  13
TORSDOF 2
ENDMDL
MODEL 6
REMARK VINA RESULT:      -7.2     18.143     18.929
REMARK  Name = 
REMARK  2 active torsions:
REMARK  status: ('A' for Active; 'I' for Inactive)
REMARK    1  A    between atoms: C_5  and  C_8
REMARK    2  A    between atoms: C_11  and  C_13
REMARK                            x       y       z     vdW  Elec       q    Type
REMARK                         _______ _______ _______ _____ _____    ______ ____
ROOT
ATOM      8  C   UNL     1      11.824   8.396  18.836  0.00  0.00    +0.102 A 
ATOM      9  C   UNL     1      11.036   8.579  18.680  0.00  0.00    +0.119 A 
ATOM     10  N   UNL     1      10.616   8.521  19.389  0.00  0.00    -0.226 NA
ATOM     11  C   UNL     1      11.146   8.303  19.982  0.00  0.00    +0.157 A 
ATOM     12  N   UNL     1      11.893   8.226  19.641  0.00  0.00    -0.228 NA
ENDROOT
BRANCH   8   5
ATOM      1 CL   UNL     1      14.277   8.356  16.630  0.00  0.00    -0.082 Cl
ATOM      2  C   UNL     1      13.665   8.366  17.181  0.00  0.00    +0.058 A 
ATOM      3  C   UNL     1      13.332   9.084  17.415  0.00  0.00    +0.011 A 
ATOM      4  C   UNL     1      12.719   9.094  17.967  0.00  0.00    +0.002 A 
ATOM      5  C   UNL     1      12.438   8.386  18.284  0.00  0.00    +0.019 A 
ATOM      6  C   UNL     1      12.770   7.668  18.050  0.00  0.00    +0.002 A 
ATOM      7  C   UNL     1      13.384   7.658  17.499  0.00  0.00    +0.011 A 
ENDBRANCH   8   5
BRANCH  11  13
ATOM     13  C   UNL     1      10.961   8.182  20.778  0.00  0.00    +0.160 C 
ATOM     14  C   UNL     1      10.974   8.817  21.304  0.00  0.00    +0.167 C 
ATOM     15  O   UNL     1      10.789   8.697  22.099  0.00  0.00    -0.350 OA
ATOM     16  C   UNL     1      10.591   7.941  22.367  0.00  0.00    +0.161 C 
ATOM     17  C   UNL     1      10.578   7.308  21.840  0.00  0.00    +0.121 C 
ATOM     18  N   UNL     1      10.763   7.428  21.044  0.00  0.00    -0.207 NA
ENDBRANCH  11  13
TORSDOF 2
ENDMDL
MODEL 7
REMARK VINA RESULT:      -7.0     19.677     20.414
REMARK  Name = 
REMARK  2 active torsions:
REMARK  status: ('A' for Active; 'I' for Inactive)
REMARK    1  A    between atoms: C_5  and  C_8
REMARK    2  A    between atoms: C_11  and  C_13
REMARK                            x       y       z     vdW  Elec       q    Type
REMARK                         _______ _______ _______ _____ _____    ______ ____
ROOT
ATOM      8  C   UNL     1      14.254   6.913  19.820  0.00  0.00    +0.102 A 
ATOM      9  C   UNL     1      13.593   6.648  20.236  0.00  0.00    +0.119 A 
ATOM     10  N   UNL     1      12.920   6.905  19.833  0.00  0.00    -0.226 NA
ATOM     11  C   UNL     1      13.166   7.328  19.169  0.00  0.00    +0.157 A 
ATOM     12  N   UNL     1      13.991   7.333  19.161  0.00  0.00    -0.228 NA
ENDROOT
BRANCH   8   5
ATOM      1 CL   UNL     1      17.404   6.383  20.650  0.00  0.00    -0.082 Cl
ATOM      2  C   UNL     1      16.617   6.515  20.443  0.00  0.00    +0.058 A 
ATOM      3  C   UNL     1      16.071   6.743  21.018  0.00  0.00    +0.011 A 
ATOM      4  C   UNL     1      15.284   6.875  20.811  0.00  0.00    +0.002 A 
ATOM      5  C   UNL     1      15.042   6.780  20.028  0.00  0.00    +0.019 A 
ATOM      6  C   UNL     1      15.587   6.552  19.452  0.00  0.00    +0.002 A 
ATOM      7  C   UNL     1      16.375   6.420  19.660  0.00  0.00    +0.011 A 
ENDBRANCH   8   5
BRANCH  11  13
ATOM     13  C   UNL     1      12.673   7.684  18.611  0.00  0.00    +0.160 C 
ATOM     14  C   UNL     1      12.383   7.244  17.977  0.00  0.00    +0.167 C 
ATOM     15  O   UNL     1      11.890   7.600  17.419  0.00  0.00    -0.350 OA
ATOM     16  C   UNL     1      11.688   8.397  17.496  0.00  0.00    +0.161 C 
ATOM     17  C   UNL     1      11.979   8.836  18.130  0.00  0.00    +0.121 C 
ATOM     18  N   UNL     1      12.472   8.480  18.688  0.00  0.00    -0.207 NA
ENDBRANCH  11  13
TORSDOF 2
ENDMDL
MODEL 8
REMARK VINA RESULT:      -6.8     18.381     19.196
REMARK  Name = 
REMARK  2 active torsions:
REMARK  status: ('A' for Active; 'I' for Inactive)
REMARK    1  A    between atoms: C_5  and  C_8
REMARK    2  A    between atoms: C_11  and  C_13
REMARK                            x       y       z     vdW  Elec       q    Type
REMARK                         _______ _______ _______ _____ _____    ______ ____
ROOT
ATOM      8  C   UNL     1      12.504   7.255  20.028  0.00  0.00    +0.102 A 
ATOM      9  C   UNL     1      13.223   6.859  20.103  0.00  0.00    +0.119 A 
ATOM     10  N   UNL     1      13.672   7.018  19.429  0.00  0.00    -0.226 NA
ATOM     11  C   UNL     1      13.230   7.512  18.938  0.00  0.00    +0.157 A 
ATOM     12  N   UNL     1      12.507   7.659  19.309  0.00  0.00    -0.228 NA
ENDROOT
BRANCH   8   5
ATOM      1 CL   UNL     1      10.040   7.232  22.223  0.00  0.00    -0.082 Cl
ATOM      2  C   UNL     1      10.655   7.238  21.675  0.00  0.00    +0.058 A 
ATOM      3  C   UNL     1      10.789   7.907  21.211  0.00  0.00    +0.011 A 
ATOM      4  C   UNL     1      11.405   7.913  20.663  0.00  0.00    +0.002 A 
ATOM      5  C   UNL     1      11.887   7.250  20.578  0.00  0.00    +0.019 A 
ATOM      6  C   UNL     1      11.754   6.580  21.041  0.00  0.00    +0.002 A 
ATOM      7  C   UNL     1      11.138   6.574  21.589  0.00  0.00    +0.011 A 
ENDBRANCH   8   5
BRANCH  11  13
ATOM     13  C   UNL     1      13.469   7.807  18.206  0.00  0.00    +0.160 C 
ATOM     14  C   UNL     1      13.299   7.387  17.517  0.00  0.00    +0.167 C 
ATOM     15  O   UNL     1      13.538   7.682  16.784  0.00  0.00    -0.350 OA
ATOM     16  C   UNL     1      13.947   8.398  16.742  0.00  0.00    +0.161 C 
ATOM     17  C   UNL     1      14.116   8.818  17.431  0.00  0.00    +0.121 C 
ATOM     18  N   UNL     1      13.877   8.522  18.163  0.00  0.00    -0.207 NA
ENDBRANCH  11  13
TORSDOF 2
ENDMDL
