MODEL 1
REMARK VINA RESULT:     -10.7      0.000      0.000
REMARK  Name = 
REMARK  3 active torsions:
REMARK  status: ('A' for Active; 'I' for Inactive)
REMARK    1  A    between atoms: C_7  and  C_8
REMARK    2  A    between atoms: N_10  and  C_11
REMARK    3  A    between atoms: C_17  and  C_18
REMARK                            x       y       z     vdW  Elec       q    Type
REMARK                         _______ _______ _______ _____ _____    ______ ____
ROOT
ATOM     11  C   UNL     1      -4.366   1.446  24.529  0.00  0.00    +0.133 C 
ATOM     12  C   UNL     1      -5.068   1.719  24.866  0.00  0.00    +0.202 C 
ATOM     13  O   UNL     1      -5.709   1.253  25.095  0.00  0.00    -0.219 OA
ATOM     14  C   UNL     1      -5.016   2.539  24.934  0.00  0.00    +0.184 C 
ATOM     15  O   UNL     1      -5.596   3.038  25.243  0.00  0.00    -0.220 OA
ATOM     16  C   UNL     1      -4.282   2.773  24.639  0.00  0.00    +0.042 C 
ATOM     17  C   UNL     1      -3.880   2.098  24.389  0.00  0.00    +0.049 C 
ENDROOT
BRANCH  17  18
ATOM     18  C   UNL     1      -3.125   2.077  24.056  0.00  0.00    -0.002 A 
ATOM     19  C   UNL     1      -3.037   1.993  23.240  0.00  0.00    -0.001 A 
ATOM     20  C   UNL     1      -2.282   1.972  22.908  0.00  0.00    +0.020 A 
ATOM     21  C   UNL     1      -1.617   2.035  23.390  0.00  0.00    +0.099 A 
ATOM     22  N   UNL     1      -1.706   2.119  24.207  0.00  0.00    -0.243 NA
ATOM     23  C   UNL     1      -2.460   2.140  24.539  0.00  0.00    +0.095 A 
ENDBRANCH  17  18
BRANCH  11  10
ATOM      8  C   UNL     1      -4.257   0.084  24.949  0.00  0.00    +0.282 C 
ATOM      9  O   UNL     1      -4.516   0.296  25.703  0.00  0.00    -0.267 OA
ATOM     10  N   UNL     1      -4.183   0.659  24.362  0.00  0.00    -0.199 NA
BRANCH   8   7
ATOM      1  C   UNL     1      -3.230  -0.994  25.951  0.00  0.00    +0.154 C 
ATOM      2  N   UNL     1      -3.601  -1.198  25.243  0.00  0.00    -0.245 N 
ATOM      3  N   UNL     1      -3.565  -1.934  24.871  0.00  0.00    -0.173 NA
ATOM      4  C   UNL     1      -4.015  -1.892  24.181  0.00  0.00    +0.081 A 
ATOM      5  C   UNL     1      -4.131  -2.505  23.640  0.00  0.00    +0.054 C 
ATOM      6  C   UNL     1      -4.329  -1.131  24.127  0.00  0.00    +0.040 A 
ATOM      7  C   UNL     1      -4.074  -0.702  24.782  0.00  0.00    +0.134 A 
ENDBRANCH   8   7
ENDBRANCH  11  10
TORSDOF 3
ENDMDL
MODEL 2
REMARK VINA RESULT:     -10.4      1.093      3.390
REMARK  Name = 
REMARK  3 active torsions:
REMARK  status: ('A' for Active; 'I' for Inactive)
REMARK    1  A    between atoms: C_7  and  C_8
REMARK    2  A    between atoms: N_10  and  C_11
REMARK    3  A    between atoms: C_17  and  C_18
REMARK                            x       y       z     vdW  Elec       q    Type
REMARK                         _______ _______ _______ _____ _____    ______ ____
ROOT
ATOM     11  C   UNL     1      -4.093   1.434  24.986  0.00  0.00    +0.133 C 
ATOM     12  C   UNL     1      -4.624   2.065  25.019  0.00  0.00    +0.202 C 
ATOM     13  O   UNL     1      -4.425   2.863  25.085  0.00  0.00    -0.219 OA
ATOM     14  C   UNL     1      -5.388   1.757  24.973  0.00  0.00    +0.184 C 
ATOM     15  O   UNL     1      -6.088   2.194  24.986  0.00  0.00    -0.220 OA
ATOM     16  C   UNL     1      -5.329   0.936  24.913  0.00  0.00    +0.042 C 
ATOM     17  C   UNL     1      -4.529   0.736  24.921  0.00  0.00    +0.049 C 
ENDROOT
BRANCH  17  18
ATOM     18  C   UNL     1      -4.219  -0.026  24.872  0.00  0.00    -0.002 A 
ATOM     19  C   UNL     1      -4.224  -0.428  24.151  0.00  0.00    -0.001 A 
ATOM     20  C   UNL     1      -3.914  -1.191  24.102  0.00  0.00    +0.020 A 
ATOM     21  C   UNL     1      -3.599  -1.552  24.773  0.00  0.00    +0.099 A 
ATOM     22  N   UNL     1      -3.593  -1.150  25.494  0.00  0.00    -0.243 NA
ATOM     23  C   UNL     1      -3.903  -0.387  25.543  0.00  0.00    +0.095 A 
ENDBRANCH  17  18
BRANCH  11  10
ATOM      8  C   UNL     1      -2.874   2.008  24.508  0.00  0.00    +0.282 C 
ATOM      9  O   UNL     1      -3.301   2.468  23.973  0.00  0.00    -0.267 OA
ATOM     10  N   UNL     1      -3.270   1.491  25.015  0.00  0.00    -0.199 NA
BRANCH   8   7
ATOM      1  C   UNL     1      -1.760   1.871  23.108  0.00  0.00    +0.154 C 
ATOM      2  N   UNL     1      -1.540   2.001  23.892  0.00  0.00    -0.245 N 
ATOM      3  N   UNL     1      -0.769   2.092  24.170  0.00  0.00    -0.173 NA
ATOM      4  C   UNL     1      -0.804   2.211  24.985  0.00  0.00    +0.081 A 
ATOM      5  C   UNL     1      -0.160   2.327  25.488  0.00  0.00    +0.054 C 
ATOM      6  C   UNL     1      -1.598   2.194  25.211  0.00  0.00    +0.040 A 
ATOM      7  C   UNL     1      -2.052   2.064  24.536  0.00  0.00    +0.134 A 
ENDBRANCH   8   7
ENDBRANCH  11  10
TORSDOF 3
ENDMDL
MODEL 3
REMARK VINA RESULT:      -9.8      1.406      2.340
REMARK  Name = 
REMARK  3 active torsions:
REMARK  status: ('A' for Active; 'I' for Inactive)
REMARK    1  A    between atoms: C_7  and  C_8
REMARK    2  A    between atoms: N_10  and  C_11
REMARK    3  A    between atoms: C_17  and  C_18
REMARK                            x       y       z     vdW  Elec       q    Type
REMARK                         _______ _______ _______ _____ _____    ______ ____
ROOT
ATOM     11  C   UNL     1      -3.491   1.498  24.183  0.00  0.00    +0.133 C 
ATOM     12  C   UNL     1      -2.785   1.766  23.852  0.00  0.00    +0.202 C 
ATOM     13  O   UNL     1      -2.206   1.297  23.498  0.00  0.00    -0.219 OA
ATOM     14  C   UNL     1      -2.759   2.586  23.938  0.00  0.00    +0.184 C 
ATOM     15  O   UNL     1      -2.149   3.081  23.684  0.00  0.00    -0.220 OA
ATOM     16  C   UNL     1      -3.450   2.824  24.321  0.00  0.00    +0.042 C 
ATOM     17  C   UNL     1      -3.902   2.152  24.473  0.00  0.00    +0.049 C 
ENDROOT
BRANCH  17  18
ATOM     18  C   UNL     1      -4.637   2.135  24.848  0.00  0.00    -0.002 A 
ATOM     19  C   UNL     1      -5.316   1.949  24.417  0.00  0.00    -0.001 A 
ATOM     20  C   UNL     1      -6.050   1.933  24.792  0.00  0.00    +0.020 A 
ATOM     21  C   UNL     1      -6.106   2.103  25.597  0.00  0.00    +0.099 A 
ATOM     22  N   UNL     1      -5.427   2.289  26.028  0.00  0.00    -0.243 NA
ATOM     23  C   UNL     1      -4.693   2.305  25.653  0.00  0.00    +0.095 A 
ENDBRANCH  17  18
BRANCH  11  10
ATOM      8  C   UNL     1      -3.251   0.135  24.542  0.00  0.00    +0.282 C 
ATOM      9  O   UNL     1      -2.507   0.343  24.831  0.00  0.00    -0.267 OA
ATOM     10  N   UNL     1      -3.743   0.713  24.217  0.00  0.00    -0.199 NA
BRANCH   8   7
ATOM      1  C   UNL     1      -3.180  -0.932  25.983  0.00  0.00    +0.154 C 
ATOM      2  N   UNL     1      -3.470  -1.140  25.239  0.00  0.00    -0.245 N 
ATOM      3  N   UNL     1      -3.778  -1.875  25.027  0.00  0.00    -0.173 NA
ATOM      4  C   UNL     1      -4.000  -1.839  24.234  0.00  0.00    +0.081 A 
ATOM      5  C   UNL     1      -4.335  -2.453  23.796  0.00  0.00    +0.054 C 
ATOM      6  C   UNL     1      -3.830  -1.081  23.956  0.00  0.00    +0.040 A 
ATOM      7  C   UNL     1      -3.502  -0.649  24.576  0.00  0.00    +0.134 A 
ENDBRANCH   8   7
ENDBRANCH  11  10
TORSDOF 3
ENDMDL
MODEL 4
REMARK VINA RESULT:      -9.7      1.696      3.781
REMARK  Name = 
REMARK  3 active torsions:
REMARK  status: ('A' for Active; 'I' for Inactive)
REMARK    1  A    between atoms: C_7  and  C_8
REMARK    2  A    between atoms: N_10  and  C_11
REMARK    3  A    between atoms: C_17  and  C_18
REMARK                            x       y       z     vdW  Elec       q    Type
REMARK                         _______ _______ _______ _____ _____    ______ ____
ROOT
ATOM     11  C   UNL     1      -3.467  -1.015  24.581  0.00  0.00    +0.133 C 
ATOM     12  C   UNL     1      -4.044  -1.516  24.270  0.00  0.00    +0.202 C 
ATOM     13  O   UNL     1      -4.805  -1.295  24.040  0.00  0.00    -0.219 OA
ATOM     14  C   UNL     1      -3.726  -2.276  24.228  0.00  0.00    +0.184 C 
ATOM     15  O   UNL     1      -4.113  -2.949  23.950  0.00  0.00    -0.220 OA
ATOM     16  C   UNL     1      -2.952  -2.245  24.514  0.00  0.00    +0.042 C 
ATOM     17  C   UNL     1      -2.792  -1.465  24.732  0.00  0.00    +0.049 C 
ENDROOT
BRANCH  17  18
ATOM     18  C   UNL     1      -2.083  -1.185  25.046  0.00  0.00    -0.002 A 
ATOM     19  C   UNL     1      -2.042  -0.965  25.841  0.00  0.00    -0.001 A 
ATOM     20  C   UNL     1      -1.332  -0.685  26.154  0.00  0.00    +0.020 A 
ATOM     21  C   UNL     1      -0.664  -0.625  25.675  0.00  0.00    +0.099 A 
ATOM     22  N   UNL     1      -0.705  -0.845  24.880  0.00  0.00    -0.243 NA
ATOM     23  C   UNL     1      -1.415  -1.125  24.566  0.00  0.00    +0.095 A 
ENDBRANCH  17  18
BRANCH  11  10
ATOM      8  C   UNL     1      -3.775   0.296  24.102  0.00  0.00    +0.282 C 
ATOM      9  O   UNL     1      -3.916  -0.012  23.350  0.00  0.00    -0.267 OA
ATOM     10  N   UNL     1      -3.550  -0.206  24.717  0.00  0.00    -0.199 NA
BRANCH   8   7
ATOM      1  C   UNL     1      -2.976   1.609  23.174  0.00  0.00    +0.154 C 
ATOM      2  N   UNL     1      -3.491   1.709  23.812  0.00  0.00    -0.245 N 
ATOM      3  N   UNL     1      -3.728   2.430  24.134  0.00  0.00    -0.173 NA
ATOM      4  C   UNL     1      -4.242   2.272  24.760  0.00  0.00    +0.081 A 
ATOM      5  C   UNL     1      -4.611   2.834  25.238  0.00  0.00    +0.054 C 
ATOM      6  C   UNL     1      -4.322   1.453  24.824  0.00  0.00    +0.040 A 
ATOM      7  C   UNL     1      -3.858   1.105  24.238  0.00  0.00    +0.134 A 
ENDBRANCH   8   7
ENDBRANCH  11  10
TORSDOF 3
ENDMDL
MODEL 5
REMARK VINA RESULT:      -9.7      1.349      1.921
REMARK  Name = 
REMARK  3 active torsions:
REMARK  status: ('A' for Active; 'I' for Inactive)
REMARK    1  A    between atoms: C_7  and  C_8
REMARK    2  A    between atoms: N_10  and  C_11
REMARK    3  A    between atoms: C_17  and  C_18
REMARK                            x       y       z     vdW  Elec       q    Type
REMARK                         _______ _______ _______ _____ _____    ______ ____
ROOT
ATOM     11  C   UNL     1      -4.309   2.665  25.442  0.00  0.00    +0.133 C 
ATOM     12  C   UNL     1      -5.110   2.839  25.525  0.00  0.00    +0.202 C 
ATOM     13  O   UNL     1      -5.724   2.289  25.573  0.00  0.00    -0.219 OA
ATOM     14  C   UNL     1      -5.192   3.659  25.552  0.00  0.00    +0.184 C 
ATOM     15  O   UNL     1      -5.901   4.074  25.632  0.00  0.00    -0.220 OA
ATOM     16  C   UNL     1      -4.440   3.993  25.486  0.00  0.00    +0.042 C 
ATOM     17  C   UNL     1      -3.893   3.378  25.418  0.00  0.00    +0.049 C 
ENDROOT
BRANCH  17  18
ATOM     18  C   UNL     1      -3.077   3.461  25.339  0.00  0.00    -0.002 A 
ATOM     19  C   UNL     1      -2.586   3.352  25.994  0.00  0.00    -0.001 A 
ATOM     20  C   UNL     1      -1.770   3.436  25.916  0.00  0.00    +0.020 A 
ATOM     21  C   UNL     1      -1.443   3.628  25.183  0.00  0.00    +0.099 A 
ATOM     22  N   UNL     1      -1.933   3.737  24.528  0.00  0.00    -0.243 NA
ATOM     23  C   UNL     1      -2.750   3.654  24.607  0.00  0.00    +0.095 A 
ENDBRANCH  17  18
BRANCH  11  10
ATOM      8  C   UNL     1      -4.278   1.364  24.851  0.00  0.00    +0.282 C 
ATOM      9  O   UNL     1      -4.908   1.572  24.361  0.00  0.00    -0.267 OA
ATOM     10  N   UNL     1      -3.978   1.911  25.392  0.00  0.00    -0.199 NA
BRANCH   8   7
ATOM      1  C   UNL     1      -3.457   0.666  23.416  0.00  0.00    +0.154 C 
ATOM      2  N   UNL     1      -3.571   0.289  24.141  0.00  0.00    -0.245 N 
ATOM      3  N   UNL     1      -3.327  -0.475  24.333  0.00  0.00    -0.173 NA
ATOM      4  C   UNL     1      -3.554  -0.627  25.111  0.00  0.00    +0.081 A 
ATOM      5  C   UNL     1      -3.421  -1.326  25.528  0.00  0.00    +0.054 C 
ATOM      6  C   UNL     1      -3.938   0.044  25.400  0.00  0.00    +0.040 A 
ATOM      7  C   UNL     1      -3.949   0.610  24.801  0.00  0.00    +0.134 A 
ENDBRANCH   8   7
ENDBRANCH  11  10
TORSDOF 3
ENDMDL
MODEL 6
REMARK VINA RESULT:      -9.7      2.768      3.555
REMARK  Name = 
REMARK  3 active torsions:
REMARK  status: ('A' for Active; 'I' for Inactive)
REMARK    1  A    between atoms: C_7  and  C_8
REMARK    2  A    between atoms: N_10  and  C_11
REMARK    3  A    between atoms: C_17  and  C_18
REMARK                            x       y       z     vdW  Elec       q    Type
REMARK                         _______ _______ _______ _____ _____    ______ ____
ROOT
ATOM     11  C   UNL     1      -1.901   3.201  25.205  0.00  0.00    +0.133 C 
ATOM     12  C   UNL     1      -1.304   3.757  25.330  0.00  0.00    +0.202 C 
ATOM     13  O   UNL     1      -0.522   3.592  25.534  0.00  0.00    -0.219 OA
ATOM     14  C   UNL     1      -1.628   4.507  25.215  0.00  0.00    +0.184 C 
ATOM     15  O   UNL     1      -1.225   5.224  25.285  0.00  0.00    -0.220 OA
ATOM     16  C   UNL     1      -2.424   4.415  25.019  0.00  0.00    +0.042 C 
ATOM     17  C   UNL     1      -2.593   3.607  25.013  0.00  0.00    +0.049 C 
ENDROOT
BRANCH  17  18
ATOM     18  C   UNL     1      -3.324   3.266  24.844  0.00  0.00    -0.002 A 
ATOM     19  C   UNL     1      -3.832   3.053  25.459  0.00  0.00    -0.001 A 
ATOM     20  C   UNL     1      -4.564   2.712  25.290  0.00  0.00    +0.020 A 
ATOM     21  C   UNL     1      -4.788   2.584  24.508  0.00  0.00    +0.099 A 
ATOM     22  N   UNL     1      -4.281   2.796  23.892  0.00  0.00    -0.243 NA
ATOM     23  C   UNL     1      -3.549   3.137  24.061  0.00  0.00    +0.095 A 
ENDBRANCH  17  18
BRANCH  11  10
ATOM      8  C   UNL     1      -1.216   1.997  24.852  0.00  0.00    +0.282 C 
ATOM      9  O   UNL     1      -0.693   2.432  24.385  0.00  0.00    -0.267 OA
ATOM     10  N   UNL     1      -1.820   2.382  25.262  0.00  0.00    -0.199 NA
BRANCH   8   7
ATOM      1  C   UNL     1      -0.801   0.883  23.507  0.00  0.00    +0.154 C 
ATOM      2  N   UNL     1      -0.944   0.666  24.290  0.00  0.00    -0.245 N 
ATOM      3  N   UNL     1      -0.921  -0.100  24.593  0.00  0.00    -0.173 NA
ATOM      4  C   UNL     1      -1.097  -0.062  25.397  0.00  0.00    +0.081 A 
ATOM      5  C   UNL     1      -1.136  -0.703  25.916  0.00  0.00    +0.054 C 
ATOM      6  C   UNL     1      -1.229   0.728  25.592  0.00  0.00    +0.040 A 
ATOM      7  C   UNL     1      -1.134   1.179  24.908  0.00  0.00    +0.134 A 
ENDBRANCH   8   7
ENDBRANCH  11  10
TORSDOF 3
ENDMDL
MODEL 7
REMARK VINA RESULT:      -9.6      1.885      3.701
REMARK  Name = 
REMARK  3 active torsions:
REMARK  status: ('A' for Active; 'I' for Inactive)
REMARK    1  A    between atoms: C_7  and  C_8
REMARK    2  A    between atoms: N_10  and  C_11
REMARK    3  A    between atoms: C_17  and  C_18
REMARK                            x       y       z     vdW  Elec       q    Type
REMARK                         _______ _______ _______ _____ _____    ______ ____
ROOT
ATOM     11  C   UNL     1      -2.860   0.580  24.908  0.00  0.00    +0.133 C 
ATOM     12  C   UNL     1      -2.927  -0.231  25.044  0.00  0.00    +0.202 C 
ATOM     13  O   UNL     1      -2.374  -0.705  25.431  0.00  0.00    -0.219 OA
ATOM     14  C   UNL     1      -3.644  -0.483  24.724  0.00  0.00    +0.184 C 
ATOM     15  O   UNL     1      -3.935  -1.256  24.736  0.00  0.00    -0.220 OA
ATOM     16  C   UNL     1      -4.020   0.171  24.391  0.00  0.00    +0.042 C 
ATOM     17  C   UNL     1      -3.535   0.829  24.505  0.00  0.00    +0.049 C 
ENDROOT
BRANCH  17  18
ATOM     18  C   UNL     1      -3.697   1.599  24.258  0.00  0.00    -0.002 A 
ATOM     19  C   UNL     1      -4.051   2.133  24.780  0.00  0.00    -0.001 A 
ATOM     20  C   UNL     1      -4.213   2.903  24.533  0.00  0.00    +0.020 A 
ATOM     21  C   UNL     1      -4.022   3.140  23.767  0.00  0.00    +0.099 A 
ATOM     22  N   UNL     1      -3.668   2.607  23.246  0.00  0.00    -0.243 NA
ATOM     23  C   UNL     1      -3.506   1.837  23.492  0.00  0.00    +0.095 A 
ENDBRANCH  17  18
BRANCH  11  10
ATOM      8  C   UNL     1      -1.458   0.858  24.917  0.00  0.00    +0.282 C 
ATOM      9  O   UNL     1      -1.320   0.178  24.470  0.00  0.00    -0.267 OA
ATOM     10  N   UNL     1      -2.227   1.059  25.135  0.00  0.00    -0.199 NA
BRANCH   8   7
ATOM      1  C   UNL     1       0.007   1.205  23.939  0.00  0.00    +0.154 C 
ATOM      2  N   UNL     1      -0.152   1.496  24.695  0.00  0.00    -0.245 N 
ATOM      3  N   UNL     1       0.334   1.998  25.133  0.00  0.00    -0.173 NA
ATOM      4  C   UNL     1      -0.039   2.149  25.853  0.00  0.00    +0.081 A 
ATOM      5  C   UNL     1       0.253   2.625  26.461  0.00  0.00    +0.054 C 
ATOM      6  C   UNL     1      -0.756   1.740  25.859  0.00  0.00    +0.040 A 
ATOM      7  C   UNL     1      -0.826   1.337  25.144  0.00  0.00    +0.134 A 
ENDBRANCH   8   7
ENDBRANCH  11  10
TORSDOF 3
ENDMDL
MODEL 8
REMARK VINA RESULT:      -9.6      2.264      4.505
REMARK  Name = 
REMARK  3 active torsions:
REMARK  status: ('A' for Active; 'I' for Inactive)
REMARK    1  A    between atoms: C_7  and  C_8
REMARK    2  A    between atoms: N_10  and  C_11
REMARK    3  A    between atoms: C_17  and  C_18
REMARK                            x       y       z     vdW  Elec       q    Type
REMARK                         _______ _______ _______ _____ _____    ______ ____
ROOT
ATOM     11  C   UNL     1      -1.329   0.309  24.628  0.00  0.00    +0.133 C 
ATOM     12  C   UNL     1      -0.560   0.307  24.330  0.00  0.00    +0.202 C 
ATOM     13  O   UNL     1      -0.087   0.971  24.204  0.00  0.00    -0.219 OA
ATOM     14  C   UNL     1      -0.347  -0.476  24.180  0.00  0.00    +0.184 C 
ATOM     15  O   UNL     1       0.377  -0.732  23.877  0.00  0.00    -0.220 OA
ATOM     16  C   UNL     1      -0.985  -0.958  24.386  0.00  0.00    +0.042 C 
ATOM     17  C   UNL     1      -1.592  -0.473  24.663  0.00  0.00    +0.049 C 
ENDROOT
BRANCH  17  18
ATOM     18  C   UNL     1      -2.331  -0.724  24.929  0.00  0.00    -0.002 A 
ATOM     19  C   UNL     1      -2.910  -0.948  24.384  0.00  0.00    -0.001 A 
ATOM     20  C   UNL     1      -3.649  -1.200  24.650  0.00  0.00    +0.020 A 
ATOM     21  C   UNL     1      -3.810  -1.228  25.458  0.00  0.00    +0.099 A 
ATOM     22  N   UNL     1      -3.231  -1.004  26.002  0.00  0.00    -0.243 NA
ATOM     23  C   UNL     1      -2.492  -0.752  25.737  0.00  0.00    +0.095 A 
ENDBRANCH  17  18
BRANCH  11  10
ATOM      8  C   UNL     1      -1.840   1.610  24.332  0.00  0.00    +0.282 C 
ATOM      9  O   UNL     1      -1.488   1.578  23.586  0.00  0.00    -0.267 OA
ATOM     10  N   UNL     1      -1.760   0.976  24.853  0.00  0.00    -0.199 NA
BRANCH   8   7
ATOM      1  C   UNL     1      -3.185   2.356  23.407  0.00  0.00    +0.154 C 
ATOM      2  N   UNL     1      -2.889   2.620  24.131  0.00  0.00    -0.245 N 
ATOM      3  N   UNL     1      -3.160   3.272  24.557  0.00  0.00    -0.173 NA
ATOM      4  C   UNL     1      -2.709   3.332  25.244  0.00  0.00    +0.081 A 
ATOM      5  C   UNL     1      -2.793   3.908  25.831  0.00  0.00    +0.054 C 
ATOM      6  C   UNL     1      -2.160   2.717  25.244  0.00  0.00    +0.040 A 
ATOM      7  C   UNL     1      -2.271   2.277  24.556  0.00  0.00    +0.134 A 
ENDBRANCH   8   7
ENDBRANCH  11  10
TORSDOF 3
ENDMDL
MODEL 9
REMARK VINA RESULT:      -9.6      2.792      3.820
REMARK  Name = 
REMARK  3 active torsions:
REMARK  status: ('A' for Active; 'I' for Inactive)
REMARK    1  A    between atoms: C_7  and  C_8
REMARK    2  A    between atoms: N_10  and  C_11
REMARK    3  A    between atoms: C_17  and  C_18
REMARK                            x       y       z     vdW  Elec       q    Type
REMARK                         _______ _______ _______ _____ _____    ______ ____
ROOT
ATOM     11  C   UNL     1      -1.955   3.616  25.163  0.00  0.00    +0.133 C 
ATOM     12  C   UNL     1      -1.879   4.437  25.184  0.00  0.00    +0.202 C 
ATOM     13  O   UNL     1      -2.493   4.979  25.280  0.00  0.00    -0.219 OA
ATOM     14  C   UNL     1      -1.080   4.621  25.093  0.00  0.00    +0.184 C 
ATOM     15  O   UNL     1      -0.755   5.379  25.082  0.00  0.00    -0.220 OA
ATOM     16  C   UNL     1      -0.662   3.913  25.016  0.00  0.00    +0.042 C 
ATOM     17  C   UNL     1      -1.204   3.292  25.059  0.00  0.00    +0.049 C 
ENDROOT
BRANCH  17  18
ATOM     18  C   UNL     1      -1.025   2.488  25.007  0.00  0.00    -0.002 A 
ATOM     19  C   UNL     1      -0.997   2.027  25.691  0.00  0.00    -0.001 A 
ATOM     20  C   UNL     1      -0.818   1.224  25.639  0.00  0.00    +0.020 A 
ATOM     21  C   UNL     1      -0.667   0.881  24.904  0.00  0.00    +0.099 A 
ATOM     22  N   UNL     1      -0.695   1.343  24.220  0.00  0.00    -0.243 NA
ATOM     23  C   UNL     1      -0.874   2.146  24.272  0.00  0.00    +0.095 A 
ENDBRANCH  17  18
BRANCH  11  10
ATOM      8  C   UNL     1      -3.310   3.392  24.766  0.00  0.00    +0.282 C 
ATOM      9  O   UNL     1      -3.255   4.015  24.228  0.00  0.00    -0.267 OA
ATOM     10  N   UNL     1      -2.660   3.193  25.234  0.00  0.00    -0.199 NA
BRANCH   8   7
ATOM      1  C   UNL     1      -4.136   2.492  23.451  0.00  0.00    +0.154 C 
ATOM      2  N   UNL     1      -4.394   2.555  24.231  0.00  0.00    -0.245 N 
ATOM      3  N   UNL     1      -5.077   2.216  24.545  0.00  0.00    -0.173 NA
ATOM      4  C   UNL     1      -5.120   2.419  25.343  0.00  0.00    +0.081 A 
ATOM      5  C   UNL     1      -5.715   2.197  25.869  0.00  0.00    +0.054 C 
ATOM      6  C   UNL     1      -4.463   2.885  25.523  0.00  0.00    +0.040 A 
ATOM      7  C   UNL     1      -4.014   2.969  24.836  0.00  0.00    +0.134 A 
ENDBRANCH   8   7
ENDBRANCH  11  10
TORSDOF 3
ENDMDL
