MODEL 1
REMARK VINA RESULT:     -11.7      0.000      0.000
REMARK  Name = 
REMARK  7 active torsions:
REMARK  status: ('A' for Active; 'I' for Inactive)
REMARK    1  A    between atoms: N_2  and  C_4
REMARK    2  A    between atoms: C_8  and  O_9
REMARK    3  A    between atoms: O_9  and  C_10
REMARK    4  A    between atoms: N_14  and  C_15
REMARK    5  A    between atoms: C_19  and  N_23
REMARK    6  A    between atoms: N_26  and  C_27
REMARK    7  A    between atoms: C_29  and  C_33
REMARK                            x       y       z     vdW  Elec       q    Type
REMARK                         _______ _______ _______ _____ _____    ______ ____
ROOT
ATOM     15  C   UNL     1      -0.635   1.062  24.909  0.00  0.00    +0.170 C 
ATOM     16  C   UNL     1      -0.489   1.181  25.712  0.00  0.00    +0.169 C 
ATOM     17  O   UNL     1      -0.837   1.896  25.930  0.00  0.00    -0.350 OA
ATOM     18  C   UNL     1      -1.199   2.218  25.264  0.00  0.00    +0.167 C 
ATOM     19  C   UNL     1      -1.638   2.859  24.985  0.00  0.00    +0.156 C 
ATOM     20  C   UNL     1      -1.785   2.739  24.183  0.00  0.00    +0.166 C 
ATOM     21  O   UNL     1      -1.436   2.025  23.964  0.00  0.00    -0.350 OA
ATOM     22  C   UNL     1      -1.074   1.702  24.632  0.00  0.00    +0.169 C 
ENDROOT
BRANCH  15  14
ATOM     10  C   UNL     1      -0.668  -0.358  24.528  0.00  0.00    +0.343 A 
ATOM     11  N   UNL     1      -0.268  -0.824  23.977  0.00  0.00    -0.071 NA
ATOM     12  N   UNL     1       0.262  -0.339  23.570  0.00  0.00    -0.020 NA
ATOM     13  N   UNL     1       0.189   0.426  23.870  0.00  0.00    -0.040 NA
ATOM     14  N   UNL     1      -0.386   0.414  24.462  0.00  0.00    -0.180 N 
BRANCH  10   9
ATOM      9  O   UNL     1      -1.249  -0.619  25.053  0.00  0.00    -0.421 OA
BRANCH   9   8
ATOM      4  C   UNL     1      -3.013  -1.732  24.414  0.00  0.00    +0.051 A 
ATOM      5  C   UNL     1      -2.724  -2.505  24.426  0.00  0.00    +0.015 A 
ATOM      6  C   UNL     1      -1.942  -2.649  24.647  0.00  0.00    +0.004 A 
ATOM      7  C   UNL     1      -1.451  -2.020  24.856  0.00  0.00    +0.038 A 
ATOM      8  C   UNL     1      -1.740  -1.248  24.844  0.00  0.00    +0.150 A 
ATOM     35  C   UNL     1      -2.522  -1.104  24.623  0.00  0.00    +0.052 A 
BRANCH   4   2
ATOM      1  C   UNL     1      -4.241  -2.186  23.839  0.00  0.00    +0.112 C 
ATOM      2  N   UNL     1      -3.796  -1.588  24.193  0.00  0.00    -0.304 N 
ATOM      3  C   UNL     1      -4.132  -0.847  24.326  0.00  0.00    +0.112 C 
ENDBRANCH   4   2
ENDBRANCH   9   8
ENDBRANCH  10   9
ENDBRANCH  15  14
BRANCH  19  23
ATOM     23  N   UNL     1      -1.887   3.506  25.433  0.00  0.00    -0.184 NA
ATOM     24  C   UNL     1      -2.693   3.644  25.546  0.00  0.00    +0.344 C 
ATOM     25  O   UNL     1      -2.942   4.291  25.993  0.00  0.00    -0.249 OA
ATOM     26  N   UNL     1      -3.250   3.135  25.212  0.00  0.00    -0.161 NA
BRANCH  26  27
ATOM     27  C   UNL     1      -4.055   3.274  25.325  0.00  0.00    +0.076 A 
ATOM     28  C   UNL     1      -4.548   2.659  25.570  0.00  0.00    +0.027 A 
ATOM     29  C   UNL     1      -5.354   2.797  25.683  0.00  0.00    +0.070 A 
ATOM     30  C   UNL     1      -5.666   3.550  25.550  0.00  0.00    +0.010 A 
ATOM     31  C   UNL     1      -5.173   4.164  25.305  0.00  0.00    +0.002 A 
ATOM     32  C   UNL     1      -4.367   4.025  25.192  0.00  0.00    +0.017 A 
BRANCH  29  33
ATOM     33  C   UNL     1      -5.847   2.184  25.928  0.00  0.00    +0.100 C 
ATOM     34  N   UNL     1      -6.342   1.570  26.173  0.00  0.00    -0.191 NA
ENDBRANCH  29  33
ENDBRANCH  26  27
ENDBRANCH  19  23
TORSDOF 7
ENDMDL
MODEL 2
REMARK VINA RESULT:     -11.5      0.770      4.736
REMARK  Name = 
REMARK  7 active torsions:
REMARK  status: ('A' for Active; 'I' for Inactive)
REMARK    1  A    between atoms: N_2  and  C_4
REMARK    2  A    between atoms: C_8  and  O_9
REMARK    3  A    between atoms: O_9  and  C_10
REMARK    4  A    between atoms: N_14  and  C_15
REMARK    5  A    between atoms: C_19  and  N_23
REMARK    6  A    between atoms: N_26  and  C_27
REMARK    7  A    between atoms: C_29  and  C_33
REMARK                            x       y       z     vdW  Elec       q    Type
REMARK                         _______ _______ _______ _____ _____    ______ ____
ROOT
ATOM     15  C   UNL     1      -1.454   2.841  24.604  0.00  0.00    +0.170 C 
ATOM     16  C   UNL     1      -1.327   2.782  23.791  0.00  0.00    +0.169 C 
ATOM     17  O   UNL     1      -0.975   2.051  23.642  0.00  0.00    -0.350 OA
ATOM     18  C   UNL     1      -0.885   1.659  24.361  0.00  0.00    +0.167 C 
ATOM     19  C   UNL     1      -0.612   0.965  24.714  0.00  0.00    +0.156 C 
ATOM     20  C   UNL     1      -0.739   1.025  25.527  0.00  0.00    +0.166 C 
ATOM     21  O   UNL     1      -1.091   1.755  25.677  0.00  0.00    -0.350 OA
ATOM     22  C   UNL     1      -1.181   2.147  24.956  0.00  0.00    +0.169 C 
ENDROOT
BRANCH  15  14
ATOM     10  C   UNL     1      -2.588   3.707  24.959  0.00  0.00    +0.343 A 
ATOM     11  N   UNL     1      -2.686   4.375  25.434  0.00  0.00    -0.071 NA
ATOM     12  N   UNL     1      -1.953   4.563  25.764  0.00  0.00    -0.020 NA
ATOM     13  N   UNL     1      -1.403   4.011  25.493  0.00  0.00    -0.040 NA
ATOM     14  N   UNL     1      -1.795   3.482  24.996  0.00  0.00    -0.180 N 
BRANCH  10   9
ATOM      9  O   UNL     1      -3.179   3.330  24.524  0.00  0.00    -0.421 OA
BRANCH   9   8
ATOM      4  C   UNL     1      -5.087   2.495  25.177  0.00  0.00    +0.051 A 
ATOM      5  C   UNL     1      -5.476   3.175  25.435  0.00  0.00    +0.015 A 
ATOM      6  C   UNL     1      -5.098   3.908  25.390  0.00  0.00    +0.004 A 
ATOM      7  C   UNL     1      -4.333   3.959  25.086  0.00  0.00    +0.038 A 
ATOM      8  C   UNL     1      -3.945   3.279  24.828  0.00  0.00    +0.150 A 
ATOM     35  C   UNL     1      -4.322   2.547  24.873  0.00  0.00    +0.052 A 
BRANCH   4   2
ATOM      1  C   UNL     1      -6.269   1.702  25.052  0.00  0.00    +0.112 C 
ATOM      2  N   UNL     1      -5.464   1.762  25.222  0.00  0.00    -0.304 N 
ATOM      3  C   UNL     1      -5.036   1.091  25.437  0.00  0.00    +0.112 C 
ENDBRANCH   4   2
ENDBRANCH   9   8
ENDBRANCH  10   9
ENDBRANCH  15  14
BRANCH  19  23
ATOM     23  N   UNL     1      -0.271   0.324  24.323  0.00  0.00    -0.184 NA
ATOM     24  C   UNL     1      -0.655  -0.406  24.314  0.00  0.00    +0.344 C 
ATOM     25  O   UNL     1      -0.314  -1.047  23.922  0.00  0.00    -0.249 OA
ATOM     26  N   UNL     1      -1.381  -0.495  24.696  0.00  0.00    -0.161 NA
BRANCH  26  27
ATOM     27  C   UNL     1      -1.765  -1.225  24.688  0.00  0.00    +0.076 A 
ATOM     28  C   UNL     1      -2.536  -1.281  24.398  0.00  0.00    +0.027 A 
ATOM     29  C   UNL     1      -2.920  -2.011  24.389  0.00  0.00    +0.070 A 
ATOM     30  C   UNL     1      -2.534  -2.685  24.670  0.00  0.00    +0.010 A 
ATOM     31  C   UNL     1      -1.764  -2.628  24.959  0.00  0.00    +0.002 A 
ATOM     32  C   UNL     1      -1.379  -1.897  24.968  0.00  0.00    +0.017 A 
BRANCH  29  33
ATOM     33  C   UNL     1      -3.691  -2.069  24.100  0.00  0.00    +0.100 C 
ATOM     34  N   UNL     1      -4.461  -2.127  23.810  0.00  0.00    -0.191 NA
ENDBRANCH  29  33
ENDBRANCH  26  27
ENDBRANCH  19  23
TORSDOF 7
ENDMDL
MODEL 3
REMARK VINA RESULT:     -11.0      1.550      5.524
REMARK  Name = 
REMARK  7 active torsions:
REMARK  status: ('A' for Active; 'I' for Inactive)
REMARK    1  A    between atoms: N_2  and  C_4
REMARK    2  A    between atoms: C_8  and  O_9
REMARK    3  A    between atoms: O_9  and  C_10
REMARK    4  A    between atoms: N_14  and  C_15
REMARK    5  A    between atoms: C_19  and  N_23
REMARK    6  A    between atoms: N_26  and  C_27
REMARK    7  A    between atoms: C_29  and  C_33
REMARK                            x       y       z     vdW  Elec       q    Type
REMARK                         _______ _______ _______ _____ _____    ______ ____
ROOT
ATOM     15  C   UNL     1      -4.244   2.462  24.745  0.00  0.00    +0.170 C 
ATOM     16  C   UNL     1      -4.313   2.453  23.923  0.00  0.00    +0.169 C 
ATOM     17  O   UNL     1      -4.469   1.677  23.689  0.00  0.00    -0.350 OA
ATOM     18  C   UNL     1      -4.496   1.207  24.365  0.00  0.00    +0.167 C 
ATOM     19  C   UNL     1      -4.608   0.437  24.640  0.00  0.00    +0.156 C 
ATOM     20  C   UNL     1      -4.539   0.446  25.462  0.00  0.00    +0.166 C 
ATOM     21  O   UNL     1      -4.384   1.222  25.696  0.00  0.00    -0.350 OA
ATOM     22  C   UNL     1      -4.357   1.692  25.018  0.00  0.00    +0.169 C 
ENDROOT
BRANCH  15  14
ATOM     10  C   UNL     1      -3.416   3.599  25.170  0.00  0.00    +0.343 A 
ATOM     11  N   UNL     1      -3.491   4.197  25.734  0.00  0.00    -0.071 NA
ATOM     12  N   UNL     1      -4.211   4.092  26.124  0.00  0.00    -0.020 NA
ATOM     13  N   UNL     1      -4.581   3.429  25.800  0.00  0.00    -0.040 NA
ATOM     14  N   UNL     1      -4.089   3.125  25.211  0.00  0.00    -0.180 N 
BRANCH  10   9
ATOM      9  O   UNL     1      -2.780   3.495  24.656  0.00  0.00    -0.421 OA
BRANCH   9   8
ATOM      4  C   UNL     1      -0.730   3.312  25.382  0.00  0.00    +0.051 A 
ATOM      5  C   UNL     1      -0.492   4.102  25.382  0.00  0.00    +0.015 A 
ATOM      6  C   UNL     1      -1.017   4.690  25.138  0.00  0.00    +0.004 A 
ATOM      7  C   UNL     1      -1.780   4.488  24.897  0.00  0.00    +0.038 A 
ATOM      8  C   UNL     1      -2.017   3.698  24.898  0.00  0.00    +0.150 A 
ATOM     35  C   UNL     1      -1.492   3.110  25.141  0.00  0.00    +0.052 A 
BRANCH   4   2
ATOM      1  C   UNL     1      -0.075   2.594  26.430  0.00  0.00    +0.112 C 
ATOM      2  N   UNL     1      -0.205   2.723  25.626  0.00  0.00    -0.304 N 
ATOM      3  C   UNL     1       0.190   2.266  25.065  0.00  0.00    +0.112 C 
ENDBRANCH   4   2
ENDBRANCH   9   8
ENDBRANCH  10   9
ENDBRANCH  15  14
BRANCH  19  23
ATOM     23  N   UNL     1      -4.763  -0.226  24.174  0.00  0.00    -0.184 NA
ATOM     24  C   UNL     1      -4.243  -0.867  24.182  0.00  0.00    +0.344 C 
ATOM     25  O   UNL     1      -4.398  -1.530  23.716  0.00  0.00    -0.249 OA
ATOM     26  N   UNL     1      -3.569  -0.845  24.657  0.00  0.00    -0.161 NA
BRANCH  26  27
ATOM     27  C   UNL     1      -3.049  -1.486  24.665  0.00  0.00    +0.076 A 
ATOM     28  C   UNL     1      -2.237  -1.357  24.736  0.00  0.00    +0.027 A 
ATOM     29  C   UNL     1      -1.718  -1.998  24.745  0.00  0.00    +0.070 A 
ATOM     30  C   UNL     1      -2.010  -2.767  24.682  0.00  0.00    +0.010 A 
ATOM     31  C   UNL     1      -2.822  -2.896  24.610  0.00  0.00    +0.002 A 
ATOM     32  C   UNL     1      -3.342  -2.254  24.602  0.00  0.00    +0.017 A 
BRANCH  29  33
ATOM     33  C   UNL     1      -0.906  -1.870  24.816  0.00  0.00    +0.100 C 
ATOM     34  N   UNL     1      -0.094  -1.742  24.886  0.00  0.00    -0.191 NA
ENDBRANCH  29  33
ENDBRANCH  26  27
ENDBRANCH  19  23
TORSDOF 7
ENDMDL
MODEL 4
REMARK VINA RESULT:     -10.7      1.401      3.369
REMARK  Name = 
REMARK  7 active torsions:
REMARK  status: ('A' for Active; 'I' for Inactive)
REMARK    1  A    between atoms: N_2  and  C_4
REMARK    2  A    between atoms: C_8  and  O_9
REMARK    3  A    between atoms: O_9  and  C_10
REMARK    4  A    between atoms: N_14  and  C_15
REMARK    5  A    between atoms: C_19  and  N_23
REMARK    6  A    between atoms: N_26  and  C_27
REMARK    7  A    between atoms: C_29  and  C_33
REMARK                            x       y       z     vdW  Elec       q    Type
REMARK                         _______ _______ _______ _____ _____    ______ ____
ROOT
ATOM     15  C   UNL     1      -4.210  -0.143  24.718  0.00  0.00    +0.170 C 
ATOM     16  C   UNL     1      -4.635  -0.026  25.415  0.00  0.00    +0.169 C 
ATOM     17  O   UNL     1      -4.846   0.770  25.454  0.00  0.00    -0.350 OA
ATOM     18  C   UNL     1      -4.552   1.145  24.782  0.00  0.00    +0.167 C 
ATOM     19  C   UNL     1      -4.500   1.869  24.389  0.00  0.00    +0.156 C 
ATOM     20  C   UNL     1      -4.074   1.752  23.692  0.00  0.00    +0.166 C 
ATOM     21  O   UNL     1      -3.863   0.956  23.654  0.00  0.00    -0.350 OA
ATOM     22  C   UNL     1      -4.158   0.581  24.327  0.00  0.00    +0.169 C 
ENDROOT
BRANCH  15  14
ATOM     10  C   UNL     1      -3.153  -1.163  24.663  0.00  0.00    +0.343 A 
ATOM     11  N   UNL     1      -3.060  -1.889  24.280  0.00  0.00    -0.071 NA
ATOM     12  N   UNL     1      -3.743  -2.032  23.838  0.00  0.00    -0.020 NA
ATOM     13  N   UNL     1      -4.256  -1.396  23.949  0.00  0.00    -0.040 NA
ATOM     14  N   UNL     1      -3.891  -0.859  24.459  0.00  0.00    -0.180 N 
BRANCH  10   9
ATOM      9  O   UNL     1      -2.602  -0.806  25.163  0.00  0.00    -0.421 OA
BRANCH   9   8
ATOM      4  C   UNL     1      -0.545  -0.554  24.480  0.00  0.00    +0.051 A 
ATOM      5  C   UNL     1      -0.183  -1.209  24.827  0.00  0.00    +0.015 A 
ATOM      6  C   UNL     1      -0.628  -1.730  25.287  0.00  0.00    +0.004 A 
ATOM      7  C   UNL     1      -1.434  -1.595  25.399  0.00  0.00    +0.038 A 
ATOM      8  C   UNL     1      -1.796  -0.941  25.052  0.00  0.00    +0.150 A 
ATOM     35  C   UNL     1      -1.351  -0.420  24.592  0.00  0.00    +0.052 A 
BRANCH   4   2
ATOM      1  C   UNL     1      -0.142   0.780  24.160  0.00  0.00    +0.112 C 
ATOM      2  N   UNL     1      -0.100  -0.032  24.020  0.00  0.00    -0.304 N 
ATOM      3  C   UNL     1       0.386  -0.323  23.421  0.00  0.00    +0.112 C 
ENDBRANCH   4   2
ENDBRANCH   9   8
ENDBRANCH  10   9
ENDBRANCH  15  14
BRANCH  19  23
ATOM     23  N   UNL     1      -4.818   2.585  24.649  0.00  0.00    -0.184 NA
ATOM     24  C   UNL     1      -4.325   3.165  24.966  0.00  0.00    +0.344 C 
ATOM     25  O   UNL     1      -4.643   3.881  25.225  0.00  0.00    -0.249 OA
ATOM     26  N   UNL     1      -3.513   3.030  25.023  0.00  0.00    -0.161 NA
BRANCH  26  27
ATOM     27  C   UNL     1      -3.020   3.610  25.340  0.00  0.00    +0.076 A 
ATOM     28  C   UNL     1      -2.334   3.833  24.938  0.00  0.00    +0.027 A 
ATOM     29  C   UNL     1      -1.840   4.413  25.255  0.00  0.00    +0.070 A 
ATOM     30  C   UNL     1      -2.033   4.770  25.974  0.00  0.00    +0.010 A 
ATOM     31  C   UNL     1      -2.718   4.548  26.376  0.00  0.00    +0.002 A 
ATOM     32  C   UNL     1      -3.212   3.967  26.058  0.00  0.00    +0.017 A 
BRANCH  29  33
ATOM     33  C   UNL     1      -1.155   4.636  24.854  0.00  0.00    +0.100 C 
ATOM     34  N   UNL     1      -0.469   4.859  24.454  0.00  0.00    -0.191 NA
ENDBRANCH  29  33
ENDBRANCH  26  27
ENDBRANCH  19  23
TORSDOF 7
ENDMDL
MODEL 5
REMARK VINA RESULT:     -10.6      1.043      1.622
REMARK  Name = 
REMARK  7 active torsions:
REMARK  status: ('A' for Active; 'I' for Inactive)
REMARK    1  A    between atoms: N_2  and  C_4
REMARK    2  A    between atoms: C_8  and  O_9
REMARK    3  A    between atoms: O_9  and  C_10
REMARK    4  A    between atoms: N_14  and  C_15
REMARK    5  A    between atoms: C_19  and  N_23
REMARK    6  A    between atoms: N_26  and  C_27
REMARK    7  A    between atoms: C_29  and  C_33
REMARK                            x       y       z     vdW  Elec       q    Type
REMARK                         _______ _______ _______ _____ _____    ______ ____
ROOT
ATOM     15  C   UNL     1      -0.541   0.571  24.246  0.00  0.00    +0.170 C 
ATOM     16  C   UNL     1      -0.711   0.917  23.517  0.00  0.00    +0.169 C 
ATOM     17  O   UNL     1      -0.715   1.735  23.618  0.00  0.00    -0.350 OA
ATOM     18  C   UNL     1      -0.546   1.896  24.408  0.00  0.00    +0.167 C 
ATOM     19  C   UNL     1      -0.444   2.500  24.961  0.00  0.00    +0.156 C 
ATOM     20  C   UNL     1      -0.273   2.155  25.690  0.00  0.00    +0.166 C 
ATOM     21  O   UNL     1      -0.270   1.336  25.589  0.00  0.00    -0.350 OA
ATOM     22  C   UNL     1      -0.439   1.176  24.797  0.00  0.00    +0.169 C 
ENDROOT
BRANCH  15  14
ATOM     10  C   UNL     1      -1.112  -0.750  24.543  0.00  0.00    +0.343 A 
ATOM     11  N   UNL     1      -0.803  -1.506  24.665  0.00  0.00    -0.071 NA
ATOM     12  N   UNL     1       0.019  -1.460  24.594  0.00  0.00    -0.020 NA
ATOM     13  N   UNL     1       0.217  -0.676  24.428  0.00  0.00    -0.040 NA
ATOM     14  N   UNL     1      -0.482  -0.238  24.397  0.00  0.00    -0.180 N 
BRANCH  10   9
ATOM      9  O   UNL     1      -1.910  -0.544  24.564  0.00  0.00    -0.421 OA
BRANCH   9   8
ATOM      4  C   UNL     1      -3.434  -2.100  24.689  0.00  0.00    +0.051 A 
ATOM      5  C   UNL     1      -3.570  -2.122  25.503  0.00  0.00    +0.015 A 
ATOM      6  C   UNL     1      -3.152  -1.617  26.004  0.00  0.00    +0.004 A 
ATOM      7  C   UNL     1      -2.599  -1.091  25.690  0.00  0.00    +0.038 A 
ATOM      8  C   UNL     1      -2.464  -1.070  24.877  0.00  0.00    +0.150 A 
ATOM     35  C   UNL     1      -2.882  -1.575  24.376  0.00  0.00    +0.052 A 
BRANCH   4   2
ATOM      1  C   UNL     1      -4.435  -2.302  23.688  0.00  0.00    +0.112 C 
ATOM      2  N   UNL     1      -3.853  -2.606  24.188  0.00  0.00    -0.304 N 
ATOM      3  C   UNL     1      -3.689  -3.414  24.187  0.00  0.00    +0.112 C 
ENDBRANCH   4   2
ENDBRANCH   9   8
ENDBRANCH  10   9
ENDBRANCH  15  14
BRANCH  19  23
ATOM     23  N   UNL     1      -0.502   3.310  24.810  0.00  0.00    -0.184 NA
ATOM     24  C   UNL     1      -1.179   3.724  25.036  0.00  0.00    +0.344 C 
ATOM     25  O   UNL     1      -1.238   4.533  24.884  0.00  0.00    -0.249 OA
ATOM     26  N   UNL     1      -1.798   3.329  25.413  0.00  0.00    -0.161 NA
BRANCH  26  27
ATOM     27  C   UNL     1      -2.475   3.743  25.639  0.00  0.00    +0.076 A 
ATOM     28  C   UNL     1      -3.221   3.445  25.453  0.00  0.00    +0.027 A 
ATOM     29  C   UNL     1      -3.898   3.859  25.679  0.00  0.00    +0.070 A 
ATOM     30  C   UNL     1      -3.828   4.571  26.090  0.00  0.00    +0.010 A 
ATOM     31  C   UNL     1      -3.081   4.869  26.276  0.00  0.00    +0.002 A 
ATOM     32  C   UNL     1      -2.404   4.455  26.049  0.00  0.00    +0.017 A 
BRANCH  29  33
ATOM     33  C   UNL     1      -4.645   3.562  25.494  0.00  0.00    +0.100 C 
ATOM     34  N   UNL     1      -5.392   3.263  25.310  0.00  0.00    -0.191 NA
ENDBRANCH  29  33
ENDBRANCH  26  27
ENDBRANCH  19  23
TORSDOF 7
ENDMDL
MODEL 6
REMARK VINA RESULT:     -10.4      1.462      2.300
REMARK  Name = 
REMARK  7 active torsions:
REMARK  status: ('A' for Active; 'I' for Inactive)
REMARK    1  A    between atoms: N_2  and  C_4
REMARK    2  A    between atoms: C_8  and  O_9
REMARK    3  A    between atoms: O_9  and  C_10
REMARK    4  A    between atoms: N_14  and  C_15
REMARK    5  A    between atoms: C_19  and  N_23
REMARK    6  A    between atoms: N_26  and  C_27
REMARK    7  A    between atoms: C_29  and  C_33
REMARK                            x       y       z     vdW  Elec       q    Type
REMARK                         _______ _______ _______ _____ _____    ______ ____
ROOT
ATOM     15  C   UNL     1      -0.363  -0.440  24.401  0.00  0.00    +0.170 C 
ATOM     16  C   UNL     1      -0.139  -0.288  23.622  0.00  0.00    +0.169 C 
ATOM     17  O   UNL     1       0.010   0.520  23.552  0.00  0.00    -0.350 OA
ATOM     18  C   UNL     1      -0.122   0.868  24.288  0.00  0.00    +0.167 C 
ATOM     19  C   UNL     1      -0.112   1.582  24.700  0.00  0.00    +0.156 C 
ATOM     20  C   UNL     1      -0.336   1.431  25.480  0.00  0.00    +0.166 C 
ATOM     21  O   UNL     1      -0.485   0.623  25.549  0.00  0.00    -0.350 OA
ATOM     22  C   UNL     1      -0.353   0.275  24.812  0.00  0.00    +0.169 C 
ENDROOT
BRANCH  15  14
ATOM     10  C   UNL     1      -1.237  -1.614  24.530  0.00  0.00    +0.343 A 
ATOM     11  N   UNL     1      -1.214  -2.314  24.968  0.00  0.00    -0.071 NA
ATOM     12  N   UNL     1      -0.525  -2.308  25.421  0.00  0.00    -0.020 NA
ATOM     13  N   UNL     1      -0.122  -1.606  25.264  0.00  0.00    -0.040 NA
ATOM     14  N   UNL     1      -0.563  -1.177  24.713  0.00  0.00    -0.180 N 
BRANCH  10   9
ATOM      9  O   UNL     1      -1.831  -1.392  24.002  0.00  0.00    -0.421 OA
BRANCH   9   8
ATOM      4  C   UNL     1      -3.865  -0.942  24.651  0.00  0.00    +0.051 A 
ATOM      5  C   UNL     1      -4.209  -1.691  24.619  0.00  0.00    +0.015 A 
ATOM      6  C   UNL     1      -3.760  -2.341  24.382  0.00  0.00    +0.004 A 
ATOM      7  C   UNL     1      -2.967  -2.241  24.176  0.00  0.00    +0.038 A 
ATOM      8  C   UNL     1      -2.624  -1.492  24.208  0.00  0.00    +0.150 A 
ATOM     35  C   UNL     1      -3.073  -0.843  24.446  0.00  0.00    +0.052 A 
BRANCH   4   2
ATOM      1  C   UNL     1      -4.765   0.123  24.336  0.00  0.00    +0.112 C 
ATOM      2  N   UNL     1      -4.315  -0.291  24.889  0.00  0.00    -0.304 N 
ATOM      3  C   UNL     1      -4.313  -0.057  25.679  0.00  0.00    +0.112 C 
ENDBRANCH   4   2
ENDBRANCH   9   8
ENDBRANCH  10   9
ENDBRANCH  15  14
BRANCH  19  23
ATOM     23  N   UNL     1       0.088   2.320  24.388  0.00  0.00    -0.184 NA
ATOM     24  C   UNL     1      -0.410   2.966  24.506  0.00  0.00    +0.344 C 
ATOM     25  O   UNL     1      -0.211   3.704  24.193  0.00  0.00    -0.249 OA
ATOM     26  N   UNL     1      -1.108   2.877  24.936  0.00  0.00    -0.161 NA
BRANCH  26  27
ATOM     27  C   UNL     1      -1.607   3.523  25.054  0.00  0.00    +0.076 A 
ATOM     28  C   UNL     1      -2.425   3.419  25.050  0.00  0.00    +0.027 A 
ATOM     29  C   UNL     1      -2.924   4.066  25.168  0.00  0.00    +0.070 A 
ATOM     30  C   UNL     1      -2.603   4.817  25.290  0.00  0.00    +0.010 A 
ATOM     31  C   UNL     1      -1.785   4.921  25.294  0.00  0.00    +0.002 A 
ATOM     32  C   UNL     1      -1.287   4.273  25.176  0.00  0.00    +0.017 A 
BRANCH  29  33
ATOM     33  C   UNL     1      -3.742   3.963  25.165  0.00  0.00    +0.100 C 
ATOM     34  N   UNL     1      -4.561   3.860  25.162  0.00  0.00    -0.191 NA
ENDBRANCH  29  33
ENDBRANCH  26  27
ENDBRANCH  19  23
TORSDOF 7
ENDMDL
