MODEL 1
REMARK VINA RESULT:     -10.5      0.000      0.000
REMARK  Name = 
REMARK  7 active torsions:
REMARK  status: ('A' for Active; 'I' for Inactive)
REMARK    1  A    between atoms: C_5  and  S_8
REMARK    2  A    between atoms: S_8  and  N_11
REMARK    3  A    between atoms: N_11  and  C_12
REMARK    4  A    between atoms: C_12  and  C_13
REMARK    5  A    between atoms: C_16  and  N_17
REMARK    6  A    between atoms: N_17  and  C_18
REMARK    7  A    between atoms: C_18  and  C_19
REMARK                            x       y       z     vdW  Elec       q    Type
REMARK                         _______ _______ _______ _____ _____    ______ ____
ROOT
ATOM     13  C   UNL     1      -3.937   1.786  24.671  0.00  0.00    +0.166 C 
ATOM     14  O   UNL     1      -4.561   1.618  25.183  0.00  0.00    -0.350 OA
ATOM     15  C   UNL     1      -4.740   0.817  25.113  0.00  0.00    +0.162 C 
ATOM     16  C   UNL     1      -4.227   0.488  24.557  0.00  0.00    +0.135 C 
ATOM     26  C   UNL     1      -3.730   1.087  24.283  0.00  0.00    +0.199 C 
ATOM     27  O   UNL     1      -3.132   1.002  23.722  0.00  0.00    -0.219 OA
ENDROOT
BRANCH  13  12
ATOM     12  C   UNL     1      -3.581   2.523  24.564  0.00  0.00    +0.148 C 
BRANCH  12  11
ATOM     11  N   UNL     1      -3.370   2.977  25.218  0.00  0.00    -0.075 NA
BRANCH  11   8
ATOM      8  S   UNL     1      -2.776   3.547  25.151  0.00  0.00    +0.077 S 
ATOM      9  O   UNL     1      -2.336   3.157  25.729  0.00  0.00    -0.152 OA
ATOM     10  O   UNL     1      -3.217   3.938  24.573  0.00  0.00    -0.152 OA
BRANCH   8   5
ATOM      1  C   UNL     1      -0.404   5.825  24.882  0.00  0.00    +0.031 C 
ATOM      2  C   UNL     1      -0.998   5.255  24.949  0.00  0.00    -0.022 A 
ATOM      3  C   UNL     1      -0.825   4.461  24.804  0.00  0.00    -0.003 A 
ATOM      4  C   UNL     1      -1.418   3.892  24.871  0.00  0.00    +0.020 A 
ATOM      5  C   UNL     1      -2.184   4.116  25.084  0.00  0.00    +0.124 A 
ATOM      6  C   UNL     1      -2.355   4.910  25.229  0.00  0.00    +0.020 A 
ATOM      7  C   UNL     1      -1.762   5.479  25.162  0.00  0.00    -0.003 A 
ENDBRANCH   8   5
ENDBRANCH  11   8
ENDBRANCH  12  11
ENDBRANCH  13  12
BRANCH  16  17
ATOM     17  N   UNL     1      -4.213  -0.301  24.316  0.00  0.00    -0.209 NA
BRANCH  17  18
ATOM     18  C   UNL     1      -4.165  -0.903  24.879  0.00  0.00    +0.117 C 
BRANCH  18  19
ATOM     19  C   UNL     1      -3.983  -1.673  24.645  0.00  0.00    +0.023 A 
ATOM     20  C   UNL     1      -4.268  -1.963  23.927  0.00  0.00    -0.001 A 
ATOM     21  C   UNL     1      -4.086  -2.733  23.692  0.00  0.00    -0.000 A 
ATOM     22  C   UNL     1      -3.619  -3.212  24.175  0.00  0.00    +0.002 A 
ATOM     23  C   UNL     1      -3.334  -2.921  24.892  0.00  0.00    +0.029 A 
ATOM     24  C   UNL     1      -3.516  -2.152  25.127  0.00  0.00    +0.137 A 
ATOM     25  F   UNL     1      -3.230  -1.861  25.845  0.00  0.00    -0.204 F 
ENDBRANCH  18  19
ENDBRANCH  17  18
ENDBRANCH  16  17
TORSDOF 7
ENDMDL
MODEL 2
REMARK VINA RESULT:     -10.2      2.218      6.218
REMARK  Name = 
REMARK  7 active torsions:
REMARK  status: ('A' for Active; 'I' for Inactive)
REMARK    1  A    between atoms: C_5  and  S_8
REMARK    2  A    between atoms: S_8  and  N_11
REMARK    3  A    between atoms: N_11  and  C_12
REMARK    4  A    between atoms: C_12  and  C_13
REMARK    5  A    between atoms: C_16  and  N_17
REMARK    6  A    between atoms: N_17  and  C_18
REMARK    7  A    between atoms: C_18  and  C_19
REMARK                            x       y       z     vdW  Elec       q    Type
REMARK                         _______ _______ _______ _____ _____    ______ ____
ROOT
ATOM     13  C   UNL     1      -1.232   0.725  25.062  0.00  0.00    +0.166 C 
ATOM     14  O   UNL     1      -0.852   0.838  25.785  0.00  0.00    -0.350 OA
ATOM     15  C   UNL     1      -0.657   1.637  25.847  0.00  0.00    +0.162 C 
ATOM     16  C   UNL     1      -0.917   2.018  25.163  0.00  0.00    +0.135 C 
ATOM     26  C   UNL     1      -1.272   1.454  24.677  0.00  0.00    +0.199 C 
ATOM     27  O   UNL     1      -1.608   1.595  23.938  0.00  0.00    -0.219 OA
ENDROOT
BRANCH  13  12
ATOM     12  C   UNL     1      -1.522   0.008  24.773  0.00  0.00    +0.148 C 
BRANCH  12  11
ATOM     11  N   UNL     1      -1.911  -0.513  25.279  0.00  0.00    -0.075 NA
BRANCH  11   8
ATOM      8  S   UNL     1      -2.439  -1.069  24.973  0.00  0.00    +0.077 S 
ATOM      9  O   UNL     1      -1.839  -1.377  24.498  0.00  0.00    -0.152 OA
ATOM     10  O   UNL     1      -3.039  -0.761  25.448  0.00  0.00    -0.152 OA
BRANCH   8   5
ATOM      1  C   UNL     1      -4.550  -3.291  23.750  0.00  0.00    +0.031 C 
ATOM      2  C   UNL     1      -4.021  -2.735  24.056  0.00  0.00    -0.022 A 
ATOM      3  C   UNL     1      -3.368  -2.985  24.494  0.00  0.00    -0.003 A 
ATOM      4  C   UNL     1      -2.841  -2.429  24.800  0.00  0.00    +0.020 A 
ATOM      5  C   UNL     1      -2.966  -1.624  24.668  0.00  0.00    +0.124 A 
ATOM      6  C   UNL     1      -3.619  -1.376  24.229  0.00  0.00    +0.020 A 
ATOM      7  C   UNL     1      -4.147  -1.931  23.923  0.00  0.00    -0.003 A 
ENDBRANCH   8   5
ENDBRANCH  11   8
ENDBRANCH  12  11
ENDBRANCH  13  12
BRANCH  16  17
ATOM     17  N   UNL     1      -0.835   2.822  24.995  0.00  0.00    -0.209 NA
BRANCH  17  18
ATOM     18  C   UNL     1      -1.106   3.386  25.533  0.00  0.00    +0.117 C 
BRANCH  18  19
ATOM     19  C   UNL     1      -1.173   4.175  25.303  0.00  0.00    +0.023 A 
ATOM     20  C   UNL     1      -0.570   4.530  24.866  0.00  0.00    -0.001 A 
ATOM     21  C   UNL     1      -0.637   5.319  24.637  0.00  0.00    -0.000 A 
ATOM     22  C   UNL     1      -1.307   5.754  24.844  0.00  0.00    +0.002 A 
ATOM     23  C   UNL     1      -1.910   5.398  25.281  0.00  0.00    +0.029 A 
ATOM     24  C   UNL     1      -1.843   4.609  25.510  0.00  0.00    +0.137 A 
ATOM     25  F   UNL     1      -2.446   4.254  25.947  0.00  0.00    -0.204 F 
ENDBRANCH  18  19
ENDBRANCH  17  18
ENDBRANCH  16  17
TORSDOF 7
ENDMDL
MODEL 3
REMARK VINA RESULT:     -10.0      1.617      5.946
REMARK  Name = 
REMARK  7 active torsions:
REMARK  status: ('A' for Active; 'I' for Inactive)
REMARK    1  A    between atoms: C_5  and  S_8
REMARK    2  A    between atoms: S_8  and  N_11
REMARK    3  A    between atoms: N_11  and  C_12
REMARK    4  A    between atoms: C_12  and  C_13
REMARK    5  A    between atoms: C_16  and  N_17
REMARK    6  A    between atoms: N_17  and  C_18
REMARK    7  A    between atoms: C_18  and  C_19
REMARK                            x       y       z     vdW  Elec       q    Type
REMARK                         _______ _______ _______ _____ _____    ______ ____
ROOT
ATOM     13  C   UNL     1      -3.908   1.708  24.694  0.00  0.00    +0.166 C 
ATOM     14  O   UNL     1      -4.286   2.092  25.318  0.00  0.00    -0.350 OA
ATOM     15  C   UNL     1      -3.946   2.838  25.402  0.00  0.00    +0.162 C 
ATOM     16  C   UNL     1      -3.357   2.916  24.829  0.00  0.00    +0.135 C 
ATOM     26  C   UNL     1      -3.334   2.218  24.392  0.00  0.00    +0.199 C 
ATOM     27  O   UNL     1      -2.826   2.057  23.763  0.00  0.00    -0.219 OA
ENDROOT
BRANCH  13  12
ATOM     12  C   UNL     1      -4.075   0.948  24.420  0.00  0.00    +0.148 C 
BRANCH  12  11
ATOM     11  N   UNL     1      -4.335   0.368  24.945  0.00  0.00    -0.075 NA
BRANCH  11   8
ATOM      8  S   UNL     1      -4.167  -0.427  24.799  0.00  0.00    +0.077 S 
ATOM      9  O   UNL     1      -4.436  -0.342  24.023  0.00  0.00    -0.152 OA
ATOM     10  O   UNL     1      -3.898  -0.512  25.574  0.00  0.00    -0.152 OA
BRANCH   8   5
ATOM      1  C   UNL     1      -3.493  -3.604  24.215  0.00  0.00    +0.031 C 
ATOM      2  C   UNL     1      -3.661  -2.809  24.361  0.00  0.00    -0.022 A 
ATOM      3  C   UNL     1      -3.351  -2.438  25.029  0.00  0.00    -0.003 A 
ATOM      4  C   UNL     1      -3.519  -1.644  25.175  0.00  0.00    +0.020 A 
ATOM      5  C   UNL     1      -3.998  -1.220  24.653  0.00  0.00    +0.124 A 
ATOM      6  C   UNL     1      -4.308  -1.592  23.985  0.00  0.00    +0.020 A 
ATOM      7  C   UNL     1      -4.140  -2.387  23.839  0.00  0.00    -0.003 A 
ENDBRANCH   8   5
ENDBRANCH  11   8
ENDBRANCH  12  11
ENDBRANCH  13  12
BRANCH  16  17
ATOM     17  N   UNL     1      -2.876   3.577  24.715  0.00  0.00    -0.209 NA
BRANCH  17  18
ATOM     18  C   UNL     1      -2.302   3.771  25.275  0.00  0.00    +0.117 C 
BRANCH  18  19
ATOM     19  C   UNL     1      -1.786   4.400  25.135  0.00  0.00    +0.023 A 
ATOM     20  C   UNL     1      -2.087   5.156  24.997  0.00  0.00    -0.001 A 
ATOM     21  C   UNL     1      -1.571   5.785  24.857  0.00  0.00    -0.000 A 
ATOM     22  C   UNL     1      -0.756   5.658  24.855  0.00  0.00    +0.002 A 
ATOM     23  C   UNL     1      -0.456   4.901  24.994  0.00  0.00    +0.029 A 
ATOM     24  C   UNL     1      -0.972   4.273  25.134  0.00  0.00    +0.137 A 
ATOM     25  F   UNL     1      -0.672   3.517  25.272  0.00  0.00    -0.204 F 
ENDBRANCH  18  19
ENDBRANCH  17  18
ENDBRANCH  16  17
TORSDOF 7
ENDMDL
MODEL 4
REMARK VINA RESULT:      -9.7      1.706      2.001
REMARK  Name = 
REMARK  7 active torsions:
REMARK  status: ('A' for Active; 'I' for Inactive)
REMARK    1  A    between atoms: C_5  and  S_8
REMARK    2  A    between atoms: S_8  and  N_11
REMARK    3  A    between atoms: N_11  and  C_12
REMARK    4  A    between atoms: C_12  and  C_13
REMARK    5  A    between atoms: C_16  and  N_17
REMARK    6  A    between atoms: N_17  and  C_18
REMARK    7  A    between atoms: C_18  and  C_19
REMARK                            x       y       z     vdW  Elec       q    Type
REMARK                         _______ _______ _______ _____ _____    ______ ____
ROOT
ATOM     13  C   UNL     1      -1.124   0.759  25.251  0.00  0.00    +0.166 C 
ATOM     14  O   UNL     1      -1.071   0.333  25.955  0.00  0.00    -0.350 OA
ATOM     15  C   UNL     1      -1.443  -0.394  25.841  0.00  0.00    +0.162 C 
ATOM     16  C   UNL     1      -1.725  -0.418  25.066  0.00  0.00    +0.135 C 
ATOM     26  C   UNL     1      -1.529   0.295  24.701  0.00  0.00    +0.199 C 
ATOM     27  O   UNL     1      -1.705   0.507  23.924  0.00  0.00    -0.219 OA
ENDROOT
BRANCH  13  12
ATOM     12  C   UNL     1      -0.825   1.517  25.119  0.00  0.00    +0.148 C 
BRANCH  12  11
ATOM     11  N   UNL     1      -0.840   2.077  25.724  0.00  0.00    -0.075 NA
BRANCH  11   8
ATOM      8  S   UNL     1      -0.957   2.875  25.545  0.00  0.00    +0.077 S 
ATOM      9  O   UNL     1      -1.603   2.895  26.058  0.00  0.00    -0.152 OA
ATOM     10  O   UNL     1      -0.311   2.854  25.032  0.00  0.00    -0.152 OA
BRANCH   8   5
ATOM      1  C   UNL     1      -1.422   6.063  24.831  0.00  0.00    +0.031 C 
ATOM      2  C   UNL     1      -1.306   5.265  25.009  0.00  0.00    -0.022 A 
ATOM      3  C   UNL     1      -0.598   4.895  24.801  0.00  0.00    -0.003 A 
ATOM      4  C   UNL     1      -0.482   4.098  24.980  0.00  0.00    +0.020 A 
ATOM      5  C   UNL     1      -1.073   3.671  25.367  0.00  0.00    +0.124 A 
ATOM      6  C   UNL     1      -1.780   4.041  25.574  0.00  0.00    +0.020 A 
ATOM      7  C   UNL     1      -1.896   4.838  25.396  0.00  0.00    -0.003 A 
ENDBRANCH   8   5
ENDBRANCH  11   8
ENDBRANCH  12  11
ENDBRANCH  13  12
BRANCH  16  17
ATOM     17  N   UNL     1      -2.133  -1.045  24.717  0.00  0.00    -0.209 NA
BRANCH  17  18
ATOM     18  C   UNL     1      -2.913  -1.204  24.937  0.00  0.00    +0.117 C 
BRANCH  18  19
ATOM     19  C   UNL     1      -3.318  -1.833  24.592  0.00  0.00    +0.023 A 
ATOM     20  C   UNL     1      -2.996  -2.593  24.615  0.00  0.00    -0.001 A 
ATOM     21  C   UNL     1      -3.401  -3.223  24.270  0.00  0.00    -0.000 A 
ATOM     22  C   UNL     1      -4.129  -3.094  23.902  0.00  0.00    +0.002 A 
ATOM     23  C   UNL     1      -4.450  -2.334  23.880  0.00  0.00    +0.029 A 
ATOM     24  C   UNL     1      -4.045  -1.705  24.225  0.00  0.00    +0.137 A 
ATOM     25  F   UNL     1      -4.367  -0.945  24.202  0.00  0.00    -0.204 F 
ENDBRANCH  18  19
ENDBRANCH  17  18
ENDBRANCH  16  17
TORSDOF 7
ENDMDL
MODEL 5
REMARK VINA RESULT:      -9.0      3.913      5.380
REMARK  Name = 
REMARK  7 active torsions:
REMARK  status: ('A' for Active; 'I' for Inactive)
REMARK    1  A    between atoms: C_5  and  S_8
REMARK    2  A    between atoms: S_8  and  N_11
REMARK    3  A    between atoms: N_11  and  C_12
REMARK    4  A    between atoms: C_12  and  C_13
REMARK    5  A    between atoms: C_16  and  N_17
REMARK    6  A    between atoms: N_17  and  C_18
REMARK    7  A    between atoms: C_18  and  C_19
REMARK                            x       y       z     vdW  Elec       q    Type
REMARK                         _______ _______ _______ _____ _____    ______ ____
ROOT
ATOM     13  C   UNL     1      -1.043   0.507  24.103  0.00  0.00    +0.166 C 
ATOM     14  O   UNL     1      -0.862  -0.297  24.072  0.00  0.00    -0.350 OA
ATOM     15  C   UNL     1      -0.079  -0.372  23.826  0.00  0.00    +0.162 C 
ATOM     16  C   UNL     1       0.224   0.386  23.704  0.00  0.00    +0.135 C 
ATOM     26  C   UNL     1      -0.372   0.929  23.876  0.00  0.00    +0.199 C 
ATOM     27  O   UNL     1      -0.308   1.750  23.828  0.00  0.00    -0.219 OA
ENDROOT
BRANCH  13  12
ATOM     12  C   UNL     1      -1.769   0.833  24.323  0.00  0.00    +0.148 C 
BRANCH  12  11
ATOM     11  N   UNL     1      -2.464   0.405  24.210  0.00  0.00    -0.075 NA
BRANCH  11   8
ATOM      8  S   UNL     1      -3.193   0.742  24.403  0.00  0.00    +0.077 S 
ATOM      9  O   UNL     1      -3.363   0.835  23.601  0.00  0.00    -0.152 OA
ATOM     10  O   UNL     1      -3.023   0.649  25.205  0.00  0.00    -0.152 OA
BRANCH   8   5
ATOM      1  C   UNL     1      -6.105   2.088  25.178  0.00  0.00    +0.031 C 
ATOM      2  C   UNL     1      -5.376   1.751  24.984  0.00  0.00    -0.022 A 
ATOM      3  C   UNL     1      -5.216   0.968  25.189  0.00  0.00    -0.003 A 
ATOM      4  C   UNL     1      -4.488   0.631  24.996  0.00  0.00    +0.020 A 
ATOM      5  C   UNL     1      -3.920   1.078  24.597  0.00  0.00    +0.124 A 
ATOM      6  C   UNL     1      -4.080   1.861  24.392  0.00  0.00    +0.020 A 
ATOM      7  C   UNL     1      -4.808   2.197  24.586  0.00  0.00    -0.003 A 
ENDBRANCH   8   5
ENDBRANCH  11   8
ENDBRANCH  12  11
ENDBRANCH  13  12
BRANCH  16  17
ATOM     17  N   UNL     1       0.990   0.567  23.455  0.00  0.00    -0.209 NA
BRANCH  17  18
ATOM     18  C   UNL     1       1.386   0.062  22.937  0.00  0.00    +0.117 C 
BRANCH  18  19
ATOM     19  C   UNL     1       2.162   0.227  22.713  0.00  0.00    +0.023 A 
ATOM     20  C   UNL     1       2.676   0.594  23.245  0.00  0.00    -0.001 A 
ATOM     21  C   UNL     1       3.452   0.760  23.021  0.00  0.00    -0.000 A 
ATOM     22  C   UNL     1       3.715   0.559  22.265  0.00  0.00    +0.002 A 
ATOM     23  C   UNL     1       3.202   0.192  21.733  0.00  0.00    +0.029 A 
ATOM     24  C   UNL     1       2.425   0.026  21.958  0.00  0.00    +0.137 A 
ATOM     25  F   UNL     1       1.912  -0.341  21.425  0.00  0.00    -0.204 F 
ENDBRANCH  18  19
ENDBRANCH  17  18
ENDBRANCH  16  17
TORSDOF 7
ENDMDL
