REMARK  Name = 
REMARK  2 active torsions:
REMARK  status: ('A' for Active; 'I' for Inactive)
REMARK    1  A    between atoms: C_5  and  N_6
REMARK    2  A    between atoms: N_9  and  C_10
REMARK                            x       y       z     vdW  Elec       q    Type
REMARK                         _______ _______ _______ _____ _____    ______ ____
ROOT
ATOM     10  C   UNL     1      -1.296  -1.150   0.000  0.00  0.00    +0.131 A 
ATOM     11  C   UNL     1      -1.167  -0.335   0.000  0.00  0.00    +0.023 A 
ATOM     12  C   UNL     1      -0.397  -0.039   0.000  0.00  0.00    +0.014 A 
ATOM     13  C   UNL     1       0.244  -0.558   0.000  0.00  0.00    +0.041 A 
ATOM     14  C   UNL     1       1.163  -0.557   0.000  0.00  0.00    +0.058 C 
ATOM     15  C   UNL     1       1.713  -0.121   0.000  0.00  0.00    +0.011 C 
ATOM     16  C   UNL     1       1.582  -0.925   0.000  0.00  0.00    +0.043 C 
ATOM     17  C   UNL     1       1.629  -1.912   0.000  0.00  0.00    +0.096 C 
ATOM     18  N   UNL     1       0.813  -2.091   0.000  0.00  0.00    -0.278 N 
ATOM     19  C   UNL     1       1.225  -1.510   0.000  0.00  0.00    +0.099 C 
ATOM     20  C   UNL     1       0.125  -2.547   0.000  0.00  0.00    +0.220 A 
ATOM     21  N   UNL     1       0.176  -3.370   0.000  0.00  0.00    -0.212 NA
ATOM     22  C   UNL     1      -0.512  -3.826   0.000  0.00  0.00    +0.103 A 
ATOM     23  C   UNL     1      -1.251  -3.458   0.000  0.00  0.00    +0.041 A 
ATOM     24  C   UNL     1      -1.301  -2.635   0.000  0.00  0.00    +0.103 A 
ATOM     25  N   UNL     1      -0.614  -2.179   0.000  0.00  0.00    -0.212 NA
ATOM     26  C   UNL     1       0.622  -0.936   0.000  0.00  0.00    +0.110 C 
ATOM     27  N   UNL     1       0.115  -1.373   0.000  0.00  0.00    -0.298 N 
ATOM     28  C   UNL     1      -0.655  -1.669   0.000  0.00  0.00    +0.276 A 
ATOM     29  O   UNL     1      -1.238  -2.252   0.000  0.00  0.00    -0.266 OA
ENDROOT
BRANCH  10   9
ATOM      6  N   UNL     1      -2.578  -0.111   0.000  0.00  0.00    -0.161 NA
ATOM      7  C   UNL     1      -2.707  -0.926   0.000  0.00  0.00    +0.348 C 
ATOM      8  O   UNL     1      -3.478  -1.222   0.000  0.00  0.00    -0.248 OA
ATOM      9  N   UNL     1      -2.066  -1.445   0.000  0.00  0.00    -0.156 NA
BRANCH   6   5
ATOM      1 CL   UNL     1      -5.143   1.965   0.000  0.00  0.00    -0.082 Cl
ATOM      2  C   UNL     1      -4.502   1.446   0.000  0.00  0.00    +0.058 A 
ATOM      3  C   UNL     1      -3.732   1.742   0.000  0.00  0.00    +0.013 A 
ATOM      4  C   UNL     1      -3.091   1.223   0.000  0.00  0.00    +0.018 A 
ATOM      5  C   UNL     1      -3.220   0.408   0.000  0.00  0.00    +0.075 A 
ATOM     30  C   UNL     1      -3.990   0.112   0.000  0.00  0.00    +0.018 A 
ATOM     31  C   UNL     1      -4.631   0.631   0.000  0.00  0.00    +0.013 A 
ENDBRANCH   6   5
ENDBRANCH  10   9
TORSDOF 2
