MODEL 1
REMARK VINA RESULT:     -12.9      0.000      0.000
REMARK  Name = 
REMARK  4 active torsions:
REMARK  status: ('A' for Active; 'I' for Inactive)
REMARK    1  A    between atoms: N_4  and  C_25
REMARK    2  A    between atoms: C_7  and  C_8
REMARK    3  A    between atoms: C_10  and  N_11
REMARK    4  A    between atoms: C_12  and  C_14
REMARK                            x       y       z     vdW  Elec       q    Type
REMARK                         _______ _______ _______ _____ _____    ______ ____
ROOT
ATOM      8  C   UNL     1      -3.986   2.410  25.010  0.00  0.00    +0.048 C 
ATOM      9  C   UNL     1      -3.747   1.630  25.141  0.00  0.00    +0.035 C 
ATOM     10  C   UNL     1      -4.324   1.132  24.826  0.00  0.00    +0.118 C 
ATOM     23  C   UNL     1      -4.917   1.602  24.500  0.00  0.00    -0.009 C 
ATOM     24  C   UNL     1      -4.709   2.392  24.614  0.00  0.00    -0.025 C 
ENDROOT
BRANCH   8   7
ATOM      1  C   UNL     1      -4.486   3.575  26.279  0.00  0.00    +0.054 C 
ATOM      2  C   UNL     1      -3.802   3.623  25.820  0.00  0.00    +0.077 A 
ATOM      3  N   UNL     1      -3.229   4.215  25.864  0.00  0.00    -0.170 NA
ATOM      4  N   UNL     1      -2.644   4.044  25.307  0.00  0.00    -0.234 N 
ATOM      5  C   UNL     1      -2.857   3.347  24.919  0.00  0.00    +0.058 A 
ATOM      6  C   UNL     1      -2.428   2.976  24.320  0.00  0.00    +0.052 C 
ATOM      7  C   UNL     1      -3.572   3.087  25.236  0.00  0.00    +0.010 A 
BRANCH   4  25
ATOM     25  C   UNL     1      -1.967   4.492  25.163  0.00  0.00    +0.082 A 
ATOM     26  C   UNL     1      -1.224   4.131  25.170  0.00  0.00    +0.019 A 
ATOM     27  C   UNL     1      -0.547   4.578  25.026  0.00  0.00    +0.002 A 
ATOM     28  C   UNL     1      -0.610   5.387  24.875  0.00  0.00    +0.000 A 
ATOM     29  C   UNL     1      -1.352   5.748  24.868  0.00  0.00    +0.002 A 
ATOM     30  C   UNL     1      -2.030   5.300  25.012  0.00  0.00    +0.019 A 
ENDBRANCH   4  25
ENDBRANCH   8   7
BRANCH  10  11
ATOM     11  N   UNL     1      -4.308   0.307  24.834  0.00  0.00    -0.199 NA
ATOM     12  C   UNL     1      -3.956  -0.105  24.213  0.00  0.00    +0.265 C 
ATOM     13  O   UNL     1      -3.619   0.307  23.582  0.00  0.00    -0.268 OA
BRANCH  12  14
ATOM     14  C   UNL     1      -3.941  -0.931  24.221  0.00  0.00    +0.058 A 
ATOM     15  C   UNL     1      -4.424  -1.358  23.707  0.00  0.00    +0.008 A 
ATOM     16  C   UNL     1      -4.409  -2.182  23.716  0.00  0.00    +0.040 A 
ATOM     17  C   UNL     1      -3.910  -2.581  24.239  0.00  0.00    +0.176 A 
ATOM     18  O   UNL     1      -3.777  -3.383  24.373  0.00  0.00    -0.435 OA
ATOM     19  C   UNL     1      -3.212  -3.452  24.970  0.00  0.00    +0.429 C 
ATOM     20  O   UNL     1      -2.996  -2.692  25.205  0.00  0.00    -0.435 OA
ATOM     21  C   UNL     1      -3.427  -2.153  24.754  0.00  0.00    +0.177 A 
ATOM     22  C   UNL     1      -3.442  -1.328  24.745  0.00  0.00    +0.045 A 
ENDBRANCH  12  14
ENDBRANCH  10  11
TORSDOF 4
ENDMDL
MODEL 2
REMARK VINA RESULT:     -11.8      1.795      2.499
REMARK  Name = 
REMARK  4 active torsions:
REMARK  status: ('A' for Active; 'I' for Inactive)
REMARK    1  A    between atoms: N_4  and  C_25
REMARK    2  A    between atoms: C_7  and  C_8
REMARK    3  A    between atoms: C_10  and  N_11
REMARK    4  A    between atoms: C_12  and  C_14
REMARK                            x       y       z     vdW  Elec       q    Type
REMARK                         _______ _______ _______ _____ _____    ______ ____
ROOT
ATOM      8  C   UNL     1      -0.741   1.446  24.954  0.00  0.00    +0.048 C 
ATOM      9  C   UNL     1      -1.414   0.984  24.830  0.00  0.00    +0.035 C 
ATOM     10  C   UNL     1      -1.169   0.255  24.529  0.00  0.00    +0.118 C 
ATOM     23  C   UNL     1      -0.347   0.267  24.468  0.00  0.00    -0.009 C 
ATOM     24  C   UNL     1      -0.082   1.003  24.730  0.00  0.00    -0.025 C 
ENDROOT
BRANCH   8   7
ATOM      1  C   UNL     1       0.001   1.970  26.501  0.00  0.00    +0.054 C 
ATOM      2  C   UNL     1      -0.389   2.457  25.961  0.00  0.00    +0.077 A 
ATOM      3  N   UNL     1      -0.507   3.270  26.038  0.00  0.00    -0.170 NA
ATOM      4  N   UNL     1      -0.921   3.531  25.373  0.00  0.00    -0.234 N 
ATOM      5  C   UNL     1      -1.058   2.880  24.887  0.00  0.00    +0.058 A 
ATOM      6  C   UNL     1      -1.455   2.891  24.163  0.00  0.00    +0.052 C 
ATOM      7  C   UNL     1      -0.730   2.216  25.250  0.00  0.00    +0.010 A 
BRANCH   4  25
ATOM     25  C   UNL     1      -1.155   4.308  25.223  0.00  0.00    +0.082 A 
ATOM     26  C   UNL     1      -1.903   4.566  25.458  0.00  0.00    +0.019 A 
ATOM     27  C   UNL     1      -2.137   5.343  25.307  0.00  0.00    +0.002 A 
ATOM     28  C   UNL     1      -1.625   5.861  24.921  0.00  0.00    +0.000 A 
ATOM     29  C   UNL     1      -0.877   5.603  24.686  0.00  0.00    +0.002 A 
ATOM     30  C   UNL     1      -0.643   4.826  24.837  0.00  0.00    +0.019 A 
ENDBRANCH   4  25
ENDBRANCH   8   7
BRANCH  10  11
ATOM     11  N   UNL     1      -1.662  -0.375  24.326  0.00  0.00    -0.199 NA
ATOM     12  C   UNL     1      -2.027  -0.819  24.918  0.00  0.00    +0.265 C 
ATOM     13  O   UNL     1      -1.900  -0.634  25.711  0.00  0.00    -0.268 OA
BRANCH  12  14
ATOM     14  C   UNL     1      -2.521  -1.450  24.714  0.00  0.00    +0.058 A 
ATOM     15  C   UNL     1      -2.281  -2.225  24.861  0.00  0.00    +0.008 A 
ATOM     16  C   UNL     1      -2.773  -2.854  24.658  0.00  0.00    +0.040 A 
ATOM     17  C   UNL     1      -3.506  -2.709  24.308  0.00  0.00    +0.176 A 
ATOM     18  O   UNL     1      -4.105  -3.214  24.050  0.00  0.00    -0.435 OA
ATOM     19  C   UNL     1      -4.715  -2.751  23.744  0.00  0.00    +0.429 C 
ATOM     20  O   UNL     1      -4.493  -1.960  23.813  0.00  0.00    -0.435 OA
ATOM     21  C   UNL     1      -3.746  -1.934  24.161  0.00  0.00    +0.177 A 
ATOM     22  C   UNL     1      -3.253  -1.303  24.365  0.00  0.00    +0.045 A 
ENDBRANCH  12  14
ENDBRANCH  10  11
TORSDOF 4
ENDMDL
MODEL 3
REMARK VINA RESULT:     -11.3      3.524      5.126
REMARK  Name = 
REMARK  4 active torsions:
REMARK  status: ('A' for Active; 'I' for Inactive)
REMARK    1  A    between atoms: N_4  and  C_25
REMARK    2  A    between atoms: C_7  and  C_8
REMARK    3  A    between atoms: C_10  and  N_11
REMARK    4  A    between atoms: C_12  and  C_14
REMARK                            x       y       z     vdW  Elec       q    Type
REMARK                         _______ _______ _______ _____ _____    ______ ____
ROOT
ATOM      8  C   UNL     1      -2.134  -0.079  24.780  0.00  0.00    +0.048 C 
ATOM      9  C   UNL     1      -1.610  -0.063  24.141  0.00  0.00    +0.035 C 
ATOM     10  C   UNL     1      -0.865  -0.280  24.419  0.00  0.00    +0.118 C 
ATOM     23  C   UNL     1      -0.927  -0.430  25.227  0.00  0.00    -0.009 C 
ATOM     24  C   UNL     1      -1.712  -0.306  25.451  0.00  0.00    -0.025 C 
ENDROOT
BRANCH   8   7
ATOM      1  C   UNL     1      -3.451  -1.212  24.332  0.00  0.00    +0.054 C 
ATOM      2  C   UNL     1      -3.544  -0.420  24.545  0.00  0.00    +0.077 A 
ATOM      3  N   UNL     1      -4.259  -0.010  24.589  0.00  0.00    -0.170 NA
ATOM      4  N   UNL     1      -4.095   0.764  24.822  0.00  0.00    -0.234 N 
ATOM      5  C   UNL     1      -3.279   0.832  24.922  0.00  0.00    +0.058 A 
ATOM      6  C   UNL     1      -2.875   1.514  25.153  0.00  0.00    +0.052 C 
ATOM      7  C   UNL     1      -2.939   0.101  24.751  0.00  0.00    +0.010 A 
BRANCH   4  25
ATOM     25  C   UNL     1      -4.649   1.364  24.935  0.00  0.00    +0.082 A 
ATOM     26  C   UNL     1      -4.624   2.043  24.466  0.00  0.00    +0.019 A 
ATOM     27  C   UNL     1      -5.179   2.643  24.580  0.00  0.00    +0.002 A 
ATOM     28  C   UNL     1      -5.759   2.565  25.161  0.00  0.00    +0.000 A 
ATOM     29  C   UNL     1      -5.784   1.886  25.630  0.00  0.00    +0.002 A 
ATOM     30  C   UNL     1      -5.229   1.286  25.516  0.00  0.00    +0.019 A 
ENDBRANCH   4  25
ENDBRANCH   8   7
BRANCH  10  11
ATOM     11  N   UNL     1      -0.177  -0.337  23.966  0.00  0.00    -0.199 NA
ATOM     12  C   UNL     1       0.272   0.337  23.812  0.00  0.00    +0.265 C 
ATOM     13  O   UNL     1       0.034   1.069  24.110  0.00  0.00    -0.268 OA
BRANCH  12  14
ATOM     14  C   UNL     1       0.960   0.280  23.359  0.00  0.00    +0.058 A 
ATOM     15  C   UNL     1       0.990  -0.236  22.717  0.00  0.00    +0.008 A 
ATOM     16  C   UNL     1       1.677  -0.293  22.265  0.00  0.00    +0.040 A 
ATOM     17  C   UNL     1       2.335   0.166  22.455  0.00  0.00    +0.176 A 
ATOM     18  O   UNL     1       3.083   0.228  22.113  0.00  0.00    -0.435 OA
ATOM     19  C   UNL     1       3.516   0.782  22.544  0.00  0.00    +0.429 C 
ATOM     20  O   UNL     1       3.035   1.063  23.152  0.00  0.00    -0.435 OA
ATOM     21  C   UNL     1       2.306   0.683  23.097  0.00  0.00    +0.177 A 
ATOM     22  C   UNL     1       1.618   0.740  23.550  0.00  0.00    +0.045 A 
ENDBRANCH  12  14
ENDBRANCH  10  11
TORSDOF 4
ENDMDL
MODEL 4
REMARK VINA RESULT:     -11.2      3.359      4.784
REMARK  Name = 
REMARK  4 active torsions:
REMARK  status: ('A' for Active; 'I' for Inactive)
REMARK    1  A    between atoms: N_4  and  C_25
REMARK    2  A    between atoms: C_7  and  C_8
REMARK    3  A    between atoms: C_10  and  N_11
REMARK    4  A    between atoms: C_12  and  C_14
REMARK                            x       y       z     vdW  Elec       q    Type
REMARK                         _______ _______ _______ _____ _____    ______ ____
ROOT
ATOM      8  C   UNL     1      -1.389   2.688  25.168  0.00  0.00    +0.048 C 
ATOM      9  C   UNL     1      -0.984   2.446  24.491  0.00  0.00    +0.035 C 
ATOM     10  C   UNL     1      -0.239   2.178  24.723  0.00  0.00    +0.118 C 
ATOM     23  C   UNL     1      -0.184   2.255  25.542  0.00  0.00    -0.009 C 
ATOM     24  C   UNL     1      -0.895   2.570  25.818  0.00  0.00    -0.025 C 
ENDROOT
BRANCH   8   7
ATOM      1  C   UNL     1      -1.827   4.427  25.229  0.00  0.00    +0.054 C 
ATOM      2  C   UNL     1      -2.357   3.794  25.218  0.00  0.00    +0.077 A 
ATOM      3  N   UNL     1      -3.180   3.851  25.233  0.00  0.00    -0.170 NA
ATOM      4  N   UNL     1      -3.487   3.085  25.215  0.00  0.00    -0.234 N 
ATOM      5  C   UNL     1      -2.854   2.556  25.188  0.00  0.00    +0.058 A 
ATOM      6  C   UNL     1      -2.910   1.734  25.163  0.00  0.00    +0.052 C 
ATOM      7  C   UNL     1      -2.156   2.995  25.190  0.00  0.00    +0.010 A 
BRANCH   4  25
ATOM     25  C   UNL     1      -4.287   2.883  25.221  0.00  0.00    +0.082 A 
ATOM     26  C   UNL     1      -4.619   2.491  24.576  0.00  0.00    +0.019 A 
ATOM     27  C   UNL     1      -5.419   2.289  24.582  0.00  0.00    +0.002 A 
ATOM     28  C   UNL     1      -5.887   2.480  25.234  0.00  0.00    +0.000 A 
ATOM     29  C   UNL     1      -5.555   2.872  25.880  0.00  0.00    +0.002 A 
ATOM     30  C   UNL     1      -4.755   3.074  25.873  0.00  0.00    +0.019 A 
ENDBRANCH   4  25
ENDBRANCH   8   7
BRANCH  10  11
ATOM     11  N   UNL     1       0.348   1.885  24.222  0.00  0.00    -0.199 NA
ATOM     12  C   UNL     1       0.420   1.072  24.104  0.00  0.00    +0.265 C 
ATOM     13  O   UNL     1      -0.095   0.552  24.485  0.00  0.00    -0.268 OA
BRANCH  12  14
ATOM     14  C   UNL     1       1.007   0.779  23.603  0.00  0.00    +0.058 A 
ATOM     15  C   UNL     1       0.838   0.158  23.087  0.00  0.00    +0.008 A 
ATOM     16  C   UNL     1       1.425  -0.135  22.588  0.00  0.00    +0.040 A 
ATOM     17  C   UNL     1       2.182   0.193  22.603  0.00  0.00    +0.176 A 
ATOM     18  O   UNL     1       2.867   0.022  22.178  0.00  0.00    -0.435 OA
ATOM     19  C   UNL     1       3.460   0.536  22.430  0.00  0.00    +0.429 C 
ATOM     20  O   UNL     1       3.141   1.026  23.012  0.00  0.00    -0.435 OA
ATOM     21  C   UNL     1       2.351   0.815  23.118  0.00  0.00    +0.177 A 
ATOM     22  C   UNL     1       1.764   1.108  23.619  0.00  0.00    +0.045 A 
ENDBRANCH  12  14
ENDBRANCH  10  11
TORSDOF 4
ENDMDL
MODEL 5
REMARK VINA RESULT:     -11.0      2.448      6.405
REMARK  Name = 
REMARK  4 active torsions:
REMARK  status: ('A' for Active; 'I' for Inactive)
REMARK    1  A    between atoms: N_4  and  C_25
REMARK    2  A    between atoms: C_7  and  C_8
REMARK    3  A    between atoms: C_10  and  N_11
REMARK    4  A    between atoms: C_12  and  C_14
REMARK                            x       y       z     vdW  Elec       q    Type
REMARK                         _______ _______ _______ _____ _____    ______ ____
ROOT
ATOM      8  C   UNL     1      -1.296   0.108  25.137  0.00  0.00    +0.048 C 
ATOM      9  C   UNL     1      -1.432   0.850  24.803  0.00  0.00    +0.035 C 
ATOM     10  C   UNL     1      -1.081   1.416  25.291  0.00  0.00    +0.118 C 
ATOM     23  C   UNL     1      -0.729   1.023  25.925  0.00  0.00    -0.009 C 
ATOM     24  C   UNL     1      -0.862   0.214  25.830  0.00  0.00    -0.025 C 
ENDROOT
BRANCH   8   7
ATOM      1  C   UNL     1      -0.265  -1.116  24.326  0.00  0.00    +0.054 C 
ATOM      2  C   UNL     1      -1.077  -1.177  24.458  0.00  0.00    +0.077 A 
ATOM      3  N   UNL     1      -1.557  -1.812  24.239  0.00  0.00    -0.170 NA
ATOM      4  N   UNL     1      -2.328  -1.641  24.478  0.00  0.00    -0.234 N 
ATOM      5  C   UNL     1      -2.324  -0.902  24.843  0.00  0.00    +0.058 A 
ATOM      6  C   UNL     1      -2.980  -0.517  25.164  0.00  0.00    +0.052 C 
ATOM      7  C   UNL     1      -1.551  -0.615  24.831  0.00  0.00    +0.010 A 
BRANCH   4  25
ATOM     25  C   UNL     1      -2.987  -2.126  24.370  0.00  0.00    +0.082 A 
ATOM     26  C   UNL     1      -3.044  -2.842  24.776  0.00  0.00    +0.019 A 
ATOM     27  C   UNL     1      -3.703  -3.326  24.667  0.00  0.00    +0.002 A 
ATOM     28  C   UNL     1      -4.305  -3.095  24.154  0.00  0.00    +0.000 A 
ATOM     29  C   UNL     1      -4.249  -2.379  23.748  0.00  0.00    +0.002 A 
ATOM     30  C   UNL     1      -3.590  -1.894  23.856  0.00  0.00    +0.019 A 
ENDBRANCH   4  25
ENDBRANCH   8   7
BRANCH  10  11
ATOM     11  N   UNL     1      -1.083   2.232  25.165  0.00  0.00    -0.199 NA
ATOM     12  C   UNL     1      -1.619   2.710  25.571  0.00  0.00    +0.265 C 
ATOM     13  O   UNL     1      -2.153   2.373  26.101  0.00  0.00    -0.268 OA
BRANCH  12  14
ATOM     14  C   UNL     1      -1.620   3.526  25.445  0.00  0.00    +0.058 A 
ATOM     15  C   UNL     1      -2.280   3.974  25.653  0.00  0.00    +0.008 A 
ATOM     16  C   UNL     1      -2.281   4.789  25.528  0.00  0.00    +0.040 A 
ATOM     17  C   UNL     1      -1.622   5.157  25.194  0.00  0.00    +0.176 A 
ATOM     18  O   UNL     1      -1.464   5.943  25.006  0.00  0.00    -0.435 OA
ATOM     19  C   UNL     1      -0.707   5.982  24.682  0.00  0.00    +0.429 C 
ATOM     20  O   UNL     1      -0.396   5.218  24.670  0.00  0.00    -0.435 OA
ATOM     21  C   UNL     1      -0.961   4.708  24.986  0.00  0.00    +0.177 A 
ATOM     22  C   UNL     1      -0.960   3.892  25.111  0.00  0.00    +0.045 A 
ENDBRANCH  12  14
ENDBRANCH  10  11
TORSDOF 4
ENDMDL
MODEL 6
REMARK VINA RESULT:     -11.0      1.983      5.920
REMARK  Name = 
REMARK  4 active torsions:
REMARK  status: ('A' for Active; 'I' for Inactive)
REMARK    1  A    between atoms: N_4  and  C_25
REMARK    2  A    between atoms: C_7  and  C_8
REMARK    3  A    between atoms: C_10  and  N_11
REMARK    4  A    between atoms: C_12  and  C_14
REMARK                            x       y       z     vdW  Elec       q    Type
REMARK                         _______ _______ _______ _____ _____    ______ ____
ROOT
ATOM      8  C   UNL     1      -4.224   1.422  24.546  0.00  0.00    +0.048 C 
ATOM      9  C   UNL     1      -3.508   1.829  24.611  0.00  0.00    +0.035 C 
ATOM     10  C   UNL     1      -3.637   2.607  24.371  0.00  0.00    +0.118 C 
ATOM     23  C   UNL     1      -4.430   2.681  24.158  0.00  0.00    -0.009 C 
ATOM     24  C   UNL     1      -4.793   1.948  24.267  0.00  0.00    -0.025 C 
ENDROOT
BRANCH   8   7
ATOM      1  C   UNL     1      -5.396   0.786  25.747  0.00  0.00    +0.054 C 
ATOM      2  C   UNL     1      -4.885   0.334  25.282  0.00  0.00    +0.077 A 
ATOM      3  N   UNL     1      -4.825  -0.489  25.288  0.00  0.00    -0.170 NA
ATOM      4  N   UNL     1      -4.248  -0.705  24.739  0.00  0.00    -0.234 N 
ATOM      5  C   UNL     1      -3.953  -0.016  24.394  0.00  0.00    +0.058 A 
ATOM      6  C   UNL     1      -3.366   0.024  23.815  0.00  0.00    +0.052 C 
ATOM      7  C   UNL     1      -4.347   0.626  24.730  0.00  0.00    +0.010 A 
BRANCH   4  25
ATOM     25  C   UNL     1      -4.008  -1.475  24.565  0.00  0.00    +0.082 A 
ATOM     26  C   UNL     1      -3.457  -1.855  25.048  0.00  0.00    +0.019 A 
ATOM     27  C   UNL     1      -3.218  -2.625  24.874  0.00  0.00    +0.002 A 
ATOM     28  C   UNL     1      -3.529  -3.016  24.218  0.00  0.00    +0.000 A 
ATOM     29  C   UNL     1      -4.080  -2.636  23.735  0.00  0.00    +0.002 A 
ATOM     30  C   UNL     1      -4.320  -1.866  23.909  0.00  0.00    +0.019 A 
ENDBRANCH   4  25
ENDBRANCH   8   7
BRANCH  10  11
ATOM     11  N   UNL     1      -3.070   3.207  24.347  0.00  0.00    -0.199 NA
ATOM     12  C   UNL     1      -2.831   3.575  25.045  0.00  0.00    +0.265 C 
ATOM     13  O   UNL     1      -3.159   3.345  25.767  0.00  0.00    -0.268 OA
BRANCH  12  14
ATOM     14  C   UNL     1      -2.264   4.175  25.022  0.00  0.00    +0.058 A 
ATOM     15  C   UNL     1      -2.455   4.934  25.284  0.00  0.00    +0.008 A 
ATOM     16  C   UNL     1      -1.889   5.532  25.261  0.00  0.00    +0.040 A 
ATOM     17  C   UNL     1      -1.131   5.374  24.975  0.00  0.00    +0.176 A 
ATOM     18  O   UNL     1      -0.463   5.848  24.886  0.00  0.00    -0.435 OA
ATOM     19  C   UNL     1       0.140   5.384  24.570  0.00  0.00    +0.429 C 
ATOM     20  O   UNL     1      -0.155   4.622  24.463  0.00  0.00    -0.435 OA
ATOM     21  C   UNL     1      -0.940   4.615  24.713  0.00  0.00    +0.177 A 
ATOM     22  C   UNL     1      -1.507   4.015  24.737  0.00  0.00    +0.045 A 
ENDBRANCH  12  14
ENDBRANCH  10  11
TORSDOF 4
ENDMDL
MODEL 7
REMARK VINA RESULT:     -10.3      3.149      4.983
REMARK  Name = 
REMARK  4 active torsions:
REMARK  status: ('A' for Active; 'I' for Inactive)
REMARK    1  A    between atoms: N_4  and  C_25
REMARK    2  A    between atoms: C_7  and  C_8
REMARK    3  A    between atoms: C_10  and  N_11
REMARK    4  A    between atoms: C_12  and  C_14
REMARK                            x       y       z     vdW  Elec       q    Type
REMARK                         _______ _______ _______ _____ _____    ______ ____
ROOT
ATOM      8  C   UNL     1      -1.854  -0.308  24.557  0.00  0.00    +0.048 C 
ATOM      9  C   UNL     1      -2.172   0.389  24.866  0.00  0.00    +0.035 C 
ATOM     10  C   UNL     1      -2.987   0.287  24.935  0.00  0.00    +0.118 C 
ATOM     23  C   UNL     1      -3.173  -0.471  24.670  0.00  0.00    -0.009 C 
ATOM     24  C   UNL     1      -2.472  -0.839  24.436  0.00  0.00    -0.025 C 
ENDROOT
BRANCH   8   7
ATOM      1  C   UNL     1      -0.827  -1.558  25.333  0.00  0.00    +0.054 C 
ATOM      2  C   UNL     1      -0.584  -1.022  24.754  0.00  0.00    +0.077 A 
ATOM      3  N   UNL     1       0.174  -0.967  24.432  0.00  0.00    -0.170 NA
ATOM      4  N   UNL     1       0.169  -0.357  23.875  0.00  0.00    -0.234 N 
ATOM      5  C   UNL     1      -0.591  -0.036  23.855  0.00  0.00    +0.058 A 
ATOM      6  C   UNL     1      -0.841   0.586  23.374  0.00  0.00    +0.052 C 
ATOM      7  C   UNL     1      -1.056  -0.447  24.398  0.00  0.00    +0.010 A 
BRANCH   4  25
ATOM     25  C   UNL     1       0.811  -0.112  23.420  0.00  0.00    +0.082 A 
ATOM     26  C   UNL     1       1.287   0.512  23.678  0.00  0.00    +0.019 A 
ATOM     27  C   UNL     1       1.929   0.757  23.223  0.00  0.00    +0.002 A 
ATOM     28  C   UNL     1       2.097   0.379  22.509  0.00  0.00    +0.000 A 
ATOM     29  C   UNL     1       1.622  -0.244  22.250  0.00  0.00    +0.002 A 
ATOM     30  C   UNL     1       0.980  -0.490  22.706  0.00  0.00    +0.019 A 
ENDBRANCH   4  25
ENDBRANCH   8   7
BRANCH  10  11
ATOM     11  N   UNL     1      -3.523   0.846  25.221  0.00  0.00    -0.199 NA
ATOM     12  C   UNL     1      -4.038   1.226  24.700  0.00  0.00    +0.265 C 
ATOM     13  O   UNL     1      -4.018   1.047  23.895  0.00  0.00    -0.268 OA
BRANCH  12  14
ATOM     14  C   UNL     1      -4.574   1.786  24.985  0.00  0.00    +0.058 A 
ATOM     15  C   UNL     1      -5.300   1.542  25.293  0.00  0.00    +0.008 A 
ATOM     16  C   UNL     1      -5.835   2.101  25.577  0.00  0.00    +0.040 A 
ATOM     17  C   UNL     1      -5.645   2.904  25.556  0.00  0.00    +0.176 A 
ATOM     18  O   UNL     1      -6.057   3.576  25.794  0.00  0.00    -0.435 OA
ATOM     19  C   UNL     1      -5.587   4.235  25.635  0.00  0.00    +0.429 C 
ATOM     20  O   UNL     1      -4.883   3.969  25.298  0.00  0.00    -0.435 OA
ATOM     21  C   UNL     1      -4.919   3.147  25.249  0.00  0.00    +0.177 A 
ATOM     22  C   UNL     1      -4.383   2.588  24.963  0.00  0.00    +0.045 A 
ENDBRANCH  12  14
ENDBRANCH  10  11
TORSDOF 4
ENDMDL
