MODEL 1
REMARK VINA RESULT:      -8.8      0.000      0.000
REMARK  Name = 
REMARK  7 active torsions:
REMARK  status: ('A' for Active; 'I' for Inactive)
REMARK    1  A    between atoms: N_6  and  C_7
REMARK    2  A    between atoms: C_7  and  C_8
REMARK    3  A    between atoms: C_18  and  C_19
REMARK    4  A    between atoms: C_19  and  C_20
REMARK    5  A    between atoms: C_20  and  C_21
REMARK    6  A    between atoms: N_23  and  C_24
REMARK    7  A    between atoms: C_24  and  C_25
REMARK                            x       y       z     vdW  Elec       q    Type
REMARK                         _______ _______ _______ _____ _____    ______ ____
ROOT
ATOM      1  C   UNL     1      -1.467  -0.290  24.431  0.00  0.00    +0.090 C 
ATOM      2  N   UNL     1      -1.570   0.511  24.261  0.00  0.00    -0.271 NA
ATOM      3  C   UNL     1      -2.300   0.831  24.472  0.00  0.00    +0.083 C 
ATOM      4  C   UNL     1      -2.901   0.394  24.831  0.00  0.00    +0.035 C 
ATOM      5  C   UNL     1      -3.542   0.898  24.958  0.00  0.00    +0.074 C 
ATOM      6  N   UNL     1      -3.337   1.647  24.677  0.00  0.00    -0.259 NA
ATOM     13  C   UNL     1      -2.570   1.605  24.377  0.00  0.00    +0.152 C 
ATOM     14  C   UNL     1      -2.176   2.250  24.047  0.00  0.00    +0.257 C 
ATOM     15  O   UNL     1      -2.598   2.959  24.031  0.00  0.00    -0.272 OA
ATOM     16  N   UNL     1      -1.415   2.281  23.731  0.00  0.00    -0.203 NA
ATOM     17  C   UNL     1      -0.859   1.673  23.666  0.00  0.00    +0.131 C 
ATOM     18  C   UNL     1      -0.928   0.886  23.902  0.00  0.00    +0.080 C 
ENDROOT
BRANCH   6   7
ATOM      7  C   UNL     1      -3.816   2.319  24.693  0.00  0.00    +0.139 C 
BRANCH   7   8
ATOM      8  C   UNL     1      -4.590   2.266  24.976  0.00  0.00    +0.155 A 
ATOM      9  N   UNL     1      -5.239   1.972  24.562  0.00  0.00    -0.226 NA
ATOM     10  C   UNL     1      -5.899   2.023  25.053  0.00  0.00    +0.121 A 
ATOM     11  C   UNL     1      -5.658   2.349  25.772  0.00  0.00    +0.121 A 
ATOM     12  N   UNL     1      -4.848   2.500  25.724  0.00  0.00    -0.226 NA
ENDBRANCH   7   8
ENDBRANCH   6   7
BRANCH  18  19
ATOM     19  C   UNL     1      -0.269   0.410  23.761  0.00  0.00    +0.027 C 
BRANCH  19  20
ATOM     20  C   UNL     1       0.426   0.743  23.468  0.00  0.00    +0.088 C 
BRANCH  20  21
ATOM     21  C   UNL     1       0.991   0.266  23.103  0.00  0.00    +0.242 C 
ATOM     22  O   UNL     1       0.759  -0.422  22.711  0.00  0.00    -0.273 OA
ATOM     23  N   UNL     1       1.788   0.476  23.130  0.00  0.00    -0.201 NA
BRANCH  23  24
ATOM     24  C   UNL     1       2.353  -0.002  22.765  0.00  0.00    +0.141 C 
BRANCH  24  25
ATOM     25  C   UNL     1       3.156   0.144  22.885  0.00  0.00    -0.000 A 
ATOM     26  C   UNL     1       3.487   0.857  22.639  0.00  0.00    -0.000 A 
ATOM     27  C   UNL     1       4.291   1.003  22.758  0.00  0.00    +0.029 A 
ATOM     28  C   UNL     1       4.762   0.434  23.125  0.00  0.00    +0.140 A 
ATOM     29  F   UNL     1       5.566   0.578  23.245  0.00  0.00    -0.204 F 
ATOM     30  C   UNL     1       4.431  -0.281  23.371  0.00  0.00    +0.029 A 
ATOM     31  C   UNL     1       3.628  -0.426  23.251  0.00  0.00    -0.000 A 
ENDBRANCH  24  25
ENDBRANCH  23  24
ENDBRANCH  20  21
ENDBRANCH  19  20
ENDBRANCH  18  19
TORSDOF 7
ENDMDL
MODEL 2
REMARK VINA RESULT:      -7.8      3.781      5.225
REMARK  Name = 
REMARK  7 active torsions:
REMARK  status: ('A' for Active; 'I' for Inactive)
REMARK    1  A    between atoms: N_6  and  C_7
REMARK    2  A    between atoms: C_7  and  C_8
REMARK    3  A    between atoms: C_18  and  C_19
REMARK    4  A    between atoms: C_19  and  C_20
REMARK    5  A    between atoms: C_20  and  C_21
REMARK    6  A    between atoms: N_23  and  C_24
REMARK    7  A    between atoms: C_24  and  C_25
REMARK                            x       y       z     vdW  Elec       q    Type
REMARK                         _______ _______ _______ _____ _____    ______ ____
ROOT
ATOM      1  C   UNL     1      -0.695   0.860  23.637  0.00  0.00    +0.090 C 
ATOM      2  N   UNL     1      -0.661   1.152  24.408  0.00  0.00    -0.271 NA
ATOM      3  C   UNL     1      -0.680   1.974  24.481  0.00  0.00    +0.083 C 
ATOM      4  C   UNL     1      -0.730   2.487  23.837  0.00  0.00    +0.035 C 
ATOM      5  C   UNL     1      -0.737   3.259  24.126  0.00  0.00    +0.074 C 
ATOM      6  N   UNL     1      -0.690   3.224  24.949  0.00  0.00    -0.259 NA
ATOM     13  C   UNL     1      -0.655   2.430  25.169  0.00  0.00    +0.152 C 
ATOM     14  C   UNL     1      -0.605   2.177  25.951  0.00  0.00    +0.257 C 
ATOM     15  O   UNL     1      -0.590   2.774  26.521  0.00  0.00    -0.272 OA
ATOM     16  N   UNL     1      -0.567   1.405  26.242  0.00  0.00    -0.203 NA
ATOM     17  C   UNL     1      -0.570   0.696  25.819  0.00  0.00    +0.131 C 
ATOM     18  C   UNL     1      -0.611   0.584  25.004  0.00  0.00    +0.080 C 
ENDROOT
BRANCH   6   7
ATOM      7  C   UNL     1      -0.680   3.870  25.462  0.00  0.00    +0.139 C 
BRANCH   7   8
ATOM      8  C   UNL     1      -1.019   4.586  25.230  0.00  0.00    +0.155 A 
ATOM      9  N   UNL     1      -0.650   5.178  24.791  0.00  0.00    -0.226 NA
ATOM     10  C   UNL     1      -1.190   5.792  24.686  0.00  0.00    +0.121 A 
ATOM     11  C   UNL     1      -1.894   5.579  25.060  0.00  0.00    +0.121 A 
ATOM     12  N   UNL     1      -1.789   4.833  25.396  0.00  0.00    -0.226 NA
ENDBRANCH   7   8
ENDBRANCH   6   7
BRANCH  18  19
ATOM     19  C   UNL     1      -0.603  -0.201  24.749  0.00  0.00    +0.027 C 
BRANCH  19  20
ATOM     20  C   UNL     1      -0.734  -0.812  25.287  0.00  0.00    +0.088 C 
BRANCH  20  21
ATOM     21  C   UNL     1      -1.056  -1.527  25.031  0.00  0.00    +0.242 C 
ATOM     22  O   UNL     1      -0.560  -2.167  24.870  0.00  0.00    -0.273 OA
ATOM     23  N   UNL     1      -1.871  -1.603  24.935  0.00  0.00    -0.201 NA
BRANCH  23  24
ATOM     24  C   UNL     1      -2.192  -2.318  24.679  0.00  0.00    +0.141 C 
BRANCH  24  25
ATOM     25  C   UNL     1      -2.970  -2.348  24.407  0.00  0.00    -0.000 A 
ATOM     26  C   UNL     1      -3.335  -3.076  24.277  0.00  0.00    -0.000 A 
ATOM     27  C   UNL     1      -4.113  -3.106  24.005  0.00  0.00    +0.029 A 
ATOM     28  C   UNL     1      -4.526  -2.406  23.862  0.00  0.00    +0.140 A 
ATOM     29  F   UNL     1      -5.305  -2.435  23.590  0.00  0.00    -0.204 F 
ATOM     30  C   UNL     1      -4.162  -1.677  23.991  0.00  0.00    +0.029 A 
ATOM     31  C   UNL     1      -3.383  -1.648  24.263  0.00  0.00    -0.000 A 
ENDBRANCH  24  25
ENDBRANCH  23  24
ENDBRANCH  20  21
ENDBRANCH  19  20
ENDBRANCH  18  19
TORSDOF 7
ENDMDL
MODEL 3
REMARK VINA RESULT:      -7.5      2.531      6.859
REMARK  Name = 
REMARK  7 active torsions:
REMARK  status: ('A' for Active; 'I' for Inactive)
REMARK    1  A    between atoms: N_6  and  C_7
REMARK    2  A    between atoms: C_7  and  C_8
REMARK    3  A    between atoms: C_18  and  C_19
REMARK    4  A    between atoms: C_19  and  C_20
REMARK    5  A    between atoms: C_20  and  C_21
REMARK    6  A    between atoms: N_23  and  C_24
REMARK    7  A    between atoms: C_24  and  C_25
REMARK                            x       y       z     vdW  Elec       q    Type
REMARK                         _______ _______ _______ _____ _____    ______ ____
ROOT
ATOM      1  C   UNL     1      -0.506  -0.824  23.586  0.00  0.00    +0.090 C 
ATOM      2  N   UNL     1      -0.187  -0.083  23.758  0.00  0.00    -0.271 NA
ATOM      3  C   UNL     1       0.578   0.051  23.481  0.00  0.00    +0.083 C 
ATOM      4  C   UNL     1       1.013  -0.508  23.057  0.00  0.00    +0.035 C 
ATOM      5  C   UNL     1       1.746  -0.177  22.876  0.00  0.00    +0.074 C 
ATOM      6  N   UNL     1       1.766   0.587  23.187  0.00  0.00    -0.259 NA
ATOM     13  C   UNL     1       1.044   0.728  23.561  0.00  0.00    +0.152 C 
ATOM     14  C   UNL     1       0.859   1.437  23.939  0.00  0.00    +0.257 C 
ATOM     15  O   UNL     1       1.448   2.015  23.925  0.00  0.00    -0.272 OA
ATOM     16  N   UNL     1       0.163   1.645  24.330  0.00  0.00    -0.203 NA
ATOM     17  C   UNL     1      -0.520   1.195  24.439  0.00  0.00    +0.131 C 
ATOM     18  C   UNL     1      -0.676   0.427  24.185  0.00  0.00    +0.080 C 
ENDROOT
BRANCH   6   7
ATOM      7  C   UNL     1       2.396   1.116  23.135  0.00  0.00    +0.139 C 
BRANCH   7   8
ATOM      8  C   UNL     1       3.147   0.843  22.928  0.00  0.00    +0.155 A 
ATOM      9  N   UNL     1       3.420   0.706  22.163  0.00  0.00    -0.226 NA
ATOM     10  C   UNL     1       4.198   0.438  22.214  0.00  0.00    +0.121 A 
ATOM     11  C   UNL     1       4.407   0.409  23.012  0.00  0.00    +0.121 A 
ATOM     12  N   UNL     1       3.757   0.660  23.454  0.00  0.00    -0.226 NA
ENDBRANCH   7   8
ENDBRANCH   6   7
BRANCH  18  19
ATOM     19  C   UNL     1      -1.419   0.127  24.383  0.00  0.00    +0.027 C 
BRANCH  19  20
ATOM     20  C   UNL     1      -1.908   0.544  24.899  0.00  0.00    +0.088 C 
BRANCH  20  21
ATOM     21  C   UNL     1      -2.725   0.424  24.881  0.00  0.00    +0.242 C 
ATOM     22  O   UNL     1      -3.028  -0.343  24.859  0.00  0.00    -0.273 OA
ATOM     23  N   UNL     1      -3.237   1.069  24.887  0.00  0.00    -0.201 NA
BRANCH  23  24
ATOM     24  C   UNL     1      -4.053   0.950  24.870  0.00  0.00    +0.141 C 
BRANCH  24  25
ATOM     25  C   UNL     1      -4.566   1.578  25.015  0.00  0.00    -0.000 A 
ATOM     26  C   UNL     1      -4.353   2.344  24.796  0.00  0.00    -0.000 A 
ATOM     27  C   UNL     1      -4.866   2.974  24.942  0.00  0.00    +0.029 A 
ATOM     28  C   UNL     1      -5.593   2.837  25.307  0.00  0.00    +0.140 A 
ATOM     29  F   UNL     1      -6.107   3.465  25.453  0.00  0.00    -0.204 F 
ATOM     30  C   UNL     1      -5.807   2.070  25.527  0.00  0.00    +0.029 A 
ATOM     31  C   UNL     1      -5.293   1.441  25.381  0.00  0.00    -0.000 A 
ENDBRANCH  24  25
ENDBRANCH  23  24
ENDBRANCH  20  21
ENDBRANCH  19  20
ENDBRANCH  18  19
TORSDOF 7
ENDMDL
MODEL 4
REMARK VINA RESULT:      -6.5     14.978     15.600
REMARK  Name = 
REMARK  7 active torsions:
REMARK  status: ('A' for Active; 'I' for Inactive)
REMARK    1  A    between atoms: N_6  and  C_7
REMARK    2  A    between atoms: C_7  and  C_8
REMARK    3  A    between atoms: C_18  and  C_19
REMARK    4  A    between atoms: C_19  and  C_20
REMARK    5  A    between atoms: C_20  and  C_21
REMARK    6  A    between atoms: N_23  and  C_24
REMARK    7  A    between atoms: C_24  and  C_25
REMARK                            x       y       z     vdW  Elec       q    Type
REMARK                         _______ _______ _______ _____ _____    ______ ____
ROOT
ATOM      1  C   UNL     1      -5.603  -9.703  16.107  0.00  0.00    +0.090 C 
ATOM      2  N   UNL     1      -6.280  -9.858  15.663  0.00  0.00    -0.271 NA
ATOM      3  C   UNL     1      -6.998  -9.681  16.029  0.00  0.00    +0.083 C 
ATOM      4  C   UNL     1      -7.055  -9.369  16.791  0.00  0.00    +0.035 C 
ATOM      5  C   UNL     1      -7.854  -9.266  16.965  0.00  0.00    +0.074 C 
ATOM      6  N   UNL     1      -8.292  -9.516  16.312  0.00  0.00    -0.259 NA
ATOM     13  C   UNL     1      -7.763  -9.772  15.733  0.00  0.00    +0.152 C 
ATOM     14  C   UNL     1      -7.999 -10.063  14.999  0.00  0.00    +0.257 C 
ATOM     15  O   UNL     1      -8.813 -10.085  14.867  0.00  0.00    -0.272 OA
ATOM     16  N   UNL     1      -7.529 -10.334  14.378  0.00  0.00    -0.203 NA
ATOM     17  C   UNL     1      -6.706 -10.382  14.339  0.00  0.00    +0.131 C 
ATOM     18  C   UNL     1      -6.151 -10.171  14.910  0.00  0.00    +0.080 C 
ENDROOT
BRANCH   6   7
ATOM      7  C   UNL     1      -9.115  -9.510  16.249  0.00  0.00    +0.139 C 
BRANCH   7   8
ATOM      8  C   UNL     1      -9.569  -9.128  16.822  0.00  0.00    +0.155 A 
ATOM      9  N   UNL     1      -9.907  -9.479  17.487  0.00  0.00    -0.226 NA
ATOM     10  C   UNL     1     -10.312  -8.895  17.906  0.00  0.00    +0.121 A 
ATOM     11  C   UNL     1     -10.224  -8.182  17.499  0.00  0.00    +0.121 A 
ATOM     12  N   UNL     1      -9.766  -8.326  16.828  0.00  0.00    -0.226 NA
ENDBRANCH   7   8
ENDBRANCH   6   7
BRANCH  18  19
ATOM     19  C   UNL     1      -5.360 -10.286  14.702  0.00  0.00    +0.027 C 
BRANCH  19  20
ATOM     20  C   UNL     1      -5.170 -10.665  13.996  0.00  0.00    +0.088 C 
BRANCH  20  21
ATOM     21  C   UNL     1      -4.402 -10.623  13.698  0.00  0.00    +0.242 C 
ATOM     22  O   UNL     1      -3.759 -10.780  14.191  0.00  0.00    -0.273 OA
ATOM     23  N   UNL     1      -4.275 -10.423  12.908  0.00  0.00    -0.201 NA
BRANCH  23  24
ATOM     24  C   UNL     1      -3.507 -10.381  12.610  0.00  0.00    +0.141 C 
BRANCH  24  25
ATOM     25  C   UNL     1      -3.370 -10.055  11.865  0.00  0.00    -0.000 A 
ATOM     26  C   UNL     1      -4.000  -9.766  11.419  0.00  0.00    -0.000 A 
ATOM     27  C   UNL     1      -3.864  -9.439  10.674  0.00  0.00    +0.029 A 
ATOM     28  C   UNL     1      -3.096  -9.403  10.375  0.00  0.00    +0.140 A 
ATOM     29  F   UNL     1      -2.958  -9.077   9.630  0.00  0.00    -0.204 F 
ATOM     30  C   UNL     1      -2.465  -9.692  10.821  0.00  0.00    +0.029 A 
ATOM     31  C   UNL     1      -2.602 -10.018  11.566  0.00  0.00    -0.000 A 
ENDBRANCH  24  25
ENDBRANCH  23  24
ENDBRANCH  20  21
ENDBRANCH  19  20
ENDBRANCH  18  19
TORSDOF 7
ENDMDL
MODEL 5
REMARK VINA RESULT:      -6.3     15.298     16.683
REMARK  Name = 
REMARK  7 active torsions:
REMARK  status: ('A' for Active; 'I' for Inactive)
REMARK    1  A    between atoms: N_6  and  C_7
REMARK    2  A    between atoms: C_7  and  C_8
REMARK    3  A    between atoms: C_18  and  C_19
REMARK    4  A    between atoms: C_19  and  C_20
REMARK    5  A    between atoms: C_20  and  C_21
REMARK    6  A    between atoms: N_23  and  C_24
REMARK    7  A    between atoms: C_24  and  C_25
REMARK                            x       y       z     vdW  Elec       q    Type
REMARK                         _______ _______ _______ _____ _____    ______ ____
ROOT
ATOM      1  C   UNL     1      -6.962  -9.546  13.231  0.00  0.00    +0.090 C 
ATOM      2  N   UNL     1      -6.175  -9.792  13.223  0.00  0.00    -0.271 NA
ATOM      3  C   UNL     1      -5.779  -9.703  12.504  0.00  0.00    +0.083 C 
ATOM      4  C   UNL     1      -6.131  -9.389  11.827  0.00  0.00    +0.035 C 
ATOM      5  C   UNL     1      -5.569  -9.387  11.224  0.00  0.00    +0.074 C 
ATOM      6  N   UNL     1      -4.868  -9.700  11.528  0.00  0.00    -0.259 NA
ATOM     13  C   UNL     1      -4.998  -9.895  12.319  0.00  0.00    +0.152 C 
ATOM     14  C   UNL     1      -4.421 -10.223  12.807  0.00  0.00    +0.257 C 
ATOM     15  O   UNL     1      -3.685 -10.351  12.456  0.00  0.00    -0.272 OA
ATOM     16  N   UNL     1      -4.480 -10.442  13.601  0.00  0.00    -0.203 NA
ATOM     17  C   UNL     1      -5.134 -10.385  14.102  0.00  0.00    +0.131 C 
ATOM     18  C   UNL     1      -5.887 -10.096  13.934  0.00  0.00    +0.080 C 
ENDROOT
BRANCH   6   7
ATOM      7  C   UNL     1      -4.161  -9.800  11.114  0.00  0.00    +0.139 C 
BRANCH   7   8
ATOM      8  C   UNL     1      -4.125  -9.613  10.311  0.00  0.00    +0.155 A 
ATOM      9  N   UNL     1      -4.391 -10.086   9.691  0.00  0.00    -0.226 NA
ATOM     10  C   UNL     1      -4.246  -9.686   8.984  0.00  0.00    +0.121 A 
ATOM     11  C   UNL     1      -3.890  -8.964   9.169  0.00  0.00    +0.121 A 
ATOM     12  N   UNL     1      -3.815  -8.919   9.989  0.00  0.00    -0.226 NA
ENDBRANCH   7   8
ENDBRANCH   6   7
BRANCH  18  19
ATOM     19  C   UNL     1      -6.425 -10.112  14.559  0.00  0.00    +0.027 C 
BRANCH  19  20
ATOM     20  C   UNL     1      -6.282 -10.590  15.215  0.00  0.00    +0.088 C 
BRANCH  20  21
ATOM     21  C   UNL     1      -6.769 -10.538  15.879  0.00  0.00    +0.242 C 
ATOM     22  O   UNL     1      -7.587 -10.491  15.787  0.00  0.00    -0.273 OA
ATOM     23  N   UNL     1      -6.438 -10.534  16.635  0.00  0.00    -0.201 NA
BRANCH  23  24
ATOM     24  C   UNL     1      -6.925 -10.482  17.299  0.00  0.00    +0.141 C 
BRANCH  24  25
ATOM     25  C   UNL     1      -6.603 -10.553  18.054  0.00  0.00    -0.000 A 
ATOM     26  C   UNL     1      -5.799 -10.709  18.146  0.00  0.00    -0.000 A 
ATOM     27  C   UNL     1      -5.476 -10.781  18.902  0.00  0.00    +0.029 A 
ATOM     28  C   UNL     1      -5.958 -10.695  19.566  0.00  0.00    +0.140 A 
ATOM     29  F   UNL     1      -5.636 -10.767  20.322  0.00  0.00    -0.204 F 
ATOM     30  C   UNL     1      -6.764 -10.539  19.474  0.00  0.00    +0.029 A 
ATOM     31  C   UNL     1      -7.085 -10.468  18.718  0.00  0.00    -0.000 A 
ENDBRANCH  24  25
ENDBRANCH  23  24
ENDBRANCH  20  21
ENDBRANCH  19  20
ENDBRANCH  18  19
TORSDOF 7
ENDMDL
MODEL 6
REMARK VINA RESULT:      -6.2     14.201     14.820
REMARK  Name = 
REMARK  7 active torsions:
REMARK  status: ('A' for Active; 'I' for Inactive)
REMARK    1  A    between atoms: N_6  and  C_7
REMARK    2  A    between atoms: C_7  and  C_8
REMARK    3  A    between atoms: C_18  and  C_19
REMARK    4  A    between atoms: C_19  and  C_20
REMARK    5  A    between atoms: C_20  and  C_21
REMARK    6  A    between atoms: N_23  and  C_24
REMARK    7  A    between atoms: C_24  and  C_25
REMARK                            x       y       z     vdW  Elec       q    Type
REMARK                         _______ _______ _______ _____ _____    ______ ____
ROOT
ATOM      1  C   UNL     1      -5.870  -9.457  16.522  0.00  0.00    +0.090 C 
ATOM      2  N   UNL     1      -6.498  -9.822  16.132  0.00  0.00    -0.271 NA
ATOM      3  C   UNL     1      -7.231  -9.773  16.507  0.00  0.00    +0.083 C 
ATOM      4  C   UNL     1      -7.347  -9.387  17.228  0.00  0.00    +0.035 C 
ATOM      5  C   UNL     1      -8.145  -9.453  17.427  0.00  0.00    +0.074 C 
ATOM      6  N   UNL     1      -8.522  -9.880  16.829  0.00  0.00    -0.259 NA
ATOM     13  C   UNL     1      -7.957 -10.077  16.261  0.00  0.00    +0.152 C 
ATOM     14  C   UNL     1      -8.130 -10.506  15.579  0.00  0.00    +0.257 C 
ATOM     15  O   UNL     1      -8.918 -10.735  15.489  0.00  0.00    -0.272 OA
ATOM     16  N   UNL     1      -7.620 -10.737  14.973  0.00  0.00    -0.203 NA
ATOM     17  C   UNL     1      -6.810 -10.596  14.902  0.00  0.00    +0.131 C 
ATOM     18  C   UNL     1      -6.311 -10.189  15.416  0.00  0.00    +0.080 C 
ENDROOT
BRANCH   6   7
ATOM      7  C   UNL     1      -9.324 -10.075  16.805  0.00  0.00    +0.139 C 
BRANCH   7   8
ATOM      8  C   UNL     1      -9.817  -9.868  17.433  0.00  0.00    +0.155 A 
ATOM      9  N   UNL     1     -10.281  -9.188  17.482  0.00  0.00    -0.226 NA
ATOM     10  C   UNL     1     -10.683  -9.206  18.202  0.00  0.00    +0.121 A 
ATOM     11  C   UNL     1     -10.468  -9.897  18.598  0.00  0.00    +0.121 A 
ATOM     12  N   UNL     1      -9.933 -10.307  18.122  0.00  0.00    -0.226 NA
ENDBRANCH   7   8
ENDBRANCH   6   7
BRANCH  18  19
ATOM     19  C   UNL     1      -5.520 -10.142  15.187  0.00  0.00    +0.027 C 
BRANCH  19  20
ATOM     20  C   UNL     1      -5.171 -10.765  14.776  0.00  0.00    +0.088 C 
BRANCH  20  21
ATOM     21  C   UNL     1      -4.453 -10.652  14.385  0.00  0.00    +0.242 C 
ATOM     22  O   UNL     1      -4.446 -10.487  13.577  0.00  0.00    -0.273 OA
ATOM     23  N   UNL     1      -3.743 -10.705  14.801  0.00  0.00    -0.201 NA
BRANCH  23  24
ATOM     24  C   UNL     1      -3.026 -10.592  14.409  0.00  0.00    +0.141 C 
BRANCH  24  25
ATOM     25  C   UNL     1      -2.336 -10.460  14.841  0.00  0.00    -0.000 A 
ATOM     26  C   UNL     1      -1.720 -10.023  14.511  0.00  0.00    -0.000 A 
ATOM     27  C   UNL     1      -1.029  -9.890  14.943  0.00  0.00    +0.029 A 
ATOM     28  C   UNL     1      -0.956 -10.196  15.706  0.00  0.00    +0.140 A 
ATOM     29  F   UNL     1      -0.266 -10.064  16.139  0.00  0.00    -0.204 F 
ATOM     30  C   UNL     1      -1.573 -10.634  16.037  0.00  0.00    +0.029 A 
ATOM     31  C   UNL     1      -2.262 -10.765  15.604  0.00  0.00    -0.000 A 
ENDBRANCH  24  25
ENDBRANCH  23  24
ENDBRANCH  20  21
ENDBRANCH  19  20
ENDBRANCH  18  19
TORSDOF 7
ENDMDL
MODEL 7
REMARK VINA RESULT:      -6.2     17.673     18.894
REMARK  Name = 
REMARK  7 active torsions:
REMARK  status: ('A' for Active; 'I' for Inactive)
REMARK    1  A    between atoms: N_6  and  C_7
REMARK    2  A    between atoms: C_7  and  C_8
REMARK    3  A    between atoms: C_18  and  C_19
REMARK    4  A    between atoms: C_19  and  C_20
REMARK    5  A    between atoms: C_20  and  C_21
REMARK    6  A    between atoms: N_23  and  C_24
REMARK    7  A    between atoms: C_24  and  C_25
REMARK                            x       y       z     vdW  Elec       q    Type
REMARK                         _______ _______ _______ _____ _____    ______ ____
ROOT
ATOM      1  C   UNL     1      15.938  -6.855  26.158  0.00  0.00    +0.090 C 
ATOM      2  N   UNL     1      16.326  -6.422  26.742  0.00  0.00    -0.271 NA
ATOM      3  C   UNL     1      16.136  -6.620  27.521  0.00  0.00    +0.083 C 
ATOM      4  C   UNL     1      15.595  -7.209  27.721  0.00  0.00    +0.035 C 
ATOM      5  C   UNL     1      15.550  -7.246  28.544  0.00  0.00    +0.074 C 
ATOM      6  N   UNL     1      16.065  -6.680  28.853  0.00  0.00    -0.259 NA
ATOM     13  C   UNL     1      16.427  -6.292  28.220  0.00  0.00    +0.152 C 
ATOM     14  C   UNL     1      16.979  -5.688  28.314  0.00  0.00    +0.257 C 
ATOM     15  O   UNL     1      17.157  -5.482  29.093  0.00  0.00    -0.272 OA
ATOM     16  N   UNL     1      17.377  -5.260  27.732  0.00  0.00    -0.203 NA
ATOM     17  C   UNL     1      17.322  -5.332  26.912  0.00  0.00    +0.131 C 
ATOM     18  C   UNL     1      16.854  -5.849  26.472  0.00  0.00    +0.080 C 
ENDROOT
BRANCH   6   7
ATOM      7  C   UNL     1      16.194  -6.527  29.653  0.00  0.00    +0.139 C 
BRANCH   7   8
ATOM      8  C   UNL     1      15.674  -6.827  30.219  0.00  0.00    +0.155 A 
ATOM      9  N   UNL     1      14.987  -6.460  30.489  0.00  0.00    -0.226 NA
ATOM     10  C   UNL     1      14.638  -6.953  31.051  0.00  0.00    +0.121 A 
ATOM     11  C   UNL     1      15.110  -7.626  31.127  0.00  0.00    +0.121 A 
ATOM     12  N   UNL     1      15.750  -7.548  30.613  0.00  0.00    -0.226 NA
ENDBRANCH   7   8
ENDBRANCH   6   7
BRANCH  18  19
ATOM     19  C   UNL     1      16.923  -5.785  25.652  0.00  0.00    +0.027 C 
BRANCH  19  20
ATOM     20  C   UNL     1      17.311  -5.138  25.319  0.00  0.00    +0.088 C 
BRANCH  20  21
ATOM     21  C   UNL     1      17.232  -4.978  24.513  0.00  0.00    +0.242 C 
ATOM     22  O   UNL     1      17.316  -5.587  23.962  0.00  0.00    -0.273 OA
ATOM     23  N   UNL     1      17.069  -4.211  24.259  0.00  0.00    -0.201 NA
BRANCH  23  24
ATOM     24  C   UNL     1      16.989  -4.051  23.453  0.00  0.00    +0.141 C 
BRANCH  24  25
ATOM     25  C   UNL     1      16.802  -3.289  23.200  0.00  0.00    -0.000 A 
ATOM     26  C   UNL     1      16.014  -3.064  23.117  0.00  0.00    -0.000 A 
ATOM     27  C   UNL     1      15.826  -2.302  22.864  0.00  0.00    +0.029 A 
ATOM     28  C   UNL     1      16.428  -1.764  22.693  0.00  0.00    +0.140 A 
ATOM     29  F   UNL     1      16.242  -1.002  22.440  0.00  0.00    -0.204 F 
ATOM     30  C   UNL     1      17.219  -1.990  22.776  0.00  0.00    +0.029 A 
ATOM     31  C   UNL     1      17.405  -2.752  23.030  0.00  0.00    -0.000 A 
ENDBRANCH  24  25
ENDBRANCH  23  24
ENDBRANCH  20  21
ENDBRANCH  19  20
ENDBRANCH  18  19
TORSDOF 7
ENDMDL
MODEL 8
REMARK VINA RESULT:      -6.0     13.856     15.762
REMARK  Name = 
REMARK  7 active torsions:
REMARK  status: ('A' for Active; 'I' for Inactive)
REMARK    1  A    between atoms: N_6  and  C_7
REMARK    2  A    between atoms: C_7  and  C_8
REMARK    3  A    between atoms: C_18  and  C_19
REMARK    4  A    between atoms: C_19  and  C_20
REMARK    5  A    between atoms: C_20  and  C_21
REMARK    6  A    between atoms: N_23  and  C_24
REMARK    7  A    between atoms: C_24  and  C_25
REMARK                            x       y       z     vdW  Elec       q    Type
REMARK                         _______ _______ _______ _____ _____    ______ ____
ROOT
ATOM      1  C   UNL     1      -5.944 -10.138  15.175  0.00  0.00    +0.090 C 
ATOM      2  N   UNL     1      -5.532 -10.278  15.875  0.00  0.00    -0.271 NA
ATOM      3  C   UNL     1      -4.719 -10.397  15.796  0.00  0.00    +0.083 C 
ATOM      4  C   UNL     1      -4.326 -10.381  15.070  0.00  0.00    +0.035 C 
ATOM      5  C   UNL     1      -3.526 -10.521  15.211  0.00  0.00    +0.074 C 
ATOM      6  N   UNL     1      -3.423 -10.624  16.023  0.00  0.00    -0.259 NA
ATOM     13  C   UNL     1      -4.161 -10.548  16.385  0.00  0.00    +0.152 C 
ATOM     14  C   UNL     1      -4.278 -10.616  17.198  0.00  0.00    +0.257 C 
ATOM     15  O   UNL     1      -3.602 -10.770  17.645  0.00  0.00    -0.272 OA
ATOM     16  N   UNL     1      -4.981 -10.552  17.624  0.00  0.00    -0.203 NA
ATOM     17  C   UNL     1      -5.742 -10.402  17.341  0.00  0.00    +0.131 C 
ATOM     18  C   UNL     1      -5.987 -10.280  16.564  0.00  0.00    +0.080 C 
ENDROOT
BRANCH   6   7
ATOM      7  C   UNL     1      -2.709 -10.778  16.406  0.00  0.00    +0.139 C 
BRANCH   7   8
ATOM      8  C   UNL     1      -1.995 -10.639  16.017  0.00  0.00    +0.155 A 
ATOM      9  N   UNL     1      -1.859 -10.718  15.208  0.00  0.00    -0.226 NA
ATOM     10  C   UNL     1      -1.072 -10.524  15.061  0.00  0.00    +0.121 A 
ATOM     11  C   UNL     1      -0.719 -10.324  15.780  0.00  0.00    +0.121 A 
ATOM     12  N   UNL     1      -1.290 -10.395  16.371  0.00  0.00    -0.226 NA
ENDBRANCH   7   8
ENDBRANCH   6   7
BRANCH  18  19
ATOM     19  C   UNL     1      -6.794 -10.143  16.459  0.00  0.00    +0.027 C 
BRANCH  19  20
ATOM     20  C   UNL     1      -7.277 -10.004  17.112  0.00  0.00    +0.088 C 
BRANCH  20  21
ATOM     21  C   UNL     1      -8.096  -9.961  17.019  0.00  0.00    +0.242 C 
ATOM     22  O   UNL     1      -8.558 -10.638  17.115  0.00  0.00    -0.273 OA
ATOM     23  N   UNL     1      -8.452  -9.242  16.829  0.00  0.00    -0.201 NA
BRANCH  23  24
ATOM     24  C   UNL     1      -9.271  -9.199  16.736  0.00  0.00    +0.141 C 
BRANCH  24  25
ATOM     25  C   UNL     1      -9.632  -8.472  16.590  0.00  0.00    -0.000 A 
ATOM     26  C   UNL     1      -9.892  -8.286  15.830  0.00  0.00    -0.000 A 
ATOM     27  C   UNL     1     -10.253  -7.559  15.684  0.00  0.00    +0.029 A 
ATOM     28  C   UNL     1     -10.354  -7.018  16.298  0.00  0.00    +0.140 A 
ATOM     29  F   UNL     1     -10.716  -6.290  16.153  0.00  0.00    -0.204 F 
ATOM     30  C   UNL     1     -10.094  -7.204  17.060  0.00  0.00    +0.029 A 
ATOM     31  C   UNL     1      -9.733  -7.931  17.205  0.00  0.00    -0.000 A 
ENDBRANCH  24  25
ENDBRANCH  23  24
ENDBRANCH  20  21
ENDBRANCH  19  20
ENDBRANCH  18  19
TORSDOF 7
ENDMDL
MODEL 9
REMARK VINA RESULT:      -6.0     14.949     15.768
REMARK  Name = 
REMARK  7 active torsions:
REMARK  status: ('A' for Active; 'I' for Inactive)
REMARK    1  A    between atoms: N_6  and  C_7
REMARK    2  A    between atoms: C_7  and  C_8
REMARK    3  A    between atoms: C_18  and  C_19
REMARK    4  A    between atoms: C_19  and  C_20
REMARK    5  A    between atoms: C_20  and  C_21
REMARK    6  A    between atoms: N_23  and  C_24
REMARK    7  A    between atoms: C_24  and  C_25
REMARK                            x       y       z     vdW  Elec       q    Type
REMARK                         _______ _______ _______ _____ _____    ______ ____
ROOT
ATOM      1  C   UNL     1      -4.785 -10.437  15.086  0.00  0.00    +0.090 C 
ATOM      2  N   UNL     1      -5.571 -10.276  15.277  0.00  0.00    -0.271 NA
ATOM      3  C   UNL     1      -5.743 -10.238  16.083  0.00  0.00    +0.083 C 
ATOM      4  C   UNL     1      -5.179 -10.351  16.675  0.00  0.00    +0.035 C 
ATOM      5  C   UNL     1      -5.555 -10.272  17.404  0.00  0.00    +0.074 C 
ATOM      6  N   UNL     1      -6.352 -10.109  17.265  0.00  0.00    -0.259 NA
ATOM     13  C   UNL     1      -6.468 -10.088  16.448  0.00  0.00    +0.152 C 
ATOM     14  C   UNL     1      -7.199  -9.939  16.097  0.00  0.00    +0.257 C 
ATOM     15  O   UNL     1      -7.827  -9.809  16.617  0.00  0.00    -0.272 OA
ATOM     16  N   UNL     1      -7.387  -9.904  15.294  0.00  0.00    -0.203 NA
ATOM     17  C   UNL     1      -6.889 -10.008  14.645  0.00  0.00    +0.131 C 
ATOM     18  C   UNL     1      -6.081 -10.173  14.637  0.00  0.00    +0.080 C 
ENDROOT
BRANCH   6   7
ATOM      7  C   UNL     1      -6.931  -9.988  17.840  0.00  0.00    +0.139 C 
BRANCH   7   8
ATOM      8  C   UNL     1      -6.778 -10.189  18.626  0.00  0.00    +0.155 A 
ATOM      9  N   UNL     1      -6.202  -9.852  19.110  0.00  0.00    -0.226 NA
ATOM     10  C   UNL     1      -6.243 -10.217  19.848  0.00  0.00    +0.121 A 
ATOM     11  C   UNL     1      -6.846 -10.781  19.820  0.00  0.00    +0.121 A 
ATOM     12  N   UNL     1      -7.177 -10.763  19.065  0.00  0.00    -0.226 NA
ENDBRANCH   7   8
ENDBRANCH   6   7
BRANCH  18  19
ATOM     19  C   UNL     1      -5.737 -10.246  13.890  0.00  0.00    +0.027 C 
BRANCH  19  20
ATOM     20  C   UNL     1      -6.059  -9.846  13.246  0.00  0.00    +0.088 C 
BRANCH  20  21
ATOM     21  C   UNL     1      -5.926 -10.121  12.480  0.00  0.00    +0.242 C 
ATOM     22  O   UNL     1      -6.354 -10.767  12.194  0.00  0.00    -0.273 OA
ATOM     23  N   UNL     1      -5.367  -9.753  11.999  0.00  0.00    -0.201 NA
BRANCH  23  24
ATOM     24  C   UNL     1      -5.234 -10.028  11.233  0.00  0.00    +0.141 C 
BRANCH  24  25
ATOM     25  C   UNL     1      -4.674  -9.660  10.753  0.00  0.00    -0.000 A 
ATOM     26  C   UNL     1      -3.893  -9.925  10.754  0.00  0.00    -0.000 A 
ATOM     27  C   UNL     1      -3.332  -9.557  10.273  0.00  0.00    +0.029 A 
ATOM     28  C   UNL     1      -3.552  -8.924   9.793  0.00  0.00    +0.140 A 
ATOM     29  F   UNL     1      -2.992  -8.555   9.313  0.00  0.00    -0.204 F 
ATOM     30  C   UNL     1      -4.334  -8.658   9.792  0.00  0.00    +0.029 A 
ATOM     31  C   UNL     1      -4.894  -9.027  10.273  0.00  0.00    -0.000 A 
ENDBRANCH  24  25
ENDBRANCH  23  24
ENDBRANCH  20  21
ENDBRANCH  19  20
ENDBRANCH  18  19
TORSDOF 7
ENDMDL
MODEL 10
REMARK VINA RESULT:      -6.0     14.792     16.577
REMARK  Name = 
REMARK  7 active torsions:
REMARK  status: ('A' for Active; 'I' for Inactive)
REMARK    1  A    between atoms: N_6  and  C_7
REMARK    2  A    between atoms: C_7  and  C_8
REMARK    3  A    between atoms: C_18  and  C_19
REMARK    4  A    between atoms: C_19  and  C_20
REMARK    5  A    between atoms: C_20  and  C_21
REMARK    6  A    between atoms: N_23  and  C_24
REMARK    7  A    between atoms: C_24  and  C_25
REMARK                            x       y       z     vdW  Elec       q    Type
REMARK                         _______ _______ _______ _____ _____    ______ ____
ROOT
ATOM      1  C   UNL     1      -3.945 -10.450  15.773  0.00  0.00    +0.090 C 
ATOM      2  N   UNL     1      -4.319 -10.472  15.039  0.00  0.00    -0.271 NA
ATOM      3  C   UNL     1      -3.820 -10.527  14.384  0.00  0.00    +0.083 C 
ATOM      4  C   UNL     1      -2.998 -10.558  14.440  0.00  0.00    +0.035 C 
ATOM      5  C   UNL     1      -2.691 -10.611  13.677  0.00  0.00    +0.074 C 
ATOM      6  N   UNL     1      -3.324 -10.611  13.147  0.00  0.00    -0.259 NA
ATOM     13  C   UNL     1      -4.022 -10.559  13.584  0.00  0.00    +0.152 C 
ATOM     14  C   UNL     1      -4.772 -10.545  13.243  0.00  0.00    +0.257 C 
ATOM     15  O   UNL     1      -4.792 -10.587  12.419  0.00  0.00    -0.272 OA
ATOM     16  N   UNL     1      -5.507 -10.495  13.615  0.00  0.00    -0.203 NA
ATOM     17  C   UNL     1      -5.671 -10.447  14.422  0.00  0.00    +0.131 C 
ATOM     18  C   UNL     1      -5.144 -10.437  15.055  0.00  0.00    +0.080 C 
ENDROOT
BRANCH   6   7
ATOM      7  C   UNL     1      -3.269 -10.656  12.325  0.00  0.00    +0.139 C 
BRANCH   7   8
ATOM      8  C   UNL     1      -2.589 -10.387  11.943  0.00  0.00    +0.155 A 
ATOM      9  N   UNL     1      -1.849 -10.751  11.956  0.00  0.00    -0.226 NA
ATOM     10  C   UNL     1      -1.333 -10.295  11.502  0.00  0.00    +0.121 A 
ATOM     11  C   UNL     1      -1.755  -9.649  11.207  0.00  0.00    +0.121 A 
ATOM     12  N   UNL     1      -2.531  -9.706  11.480  0.00  0.00    -0.226 NA
ENDBRANCH   7   8
ENDBRANCH   6   7
BRANCH  18  19
ATOM     19  C   UNL     1      -5.484 -10.384  15.805  0.00  0.00    +0.027 C 
BRANCH  19  20
ATOM     20  C   UNL     1      -6.303 -10.345  15.885  0.00  0.00    +0.088 C 
BRANCH  20  21
ATOM     21  C   UNL     1      -6.640 -10.180  16.621  0.00  0.00    +0.242 C 
ATOM     22  O   UNL     1      -6.237 -10.382  17.312  0.00  0.00    -0.273 OA
ATOM     23  N   UNL     1      -7.377  -9.814  16.665  0.00  0.00    -0.201 NA
BRANCH  23  24
ATOM     24  C   UNL     1      -7.713  -9.650  17.401  0.00  0.00    +0.141 C 
BRANCH  24  25
ATOM     25  C   UNL     1      -8.464  -9.313  17.445  0.00  0.00    -0.000 A 
ATOM     26  C   UNL     1      -9.095  -9.751  17.744  0.00  0.00    -0.000 A 
ATOM     27  C   UNL     1      -9.848  -9.415  17.789  0.00  0.00    +0.029 A 
ATOM     28  C   UNL     1      -9.968  -8.639  17.534  0.00  0.00    +0.140 A 
ATOM     29  F   UNL     1     -10.719  -8.302  17.579  0.00  0.00    -0.204 F 
ATOM     30  C   UNL     1      -9.336  -8.200  17.235  0.00  0.00    +0.029 A 
ATOM     31  C   UNL     1      -8.585  -8.538  17.190  0.00  0.00    -0.000 A 
ENDBRANCH  24  25
ENDBRANCH  23  24
ENDBRANCH  20  21
ENDBRANCH  19  20
ENDBRANCH  18  19
TORSDOF 7
ENDMDL
