MODEL 1
REMARK VINA RESULT:     -10.5      0.000      0.000
REMARK  Name = 
REMARK  6 active torsions:
REMARK  status: ('A' for Active; 'I' for Inactive)
REMARK    1  A    between atoms: C_5  and  C_6
REMARK    2  A    between atoms: C_6  and  C_7
REMARK    3  A    between atoms: N_9  and  C_10
REMARK    4  A    between atoms: C_14  and  C_15
REMARK    5  A    between atoms: C_15  and  N_16
REMARK    6  A    between atoms: C_17  and  C_19
REMARK                            x       y       z     vdW  Elec       q    Type
REMARK                         _______ _______ _______ _____ _____    ______ ____
ROOT
ATOM      1  O   UNL     1      -5.767   3.401  25.637  0.00  0.00    -0.218 OA
ATOM      2  C   UNL     1      -5.264   2.798  25.386  0.00  0.00    +0.213 C 
ATOM      3  C   UNL     1      -5.495   2.086  25.038  0.00  0.00    +0.212 C 
ATOM      4  O   UNL     1      -6.270   1.853  24.878  0.00  0.00    -0.218 OA
ATOM      5  C   UNL     1      -4.814   1.649  24.877  0.00  0.00    +0.157 C 
ATOM     13  O   UNL     1      -4.163   2.090  25.126  0.00  0.00    -0.351 OA
ATOM     14  C   UNL     1      -4.440   2.799  25.441  0.00  0.00    +0.170 C 
ENDROOT
BRANCH   5   6
ATOM      6  C   UNL     1      -4.790   0.902  24.528  0.00  0.00    +0.119 C 
BRANCH   6   7
ATOM      7  C   UNL     1      -4.187   0.374  24.723  0.00  0.00    +0.244 C 
ATOM      8  O   UNL     1      -3.422   0.500  24.443  0.00  0.00    -0.273 OA
ATOM      9  N   UNL     1      -4.350  -0.281  25.198  0.00  0.00    -0.207 NA
BRANCH   9  10
ATOM     10  C   UNL     1      -3.746  -0.809  25.394  0.00  0.00    +0.095 C 
ATOM     11  C   UNL     1      -3.304  -1.484  25.221  0.00  0.00    +0.023 C 
ATOM     12  C   UNL     1      -3.144  -1.049  25.903  0.00  0.00    +0.023 C 
ENDBRANCH   9  10
ENDBRANCH   6   7
ENDBRANCH   5   6
BRANCH  14  15
ATOM     15  C   UNL     1      -3.977   3.405  25.755  0.00  0.00    +0.147 C 
BRANCH  15  16
ATOM     16  N   UNL     1      -3.240   3.577  25.424  0.00  0.00    -0.203 NA
ATOM     17  C   UNL     1      -2.711   4.065  25.826  0.00  0.00    +0.241 C 
ATOM     18  O   UNL     1      -2.918   4.382  26.559  0.00  0.00    -0.273 OA
BRANCH  17  19
ATOM     19  C   UNL     1      -1.975   4.236  25.494  0.00  0.00    +0.078 C 
ATOM     20  C   UNL     1      -1.742   4.964  25.183  0.00  0.00    +0.009 C 
ATOM     21  C   UNL     1      -0.966   4.887  24.912  0.00  0.00    +0.001 C 
ATOM     22  C   UNL     1      -0.721   4.113  25.056  0.00  0.00    +0.001 C 
ATOM     23  C   UNL     1      -1.344   3.710  25.416  0.00  0.00    +0.009 C 
ENDBRANCH  17  19
ENDBRANCH  15  16
ENDBRANCH  14  15
TORSDOF 6
ENDMDL
MODEL 2
REMARK VINA RESULT:     -10.4      0.691      4.410
REMARK  Name = 
REMARK  6 active torsions:
REMARK  status: ('A' for Active; 'I' for Inactive)
REMARK    1  A    between atoms: C_5  and  C_6
REMARK    2  A    between atoms: C_6  and  C_7
REMARK    3  A    between atoms: N_9  and  C_10
REMARK    4  A    between atoms: C_14  and  C_15
REMARK    5  A    between atoms: C_15  and  N_16
REMARK    6  A    between atoms: C_17  and  C_19
REMARK                            x       y       z     vdW  Elec       q    Type
REMARK                         _______ _______ _______ _____ _____    ______ ____
ROOT
ATOM      1  O   UNL     1      -6.082   1.896  24.842  0.00  0.00    -0.218 OA
ATOM      2  C   UNL     1      -5.329   2.197  24.992  0.00  0.00    +0.213 C 
ATOM      3  C   UNL     1      -5.157   2.910  25.370  0.00  0.00    +0.212 C 
ATOM      4  O   UNL     1      -5.709   3.448  25.664  0.00  0.00    -0.218 OA
ATOM      5  C   UNL     1      -4.336   2.990  25.402  0.00  0.00    +0.157 C 
ATOM     13  O   UNL     1      -4.002   2.327  25.044  0.00  0.00    -0.351 OA
ATOM     14  C   UNL     1      -4.613   1.836  24.791  0.00  0.00    +0.170 C 
ENDROOT
BRANCH   5   6
ATOM      6  C   UNL     1      -3.925   3.623  25.734  0.00  0.00    +0.119 C 
BRANCH   6   7
ATOM      7  C   UNL     1      -3.235   3.901  25.375  0.00  0.00    +0.244 C 
ATOM      8  O   UNL     1      -3.237   4.093  24.573  0.00  0.00    -0.273 OA
ATOM      9  N   UNL     1      -2.546   3.987  25.820  0.00  0.00    -0.207 NA
BRANCH   9  10
ATOM     10  C   UNL     1      -1.856   4.265  25.461  0.00  0.00    +0.095 C 
ATOM     11  C   UNL     1      -1.421   4.886  25.134  0.00  0.00    +0.023 C 
ATOM     12  C   UNL     1      -1.098   4.127  25.167  0.00  0.00    +0.023 C 
ENDBRANCH   9  10
ENDBRANCH   6   7
ENDBRANCH   5   6
BRANCH  14  15
ATOM     15  C   UNL     1      -4.528   1.113  24.405  0.00  0.00    +0.147 C 
BRANCH  15  16
ATOM     16  N   UNL     1      -4.282   0.446  24.825  0.00  0.00    -0.203 NA
ATOM     17  C   UNL     1      -4.014  -0.220  24.421  0.00  0.00    +0.241 C 
ATOM     18  O   UNL     1      -3.990  -0.221  23.595  0.00  0.00    -0.273 OA
BRANCH  17  19
ATOM     19  C   UNL     1      -3.768  -0.887  24.841  0.00  0.00    +0.078 C 
ATOM     20  C   UNL     1      -3.842  -1.670  24.593  0.00  0.00    +0.009 C 
ATOM     21  C   UNL     1      -3.526  -2.154  25.182  0.00  0.00    +0.001 C 
ATOM     22  C   UNL     1      -3.257  -1.670  25.793  0.00  0.00    +0.001 C 
ATOM     23  C   UNL     1      -3.407  -0.887  25.583  0.00  0.00    +0.009 C 
ENDBRANCH  17  19
ENDBRANCH  15  16
ENDBRANCH  14  15
TORSDOF 6
ENDMDL
MODEL 3
REMARK VINA RESULT:      -9.7      1.545      2.996
REMARK  Name = 
REMARK  6 active torsions:
REMARK  status: ('A' for Active; 'I' for Inactive)
REMARK    1  A    between atoms: C_5  and  C_6
REMARK    2  A    between atoms: C_6  and  C_7
REMARK    3  A    between atoms: N_9  and  C_10
REMARK    4  A    between atoms: C_14  and  C_15
REMARK    5  A    between atoms: C_15  and  N_16
REMARK    6  A    between atoms: C_17  and  C_19
REMARK                            x       y       z     vdW  Elec       q    Type
REMARK                         _______ _______ _______ _____ _____    ______ ____
ROOT
ATOM      1  O   UNL     1      -0.789  -0.183  24.985  0.00  0.00    -0.218 OA
ATOM      2  C   UNL     1      -1.539   0.160  24.978  0.00  0.00    +0.213 C 
ATOM      3  C   UNL     1      -2.250  -0.231  24.829  0.00  0.00    +0.212 C 
ATOM      4  O   UNL     1      -2.336  -1.034  24.662  0.00  0.00    -0.218 OA
ATOM      5  C   UNL     1      -2.860   0.323  24.877  0.00  0.00    +0.157 C 
ATOM     13  O   UNL     1      -2.526   1.055  25.055  0.00  0.00    -0.351 OA
ATOM     14  C   UNL     1      -1.710   0.956  25.118  0.00  0.00    +0.170 C 
ENDROOT
BRANCH   5   6
ATOM      6  C   UNL     1      -3.663   0.169  24.766  0.00  0.00    +0.119 C 
BRANCH   6   7
ATOM      7  C   UNL     1      -4.196   0.794  24.691  0.00  0.00    +0.244 C 
ATOM      8  O   UNL     1      -4.176   1.274  24.021  0.00  0.00    -0.273 OA
ATOM      9  N   UNL     1      -4.750   0.938  25.286  0.00  0.00    -0.207 NA
BRANCH   9  10
ATOM     10  C   UNL     1      -5.284   1.563  25.210  0.00  0.00    +0.095 C 
ATOM     11  C   UNL     1      -5.490   2.348  25.357  0.00  0.00    +0.023 C 
ATOM     12  C   UNL     1      -6.001   1.860  24.932  0.00  0.00    +0.023 C 
ENDBRANCH   9  10
ENDBRANCH   6   7
ENDBRANCH   5   6
BRANCH  14  15
ATOM     15  C   UNL     1      -1.160   1.546  25.289  0.00  0.00    +0.147 C 
BRANCH  15  16
ATOM     16  N   UNL     1      -1.348   2.339  25.154  0.00  0.00    -0.203 NA
ATOM     17  C   UNL     1      -0.850   2.934  25.431  0.00  0.00    +0.241 C 
ATOM     18  O   UNL     1      -0.162   2.738  25.844  0.00  0.00    -0.273 OA
BRANCH  17  19
ATOM     19  C   UNL     1      -1.038   3.726  25.295  0.00  0.00    +0.078 C 
ATOM     20  C   UNL     1      -1.705   4.120  25.579  0.00  0.00    +0.009 C 
ATOM     21  C   UNL     1      -1.672   4.900  25.311  0.00  0.00    +0.001 C 
ATOM     22  C   UNL     1      -0.985   4.987  24.863  0.00  0.00    +0.001 C 
ATOM     23  C   UNL     1      -0.594   4.262  24.853  0.00  0.00    +0.009 C 
ENDBRANCH  17  19
ENDBRANCH  15  16
ENDBRANCH  14  15
TORSDOF 6
ENDMDL
MODEL 4
REMARK VINA RESULT:      -9.7      2.174      3.625
REMARK  Name = 
REMARK  6 active torsions:
REMARK  status: ('A' for Active; 'I' for Inactive)
REMARK    1  A    between atoms: C_5  and  C_6
REMARK    2  A    between atoms: C_6  and  C_7
REMARK    3  A    between atoms: N_9  and  C_10
REMARK    4  A    between atoms: C_14  and  C_15
REMARK    5  A    between atoms: C_15  and  N_16
REMARK    6  A    between atoms: C_17  and  C_19
REMARK                            x       y       z     vdW  Elec       q    Type
REMARK                         _______ _______ _______ _____ _____    ______ ____
ROOT
ATOM      1  O   UNL     1      -0.910   1.942  23.856  0.00  0.00    -0.218 OA
ATOM      2  C   UNL     1      -1.331   1.301  24.160  0.00  0.00    +0.213 C 
ATOM      3  C   UNL     1      -1.009   0.582  24.403  0.00  0.00    +0.212 C 
ATOM      4  O   UNL     1      -0.211   0.376  24.386  0.00  0.00    -0.218 OA
ATOM      5  C   UNL     1      -1.628   0.103  24.668  0.00  0.00    +0.157 C 
ATOM     13  O   UNL     1      -2.330   0.527  24.587  0.00  0.00    -0.351 OA
ATOM     14  C   UNL     1      -2.148   1.267  24.274  0.00  0.00    +0.170 C 
ENDROOT
BRANCH   5   6
ATOM      6  C   UNL     1      -1.554  -0.665  24.961  0.00  0.00    +0.119 C 
BRANCH   6   7
ATOM      7  C   UNL     1      -2.221  -1.147  25.027  0.00  0.00    +0.244 C 
ATOM      8  O   UNL     1      -2.746  -1.040  25.653  0.00  0.00    -0.273 OA
ATOM      9  N   UNL     1      -2.360  -1.736  24.466  0.00  0.00    -0.207 NA
BRANCH   9  10
ATOM     10  C   UNL     1      -3.027  -2.219  24.532  0.00  0.00    +0.095 C 
ATOM     11  C   UNL     1      -3.420  -2.847  24.894  0.00  0.00    +0.023 C 
ATOM     12  C   UNL     1      -3.786  -2.425  24.286  0.00  0.00    +0.023 C 
ENDBRANCH   9  10
ENDBRANCH   6   7
ENDBRANCH   5   6
BRANCH  14  15
ATOM     15  C   UNL     1      -2.686   1.869  24.103  0.00  0.00    +0.147 C 
BRANCH  15  16
ATOM     16  N   UNL     1      -3.367   1.956  24.561  0.00  0.00    -0.203 NA
ATOM     17  C   UNL     1      -3.960   2.477  24.322  0.00  0.00    +0.241 C 
ATOM     18  O   UNL     1      -3.873   2.911  23.625  0.00  0.00    -0.273 OA
BRANCH  17  19
ATOM     19  C   UNL     1      -4.641   2.564  24.780  0.00  0.00    +0.078 C 
ATOM     20  C   UNL     1      -4.780   3.160  25.334  0.00  0.00    +0.009 C 
ATOM     21  C   UNL     1      -5.527   3.034  25.660  0.00  0.00    +0.001 C 
ATOM     22  C   UNL     1      -5.849   2.362  25.309  0.00  0.00    +0.001 C 
ATOM     23  C   UNL     1      -5.303   2.071  24.765  0.00  0.00    +0.009 C 
ENDBRANCH  17  19
ENDBRANCH  15  16
ENDBRANCH  14  15
TORSDOF 6
ENDMDL
MODEL 5
REMARK VINA RESULT:      -9.6      1.753      4.858
REMARK  Name = 
REMARK  6 active torsions:
REMARK  status: ('A' for Active; 'I' for Inactive)
REMARK    1  A    between atoms: C_5  and  C_6
REMARK    2  A    between atoms: C_6  and  C_7
REMARK    3  A    between atoms: N_9  and  C_10
REMARK    4  A    between atoms: C_14  and  C_15
REMARK    5  A    between atoms: C_15  and  N_16
REMARK    6  A    between atoms: C_17  and  C_19
REMARK                            x       y       z     vdW  Elec       q    Type
REMARK                         _______ _______ _______ _____ _____    ______ ____
ROOT
ATOM      1  O   UNL     1      -0.480   1.176  24.331  0.00  0.00    -0.218 OA
ATOM      2  C   UNL     1      -1.227   1.463  24.531  0.00  0.00    +0.213 C 
ATOM      3  C   UNL     1      -1.469   2.251  24.495  0.00  0.00    +0.212 C 
ATOM      4  O   UNL     1      -1.007   2.890  24.253  0.00  0.00    -0.218 OA
ATOM      5  C   UNL     1      -2.255   2.287  24.743  0.00  0.00    +0.157 C 
ATOM     13  O   UNL     1      -2.498   1.522  24.933  0.00  0.00    -0.351 OA
ATOM     14  C   UNL     1      -1.863   1.012  24.802  0.00  0.00    +0.170 C 
ENDROOT
BRANCH   5   6
ATOM      6  C   UNL     1      -2.716   2.969  24.793  0.00  0.00    +0.119 C 
BRANCH   6   7
ATOM      7  C   UNL     1      -3.539   2.911  24.815  0.00  0.00    +0.244 C 
ATOM      8  O   UNL     1      -3.952   2.668  24.145  0.00  0.00    -0.273 OA
ATOM      9  N   UNL     1      -3.947   3.097  25.508  0.00  0.00    -0.207 NA
BRANCH   9  10
ATOM     10  C   UNL     1      -4.770   3.039  25.529  0.00  0.00    +0.095 C 
ATOM     11  C   UNL     1      -5.453   2.577  25.563  0.00  0.00    +0.023 C 
ATOM     12  C   UNL     1      -5.512   3.400  25.533  0.00  0.00    +0.023 C 
ENDBRANCH   9  10
ENDBRANCH   6   7
ENDBRANCH   5   6
BRANCH  14  15
ATOM     15  C   UNL     1      -1.863   0.196  24.920  0.00  0.00    +0.147 C 
BRANCH  15  16
ATOM     16  N   UNL     1      -2.482  -0.265  24.626  0.00  0.00    -0.203 NA
ATOM     17  C   UNL     1      -2.530  -1.063  24.822  0.00  0.00    +0.241 C 
ATOM     18  O   UNL     1      -1.961  -1.404  25.313  0.00  0.00    -0.273 OA
BRANCH  17  19
ATOM     19  C   UNL     1      -3.149  -1.524  24.527  0.00  0.00    +0.078 C 
ATOM     20  C   UNL     1      -3.839  -1.239  24.176  0.00  0.00    +0.009 C 
ATOM     21  C   UNL     1      -4.302  -1.888  23.964  0.00  0.00    +0.001 C 
ATOM     22  C   UNL     1      -3.898  -2.573  24.184  0.00  0.00    +0.001 C 
ATOM     23  C   UNL     1      -3.185  -2.348  24.532  0.00  0.00    +0.009 C 
ENDBRANCH  17  19
ENDBRANCH  15  16
ENDBRANCH  14  15
TORSDOF 6
ENDMDL
