MODEL 1
REMARK VINA RESULT:     -12.2      0.000      0.000
REMARK  Name = 
REMARK  6 active torsions:
REMARK  status: ('A' for Active; 'I' for Inactive)
REMARK    1  A    between atoms: C_5  and  C_6
REMARK    2  A    between atoms: C_6  and  C_7
REMARK    3  A    between atoms: C_10  and  C_12
REMARK    4  A    between atoms: C_20  and  C_21
REMARK    5  A    between atoms: C_21  and  N_22
REMARK    6  A    between atoms: N_22  and  C_23
REMARK                            x       y       z     vdW  Elec       q    Type
REMARK                         _______ _______ _______ _____ _____    ______ ____
ROOT
ATOM      1  O   UNL     1      -3.100   4.364  25.936  0.00  0.00    -0.220 OA
ATOM      2  C   UNL     1      -3.464   3.744  25.530  0.00  0.00    +0.180 C 
ATOM      3  C   UNL     1      -4.281   3.744  25.425  0.00  0.00    +0.038 C 
ATOM      4  C   UNL     1      -4.646   3.125  25.019  0.00  0.00    +0.033 C 
ATOM      5  C   UNL     1      -4.190   2.506  24.718  0.00  0.00    +0.121 C 
ATOM     19  O   UNL     1      -3.373   2.507  24.823  0.00  0.00    -0.354 OA
ATOM     20  C   UNL     1      -3.009   3.125  25.229  0.00  0.00    +0.163 C 
ENDROOT
BRANCH   5   6
ATOM      6  C   UNL     1      -4.555   1.887  24.312  0.00  0.00    +0.079 C 
BRANCH   6   7
ATOM      7  C   UNL     1      -4.560   1.128  24.636  0.00  0.00    +0.103 A 
ATOM      8  N   UNL     1      -4.924   0.904  25.341  0.00  0.00    -0.081 NA
ATOM      9  O   UNL     1      -4.791   0.097  25.452  0.00  0.00    -0.354 OA
ATOM     10  C   UNL     1      -4.346  -0.178  24.816  0.00  0.00    +0.177 A 
ATOM     11  C   UNL     1      -4.203   0.459  24.311  0.00  0.00    +0.058 A 
BRANCH  10  12
ATOM     12  C   UNL     1      -4.089  -0.953  24.703  0.00  0.00    +0.037 A 
ATOM     13  C   UNL     1      -4.332  -1.376  24.037  0.00  0.00    +0.005 A 
ATOM     14  C   UNL     1      -4.075  -2.151  23.924  0.00  0.00    +0.030 A 
ATOM     15  C   UNL     1      -3.574  -2.505  24.476  0.00  0.00    +0.140 A 
ATOM     16  F   UNL     1      -3.317  -3.280  24.363  0.00  0.00    -0.204 F 
ATOM     17  C   UNL     1      -3.331  -2.082  25.142  0.00  0.00    +0.030 A 
ATOM     18  C   UNL     1      -3.588  -1.307  25.255  0.00  0.00    +0.005 A 
ENDBRANCH  10  12
ENDBRANCH   6   7
ENDBRANCH   5   6
BRANCH  20  21
ATOM     21  C   UNL     1      -2.190   3.126  25.333  0.00  0.00    +0.121 C 
BRANCH  21  22
ATOM     22  N   UNL     1      -1.782   2.412  25.393  0.00  0.00    -0.217 NA
BRANCH  22  23
ATOM     23  C   UNL     1      -0.957   2.410  25.432  0.00  0.00    +0.076 C 
ATOM     24  C   UNL     1      -0.513   2.305  24.745  0.00  0.00    +0.036 C 
ATOM     25  C   UNL     1       0.311   2.303  24.784  0.00  0.00    +0.090 C 
ATOM     26  N   UNL     1       0.691   2.407  25.510  0.00  0.00    -0.218 NA
ATOM     27  C   UNL     1       0.245   2.512  26.196  0.00  0.00    +0.090 C 
ATOM     28  C   UNL     1      -0.579   2.514  26.157  0.00  0.00    +0.036 C 
ENDBRANCH  22  23
ENDBRANCH  21  22
ENDBRANCH  20  21
TORSDOF 6
ENDMDL
MODEL 2
REMARK VINA RESULT:     -12.1      1.155      1.567
REMARK  Name = 
REMARK  6 active torsions:
REMARK  status: ('A' for Active; 'I' for Inactive)
REMARK    1  A    between atoms: C_5  and  C_6
REMARK    2  A    between atoms: C_6  and  C_7
REMARK    3  A    between atoms: C_10  and  C_12
REMARK    4  A    between atoms: C_20  and  C_21
REMARK    5  A    between atoms: C_21  and  N_22
REMARK    6  A    between atoms: N_22  and  C_23
REMARK                            x       y       z     vdW  Elec       q    Type
REMARK                         _______ _______ _______ _____ _____    ______ ____
ROOT
ATOM      1  O   UNL     1      -4.845   4.043  26.184  0.00  0.00    -0.220 OA
ATOM      2  C   UNL     1      -4.847   3.337  25.755  0.00  0.00    +0.180 C 
ATOM      3  C   UNL     1      -5.536   2.888  25.706  0.00  0.00    +0.038 C 
ATOM      4  C   UNL     1      -5.539   2.183  25.277  0.00  0.00    +0.033 C 
ATOM      5  C   UNL     1      -4.852   1.929  24.898  0.00  0.00    +0.121 C 
ATOM     19  O   UNL     1      -4.163   2.379  24.947  0.00  0.00    -0.354 OA
ATOM     20  C   UNL     1      -4.160   3.084  25.376  0.00  0.00    +0.163 C 
ENDROOT
BRANCH   5   6
ATOM      6  C   UNL     1      -4.855   1.223  24.469  0.00  0.00    +0.079 C 
BRANCH   6   7
ATOM      7  C   UNL     1      -4.517   0.543  24.791  0.00  0.00    +0.103 A 
ATOM      8  N   UNL     1      -4.669   0.234  25.540  0.00  0.00    -0.081 NA
ATOM      9  O   UNL     1      -4.213  -0.448  25.632  0.00  0.00    -0.354 OA
ATOM     10  C   UNL     1      -3.779  -0.560  24.941  0.00  0.00    +0.177 A 
ATOM     11  C   UNL     1      -3.967   0.053  24.420  0.00  0.00    +0.058 A 
BRANCH  10  12
ATOM     12  C   UNL     1      -3.251  -1.175  24.794  0.00  0.00    +0.037 A 
ATOM     13  C   UNL     1      -2.438  -1.045  24.856  0.00  0.00    +0.005 A 
ATOM     14  C   UNL     1      -1.909  -1.661  24.709  0.00  0.00    +0.030 A 
ATOM     15  C   UNL     1      -2.192  -2.407  24.501  0.00  0.00    +0.140 A 
ATOM     16  F   UNL     1      -1.664  -3.023  24.354  0.00  0.00    -0.204 F 
ATOM     17  C   UNL     1      -3.005  -2.538  24.439  0.00  0.00    +0.030 A 
ATOM     18  C   UNL     1      -3.534  -1.922  24.585  0.00  0.00    +0.005 A 
ENDBRANCH  10  12
ENDBRANCH   6   7
ENDBRANCH   5   6
BRANCH  20  21
ATOM     21  C   UNL     1      -3.471   3.534  25.425  0.00  0.00    +0.121 C 
BRANCH  21  22
ATOM     22  N   UNL     1      -2.872   3.434  24.867  0.00  0.00    -0.217 NA
BRANCH  22  23
ATOM     23  C   UNL     1      -2.131   3.776  24.991  0.00  0.00    +0.076 C 
ATOM     24  C   UNL     1      -1.480   3.299  25.163  0.00  0.00    +0.036 C 
ATOM     25  C   UNL     1      -0.740   3.642  25.287  0.00  0.00    +0.090 C 
ATOM     26  N   UNL     1      -0.650   4.461  25.237  0.00  0.00    -0.218 NA
ATOM     27  C   UNL     1      -1.302   4.937  25.065  0.00  0.00    +0.090 C 
ATOM     28  C   UNL     1      -2.042   4.594  24.941  0.00  0.00    +0.036 C 
ENDBRANCH  22  23
ENDBRANCH  21  22
ENDBRANCH  20  21
TORSDOF 6
ENDMDL
MODEL 3
REMARK VINA RESULT:     -11.6      1.416      3.231
REMARK  Name = 
REMARK  6 active torsions:
REMARK  status: ('A' for Active; 'I' for Inactive)
REMARK    1  A    between atoms: C_5  and  C_6
REMARK    2  A    between atoms: C_6  and  C_7
REMARK    3  A    between atoms: C_10  and  C_12
REMARK    4  A    between atoms: C_20  and  C_21
REMARK    5  A    between atoms: C_21  and  N_22
REMARK    6  A    between atoms: N_22  and  C_23
REMARK                            x       y       z     vdW  Elec       q    Type
REMARK                         _______ _______ _______ _____ _____    ______ ____
ROOT
ATOM      1  O   UNL     1      -1.747   4.287  25.792  0.00  0.00    -0.220 OA
ATOM      2  C   UNL     1      -1.544   3.558  25.462  0.00  0.00    +0.180 C 
ATOM      3  C   UNL     1      -0.751   3.353  25.374  0.00  0.00    +0.038 C 
ATOM      4  C   UNL     1      -0.547   2.624  25.044  0.00  0.00    +0.033 C 
ATOM      5  C   UNL     1      -1.138   2.102  24.804  0.00  0.00    +0.121 C 
ATOM     19  O   UNL     1      -1.931   2.308  24.892  0.00  0.00    -0.354 OA
ATOM     20  C   UNL     1      -2.135   3.036  25.222  0.00  0.00    +0.163 C 
ENDROOT
BRANCH   5   6
ATOM      6  C   UNL     1      -0.935   1.373  24.474  0.00  0.00    +0.079 C 
BRANCH   6   7
ATOM      7  C   UNL     1      -1.159   0.673  24.849  0.00  0.00    +0.103 A 
ATOM      8  N   UNL     1      -0.858   0.387  25.561  0.00  0.00    -0.081 NA
ATOM      9  O   UNL     1      -1.236  -0.326  25.731  0.00  0.00    -0.354 OA
ATOM     10  C   UNL     1      -1.772  -0.481  25.124  0.00  0.00    +0.177 A 
ATOM     11  C   UNL     1      -1.725   0.137  24.579  0.00  0.00    +0.058 A 
BRANCH  10  12
ATOM     12  C   UNL     1      -2.268  -1.137  25.070  0.00  0.00    +0.037 A 
ATOM     13  C   UNL     1      -2.019  -1.811  24.665  0.00  0.00    +0.005 A 
ATOM     14  C   UNL     1      -2.515  -2.468  24.611  0.00  0.00    +0.030 A 
ATOM     15  C   UNL     1      -3.261  -2.451  24.962  0.00  0.00    +0.140 A 
ATOM     16  F   UNL     1      -3.758  -3.107  24.909  0.00  0.00    -0.204 F 
ATOM     17  C   UNL     1      -3.511  -1.777  25.368  0.00  0.00    +0.030 A 
ATOM     18  C   UNL     1      -3.015  -1.120  25.422  0.00  0.00    +0.005 A 
ENDBRANCH  10  12
ENDBRANCH   6   7
ENDBRANCH   5   6
BRANCH  20  21
ATOM     21  C   UNL     1      -2.929   3.242  25.310  0.00  0.00    +0.121 C 
BRANCH  21  22
ATOM     22  N   UNL     1      -3.491   2.953  24.781  0.00  0.00    -0.217 NA
BRANCH  22  23
ATOM     23  C   UNL     1      -4.286   2.913  25.004  0.00  0.00    +0.076 C 
ATOM     24  C   UNL     1      -4.715   2.220  24.877  0.00  0.00    +0.036 C 
ATOM     25  C   UNL     1      -5.508   2.180  25.100  0.00  0.00    +0.090 C 
ATOM     26  N   UNL     1      -5.873   2.834  25.449  0.00  0.00    -0.218 NA
ATOM     27  C   UNL     1      -5.442   3.526  25.575  0.00  0.00    +0.090 C 
ATOM     28  C   UNL     1      -4.649   3.566  25.353  0.00  0.00    +0.036 C 
ENDBRANCH  22  23
ENDBRANCH  21  22
ENDBRANCH  20  21
TORSDOF 6
ENDMDL
MODEL 4
REMARK VINA RESULT:     -11.3      1.854      4.572
REMARK  Name = 
REMARK  6 active torsions:
REMARK  status: ('A' for Active; 'I' for Inactive)
REMARK    1  A    between atoms: C_5  and  C_6
REMARK    2  A    between atoms: C_6  and  C_7
REMARK    3  A    between atoms: C_10  and  C_12
REMARK    4  A    between atoms: C_20  and  C_21
REMARK    5  A    between atoms: C_21  and  N_22
REMARK    6  A    between atoms: N_22  and  C_23
REMARK                            x       y       z     vdW  Elec       q    Type
REMARK                         _______ _______ _______ _____ _____    ______ ____
ROOT
ATOM      1  O   UNL     1      -6.136   1.243  25.748  0.00  0.00    -0.220 OA
ATOM      2  C   UNL     1      -5.593   1.731  25.363  0.00  0.00    +0.180 C 
ATOM      3  C   UNL     1      -5.698   2.548  25.367  0.00  0.00    +0.038 C 
ATOM      4  C   UNL     1      -5.156   3.036  24.983  0.00  0.00    +0.033 C 
ATOM      5  C   UNL     1      -4.508   2.705  24.594  0.00  0.00    +0.121 C 
ATOM     19  O   UNL     1      -4.402   1.888  24.590  0.00  0.00    -0.354 OA
ATOM     20  C   UNL     1      -4.945   1.400  24.975  0.00  0.00    +0.163 C 
ENDROOT
BRANCH   5   6
ATOM      6  C   UNL     1      -3.964   3.194  24.210  0.00  0.00    +0.079 C 
BRANCH   6   7
ATOM      7  C   UNL     1      -3.284   3.445  24.603  0.00  0.00    +0.103 A 
ATOM      8  N   UNL     1      -3.152   4.198  24.912  0.00  0.00    -0.081 NA
ATOM      9  O   UNL     1      -2.403   4.206  25.257  0.00  0.00    -0.354 OA
ATOM     10  C   UNL     1      -2.071   3.457  25.162  0.00  0.00    +0.177 A 
ATOM     11  C   UNL     1      -2.616   2.987  24.758  0.00  0.00    +0.058 A 
BRANCH  10  12
ATOM     12  C   UNL     1      -1.326   3.220  25.424  0.00  0.00    +0.037 A 
ATOM     13  C   UNL     1      -0.649   3.465  25.021  0.00  0.00    +0.005 A 
ATOM     14  C   UNL     1       0.095   3.227  25.283  0.00  0.00    +0.030 A 
ATOM     15  C   UNL     1       0.164   2.745  25.948  0.00  0.00    +0.140 A 
ATOM     16  F   UNL     1       0.909   2.507  26.211  0.00  0.00    -0.204 F 
ATOM     17  C   UNL     1      -0.512   2.499  26.352  0.00  0.00    +0.030 A 
ATOM     18  C   UNL     1      -1.257   2.737  26.090  0.00  0.00    +0.005 A 
ENDBRANCH  10  12
ENDBRANCH   6   7
ENDBRANCH   5   6
BRANCH  20  21
ATOM     21  C   UNL     1      -4.840   0.582  24.971  0.00  0.00    +0.121 C 
BRANCH  21  22
ATOM     22  N   UNL     1      -4.203   0.250  24.565  0.00  0.00    -0.217 NA
BRANCH  22  23
ATOM     23  C   UNL     1      -4.043  -0.557  24.637  0.00  0.00    +0.076 C 
ATOM     24  C   UNL     1      -3.662  -0.843  25.311  0.00  0.00    +0.036 C 
ATOM     25  C   UNL     1      -3.502  -1.649  25.383  0.00  0.00    +0.090 C 
ATOM     26  N   UNL     1      -3.723  -2.169  24.781  0.00  0.00    -0.218 NA
ATOM     27  C   UNL     1      -4.104  -1.882  24.108  0.00  0.00    +0.090 C 
ATOM     28  C   UNL     1      -4.264  -1.076  24.036  0.00  0.00    +0.036 C 
ENDBRANCH  22  23
ENDBRANCH  21  22
ENDBRANCH  20  21
TORSDOF 6
ENDMDL
MODEL 5
REMARK VINA RESULT:     -11.3      2.126      3.833
REMARK  Name = 
REMARK  6 active torsions:
REMARK  status: ('A' for Active; 'I' for Inactive)
REMARK    1  A    between atoms: C_5  and  C_6
REMARK    2  A    between atoms: C_6  and  C_7
REMARK    3  A    between atoms: C_10  and  C_12
REMARK    4  A    between atoms: C_20  and  C_21
REMARK    5  A    between atoms: C_21  and  N_22
REMARK    6  A    between atoms: N_22  and  C_23
REMARK                            x       y       z     vdW  Elec       q    Type
REMARK                         _______ _______ _______ _____ _____    ______ ____
ROOT
ATOM      1  O   UNL     1      -0.443  -1.662  24.413  0.00  0.00    -0.220 OA
ATOM      2  C   UNL     1      -1.220  -1.543  24.667  0.00  0.00    +0.180 C 
ATOM      3  C   UNL     1      -1.771  -2.152  24.608  0.00  0.00    +0.038 C 
ATOM      4  C   UNL     1      -2.547  -2.034  24.861  0.00  0.00    +0.033 C 
ATOM      5  C   UNL     1      -2.770  -1.304  25.175  0.00  0.00    +0.121 C 
ATOM     19  O   UNL     1      -2.218  -0.694  25.234  0.00  0.00    -0.354 OA
ATOM     20  C   UNL     1      -1.443  -0.813  24.980  0.00  0.00    +0.163 C 
ENDROOT
BRANCH   5   6
ATOM      6  C   UNL     1      -3.546  -1.185  25.429  0.00  0.00    +0.079 C 
BRANCH   6   7
ATOM      7  C   UNL     1      -4.001  -0.581  25.098  0.00  0.00    +0.103 A 
ATOM      8  N   UNL     1      -4.371  -0.602  24.361  0.00  0.00    -0.081 NA
ATOM      9  O   UNL     1      -4.764   0.116  24.253  0.00  0.00    -0.354 OA
ATOM     10  C   UNL     1      -4.637   0.579  24.922  0.00  0.00    +0.177 A 
ATOM     11  C   UNL     1      -4.165   0.149  25.445  0.00  0.00    +0.058 A 
BRANCH  10  12
ATOM     12  C   UNL     1      -4.930   1.340  25.049  0.00  0.00    +0.037 A 
ATOM     13  C   UNL     1      -4.510   1.995  24.774  0.00  0.00    +0.005 A 
ATOM     14  C   UNL     1      -4.803   2.755  24.900  0.00  0.00    +0.030 A 
ATOM     15  C   UNL     1      -5.516   2.862  25.300  0.00  0.00    +0.140 A 
ATOM     16  F   UNL     1      -5.809   3.622  25.427  0.00  0.00    -0.204 F 
ATOM     17  C   UNL     1      -5.937   2.207  25.575  0.00  0.00    +0.030 A 
ATOM     18  C   UNL     1      -5.644   1.447  25.449  0.00  0.00    +0.005 A 
ENDBRANCH  10  12
ENDBRANCH   6   7
ENDBRANCH   5   6
BRANCH  20  21
ATOM     21  C   UNL     1      -0.891  -0.203  25.040  0.00  0.00    +0.121 C 
BRANCH  21  22
ATOM     22  N   UNL     1      -1.099   0.564  24.821  0.00  0.00    -0.217 NA
BRANCH  22  23
ATOM     23  C   UNL     1      -0.597   1.195  25.000  0.00  0.00    +0.076 C 
ATOM     24  C   UNL     1      -0.087   1.492  24.424  0.00  0.00    +0.036 C 
ATOM     25  C   UNL     1       0.414   2.123  24.603  0.00  0.00    +0.090 C 
ATOM     26  N   UNL     1       0.405   2.456  25.358  0.00  0.00    -0.218 NA
ATOM     27  C   UNL     1      -0.106   2.158  25.933  0.00  0.00    +0.090 C 
ATOM     28  C   UNL     1      -0.607   1.528  25.754  0.00  0.00    +0.036 C 
ENDBRANCH  22  23
ENDBRANCH  21  22
ENDBRANCH  20  21
TORSDOF 6
ENDMDL
