MODEL 1
REMARK VINA RESULT:     -13.7      0.000      0.000
REMARK  Name = 
REMARK  5 active torsions:
REMARK  status: ('A' for Active; 'I' for Inactive)
REMARK    1  A    between atoms: C_5  and  C_6
REMARK    2  A    between atoms: C_6  and  C_7
REMARK    3  A    between atoms: C_19  and  C_20
REMARK    4  A    between atoms: C_20  and  N_21
REMARK    5  A    between atoms: C_22  and  C_24
REMARK                            x       y       z     vdW  Elec       q    Type
REMARK                         _______ _______ _______ _____ _____    ______ ____
ROOT
ATOM      1  O   UNL     1      -5.748   2.640  25.093  0.00  0.00    -0.218 OA
ATOM      2  C   UNL     1      -5.091   2.141  25.091  0.00  0.00    +0.213 C 
ATOM      3  C   UNL     1      -5.089   1.343  24.882  0.00  0.00    +0.212 C 
ATOM      4  O   UNL     1      -5.743   0.903  24.638  0.00  0.00    -0.218 OA
ATOM      5  C   UNL     1      -4.317   1.062  24.959  0.00  0.00    +0.157 C 
ATOM     18  O   UNL     1      -3.842   1.686  25.216  0.00  0.00    -0.351 OA
ATOM     19  C   UNL     1      -4.321   2.353  25.298  0.00  0.00    +0.170 C 
ENDROOT
BRANCH   5   6
ATOM      6  C   UNL     1      -4.064   0.291  24.807  0.00  0.00    +0.118 C 
BRANCH   6   7
ATOM      7  C   UNL     1      -3.365   0.012  25.144  0.00  0.00    +0.232 C 
ATOM      8  O   UNL     1      -2.898   0.514  25.603  0.00  0.00    -0.274 OA
ATOM      9  N   UNL     1      -3.132  -0.771  25.023  0.00  0.00    -0.259 N 
ATOM     10  C   UNL     1      -2.451  -1.125  25.324  0.00  0.00    +0.103 C 
ATOM     11  C   UNL     1      -2.437  -1.910  25.067  0.00  0.00    +0.049 C 
ATOM     12  C   UNL     1      -3.109  -2.039  24.608  0.00  0.00    -0.007 A 
ATOM     13  C   UNL     1      -3.387  -2.706  24.210  0.00  0.00    -0.003 A 
ATOM     14  C   UNL     1      -4.093  -2.670  23.786  0.00  0.00    -0.000 A 
ATOM     15  C   UNL     1      -4.523  -1.966  23.759  0.00  0.00    +0.001 A 
ATOM     16  C   UNL     1      -4.246  -1.298  24.156  0.00  0.00    +0.015 A 
ATOM     17  C   UNL     1      -3.539  -1.335  24.581  0.00  0.00    +0.050 A 
ENDBRANCH   6   7
ENDBRANCH   5   6
BRANCH  19  20
ATOM     20  C   UNL     1      -4.073   3.100  25.542  0.00  0.00    +0.148 C 
BRANCH  20  21
ATOM     21  N   UNL     1      -3.350   3.400  25.283  0.00  0.00    -0.199 NA
ATOM     22  C   UNL     1      -2.964   3.984  25.720  0.00  0.00    +0.265 C 
ATOM     23  O   UNL     1      -3.301   4.268  26.418  0.00  0.00    -0.268 OA
BRANCH  22  24
ATOM     24  C   UNL     1      -2.240   4.284  25.460  0.00  0.00    +0.056 A 
ATOM     25  C   UNL     1      -1.585   3.786  25.399  0.00  0.00    +0.018 A 
ATOM     26  C   UNL     1      -0.862   4.086  25.139  0.00  0.00    +0.085 A 
ATOM     27 CL   UNL     1      -0.207   3.589  25.078  0.00  0.00    -0.080 Cl
ATOM     28  C   UNL     1      -0.794   4.884  24.940  0.00  0.00    +0.151 A 
ATOM     29  F   UNL     1      -0.071   5.183  24.681  0.00  0.00    -0.203 F 
ATOM     30  C   UNL     1      -1.448   5.381  25.001  0.00  0.00    +0.031 A 
ATOM     31  C   UNL     1      -2.173   5.082  25.261  0.00  0.00    +0.007 A 
ENDBRANCH  22  24
ENDBRANCH  20  21
ENDBRANCH  19  20
TORSDOF 5
ENDMDL
MODEL 2
REMARK VINA RESULT:     -13.3      2.194      5.408
REMARK  Name = 
REMARK  5 active torsions:
REMARK  status: ('A' for Active; 'I' for Inactive)
REMARK    1  A    between atoms: C_5  and  C_6
REMARK    2  A    between atoms: C_6  and  C_7
REMARK    3  A    between atoms: C_19  and  C_20
REMARK    4  A    between atoms: C_20  and  N_21
REMARK    5  A    between atoms: C_22  and  C_24
REMARK                            x       y       z     vdW  Elec       q    Type
REMARK                         _______ _______ _______ _____ _____    ______ ____
ROOT
ATOM      1  O   UNL     1      -5.621   1.461  24.730  0.00  0.00    -0.218 OA
ATOM      2  C   UNL     1      -4.809   1.607  24.750  0.00  0.00    +0.213 C 
ATOM      3  C   UNL     1      -4.437   2.311  24.533  0.00  0.00    +0.212 C 
ATOM      4  O   UNL     1      -4.811   2.993  24.258  0.00  0.00    -0.218 OA
ATOM      5  C   UNL     1      -3.625   2.213  24.639  0.00  0.00    +0.157 C 
ATOM     18  O   UNL     1      -3.495   1.449  24.922  0.00  0.00    -0.351 OA
ATOM     19  C   UNL     1      -4.227   1.074  24.990  0.00  0.00    +0.170 C 
ENDROOT
BRANCH   5   6
ATOM      6  C   UNL     1      -3.044   2.780  24.490  0.00  0.00    +0.118 C 
BRANCH   6   7
ATOM      7  C   UNL     1      -2.302   2.548  24.214  0.00  0.00    +0.232 C 
ATOM      8  O   UNL     1      -2.209   1.815  23.847  0.00  0.00    -0.274 OA
ATOM      9  N   UNL     1      -1.653   3.049  24.305  0.00  0.00    -0.259 N 
ATOM     10  C   UNL     1      -0.881   2.893  24.059  0.00  0.00    +0.103 C 
ATOM     11  C   UNL     1      -0.413   3.542  24.260  0.00  0.00    +0.049 C 
ATOM     12  C   UNL     1      -0.895   4.098  24.630  0.00  0.00    -0.007 A 
ATOM     13  C   UNL     1      -0.736   4.844  24.946  0.00  0.00    -0.003 A 
ATOM     14  C   UNL     1      -1.342   5.285  25.290  0.00  0.00    -0.000 A 
ATOM     15  C   UNL     1      -2.108   4.981  25.318  0.00  0.00    +0.001 A 
ATOM     16  C   UNL     1      -2.268   4.235  25.002  0.00  0.00    +0.015 A 
ATOM     17  C   UNL     1      -1.661   3.794  24.658  0.00  0.00    +0.050 A 
ENDBRANCH   6   7
ENDBRANCH   5   6
BRANCH  19  20
ATOM     20  C   UNL     1      -4.354   0.303  25.253  0.00  0.00    +0.148 C 
BRANCH  20  21
ATOM     21  N   UNL     1      -3.961  -0.325  24.890  0.00  0.00    -0.199 NA
ATOM     22  C   UNL     1      -3.792  -1.009  25.320  0.00  0.00    +0.265 C 
ATOM     23  O   UNL     1      -4.016  -1.065  26.113  0.00  0.00    -0.268 OA
BRANCH  22  24
ATOM     24  C   UNL     1      -3.400  -1.638  24.958  0.00  0.00    +0.056 A 
ATOM     25  C   UNL     1      -2.577  -1.690  25.000  0.00  0.00    +0.018 A 
ATOM     26  C   UNL     1      -2.184  -2.319  24.638  0.00  0.00    +0.085 A 
ATOM     27 CL   UNL     1      -1.363  -2.371  24.680  0.00  0.00    -0.080 Cl
ATOM     28  C   UNL     1      -2.615  -2.895  24.233  0.00  0.00    +0.151 A 
ATOM     29  F   UNL     1      -2.222  -3.524  23.871  0.00  0.00    -0.203 F 
ATOM     30  C   UNL     1      -3.436  -2.843  24.191  0.00  0.00    +0.031 A 
ATOM     31  C   UNL     1      -3.830  -2.214  24.553  0.00  0.00    +0.007 A 
ENDBRANCH  22  24
ENDBRANCH  20  21
ENDBRANCH  19  20
TORSDOF 5
ENDMDL
MODEL 3
REMARK VINA RESULT:     -13.3      1.995      3.037
REMARK  Name = 
REMARK  5 active torsions:
REMARK  status: ('A' for Active; 'I' for Inactive)
REMARK    1  A    between atoms: C_5  and  C_6
REMARK    2  A    between atoms: C_6  and  C_7
REMARK    3  A    between atoms: C_19  and  C_20
REMARK    4  A    between atoms: C_20  and  N_21
REMARK    5  A    between atoms: C_22  and  C_24
REMARK                            x       y       z     vdW  Elec       q    Type
REMARK                         _______ _______ _______ _____ _____    ______ ____
ROOT
ATOM      1  O   UNL     1       0.887   0.657  23.838  0.00  0.00    -0.218 OA
ATOM      2  C   UNL     1       0.125   0.526  24.123  0.00  0.00    +0.213 C 
ATOM      3  C   UNL     1      -0.357  -0.118  23.941  0.00  0.00    +0.212 C 
ATOM      4  O   UNL     1      -0.162  -0.744  23.440  0.00  0.00    -0.218 OA
ATOM      5  C   UNL     1      -1.070  -0.026  24.347  0.00  0.00    +0.157 C 
ATOM     18  O   UNL     1      -1.029   0.674  24.780  0.00  0.00    -0.351 OA
ATOM     19  C   UNL     1      -0.290   1.016  24.642  0.00  0.00    +0.170 C 
ENDROOT
BRANCH   5   6
ATOM      6  C   UNL     1      -1.712  -0.544  24.323  0.00  0.00    +0.118 C 
BRANCH   6   7
ATOM      7  C   UNL     1      -2.470  -0.256  24.170  0.00  0.00    +0.232 C 
ATOM      8  O   UNL     1      -2.580   0.543  23.998  0.00  0.00    -0.274 OA
ATOM      9  N   UNL     1      -3.118  -0.767  24.188  0.00  0.00    -0.259 N 
ATOM     10  C   UNL     1      -3.903  -0.559  24.047  0.00  0.00    +0.103 C 
ATOM     11  C   UNL     1      -4.365  -1.239  24.123  0.00  0.00    +0.049 C 
ATOM     12  C   UNL     1      -3.864  -1.867  24.310  0.00  0.00    -0.007 A 
ATOM     13  C   UNL     1      -4.009  -2.667  24.449  0.00  0.00    -0.003 A 
ATOM     14  C   UNL     1      -3.385  -3.175  24.628  0.00  0.00    -0.000 A 
ATOM     15  C   UNL     1      -2.614  -2.883  24.668  0.00  0.00    +0.001 A 
ATOM     16  C   UNL     1      -2.468  -2.084  24.530  0.00  0.00    +0.015 A 
ATOM     17  C   UNL     1      -3.093  -1.575  24.350  0.00  0.00    +0.050 A 
ENDBRANCH   6   7
ENDBRANCH   5   6
BRANCH  19  20
ATOM     20  C   UNL     1      -0.015   1.722  24.966  0.00  0.00    +0.148 C 
BRANCH  20  21
ATOM     21  N   UNL     1      -0.469   2.408  24.905  0.00  0.00    -0.199 NA
ATOM     22  C   UNL     1      -0.327   3.043  25.413  0.00  0.00    +0.265 C 
ATOM     23  O   UNL     1       0.269   2.993  25.981  0.00  0.00    -0.268 OA
BRANCH  22  24
ATOM     24  C   UNL     1      -0.781   3.729  25.352  0.00  0.00    +0.056 A 
ATOM     25  C   UNL     1      -1.535   3.756  25.688  0.00  0.00    +0.018 A 
ATOM     26  C   UNL     1      -1.989   4.442  25.627  0.00  0.00    +0.085 A 
ATOM     27 CL   UNL     1      -2.742   4.470  25.962  0.00  0.00    -0.080 Cl
ATOM     28  C   UNL     1      -1.690   5.101  25.231  0.00  0.00    +0.151 A 
ATOM     29  F   UNL     1      -2.144   5.787  25.170  0.00  0.00    -0.203 F 
ATOM     30  C   UNL     1      -0.937   5.074  24.895  0.00  0.00    +0.031 A 
ATOM     31  C   UNL     1      -0.482   4.388  24.956  0.00  0.00    +0.007 A 
ENDBRANCH  22  24
ENDBRANCH  20  21
ENDBRANCH  19  20
TORSDOF 5
ENDMDL
MODEL 4
REMARK VINA RESULT:     -13.0      2.784      5.788
REMARK  Name = 
REMARK  5 active torsions:
REMARK  status: ('A' for Active; 'I' for Inactive)
REMARK    1  A    between atoms: C_5  and  C_6
REMARK    2  A    between atoms: C_6  and  C_7
REMARK    3  A    between atoms: C_19  and  C_20
REMARK    4  A    between atoms: C_20  and  N_21
REMARK    5  A    between atoms: C_22  and  C_24
REMARK                            x       y       z     vdW  Elec       q    Type
REMARK                         _______ _______ _______ _____ _____    ______ ____
ROOT
ATOM      1  O   UNL     1       0.835   1.260  24.150  0.00  0.00    -0.218 OA
ATOM      2  C   UNL     1       0.036   1.438  24.251  0.00  0.00    +0.213 C 
ATOM      3  C   UNL     1      -0.302   2.190  24.215  0.00  0.00    +0.212 C 
ATOM      4  O   UNL     1       0.099   2.896  24.070  0.00  0.00    -0.218 OA
ATOM      5  C   UNL     1      -1.113   2.112  24.349  0.00  0.00    +0.157 C 
ATOM     18  O   UNL     1      -1.276   1.312  24.468  0.00  0.00    -0.351 OA
ATOM     19  C   UNL     1      -0.566   0.895  24.408  0.00  0.00    +0.170 C 
ENDROOT
BRANCH   5   6
ATOM      6  C   UNL     1      -1.664   2.726  24.361  0.00  0.00    +0.118 C 
BRANCH   6   7
ATOM      7  C   UNL     1      -2.359   2.665  23.922  0.00  0.00    +0.232 C 
ATOM      8  O   UNL     1      -2.357   2.269  23.198  0.00  0.00    -0.274 OA
ATOM      9  N   UNL     1      -3.058   3.001  24.206  0.00  0.00    -0.259 N 
ATOM     10  C   UNL     1      -3.791   2.985  23.830  0.00  0.00    +0.103 C 
ATOM     11  C   UNL     1      -4.332   3.386  24.308  0.00  0.00    +0.049 C 
ATOM     12  C   UNL     1      -3.932   3.649  24.978  0.00  0.00    -0.007 A 
ATOM     13  C   UNL     1      -4.182   4.075  25.639  0.00  0.00    -0.003 A 
ATOM     14  C   UNL     1      -3.646   4.264  26.237  0.00  0.00    -0.000 A 
ATOM     15  C   UNL     1      -2.859   4.026  26.174  0.00  0.00    +0.001 A 
ATOM     16  C   UNL     1      -2.607   3.600  25.514  0.00  0.00    +0.015 A 
ATOM     17  C   UNL     1      -3.144   3.412  24.916  0.00  0.00    +0.050 A 
ENDBRANCH   6   7
ENDBRANCH   5   6
BRANCH  19  20
ATOM     20  C   UNL     1      -0.474   0.080  24.490  0.00  0.00    +0.148 C 
BRANCH  20  21
ATOM     21  N   UNL     1      -1.136  -0.412  24.481  0.00  0.00    -0.199 NA
ATOM     22  C   UNL     1      -1.082  -1.181  24.777  0.00  0.00    +0.265 C 
ATOM     23  O   UNL     1      -0.367  -1.457  25.081  0.00  0.00    -0.268 OA
BRANCH  22  24
ATOM     24  C   UNL     1      -1.744  -1.673  24.768  0.00  0.00    +0.056 A 
ATOM     25  C   UNL     1      -2.408  -1.480  25.220  0.00  0.00    +0.018 A 
ATOM     26  C   UNL     1      -3.069  -1.972  25.211  0.00  0.00    +0.085 A 
ATOM     27 CL   UNL     1      -3.732  -1.780  25.662  0.00  0.00    -0.080 Cl
ATOM     28  C   UNL     1      -3.068  -2.658  24.752  0.00  0.00    +0.151 A 
ATOM     29  F   UNL     1      -3.730  -3.150  24.743  0.00  0.00    -0.203 F 
ATOM     30  C   UNL     1      -2.405  -2.851  24.301  0.00  0.00    +0.031 A 
ATOM     31  C   UNL     1      -1.742  -2.358  24.309  0.00  0.00    +0.007 A 
ENDBRANCH  22  24
ENDBRANCH  20  21
ENDBRANCH  19  20
TORSDOF 5
ENDMDL
MODEL 5
REMARK VINA RESULT:     -11.8      2.748      4.030
REMARK  Name = 
REMARK  5 active torsions:
REMARK  status: ('A' for Active; 'I' for Inactive)
REMARK    1  A    between atoms: C_5  and  C_6
REMARK    2  A    between atoms: C_6  and  C_7
REMARK    3  A    between atoms: C_19  and  C_20
REMARK    4  A    between atoms: C_20  and  N_21
REMARK    5  A    between atoms: C_22  and  C_24
REMARK                            x       y       z     vdW  Elec       q    Type
REMARK                         _______ _______ _______ _____ _____    ______ ____
ROOT
ATOM      1  O   UNL     1      -1.078   4.321  25.636  0.00  0.00    -0.218 OA
ATOM      2  C   UNL     1      -1.136   3.529  25.413  0.00  0.00    +0.213 C 
ATOM      3  C   UNL     1      -0.541   2.961  25.484  0.00  0.00    +0.212 C 
ATOM      4  O   UNL     1       0.214   3.085  25.791  0.00  0.00    -0.218 OA
ATOM      5  C   UNL     1      -0.836   2.247  25.195  0.00  0.00    +0.157 C 
ATOM     18  O   UNL     1      -1.612   2.373  24.945  0.00  0.00    -0.351 OA
ATOM     19  C   UNL     1      -1.797   3.166  25.080  0.00  0.00    +0.170 C 
ENDROOT
BRANCH   5   6
ATOM      6  C   UNL     1      -0.426   1.531  25.161  0.00  0.00    +0.118 C 
BRANCH   6   7
ATOM      7  C   UNL     1      -0.149   1.248  24.438  0.00  0.00    +0.232 C 
ATOM      8  O   UNL     1       0.161   1.771  23.881  0.00  0.00    -0.274 OA
ATOM      9  N   UNL     1      -0.182   0.440  24.271  0.00  0.00    -0.259 N 
ATOM     10  C   UNL     1       0.072   0.079  23.575  0.00  0.00    +0.103 C 
ATOM     11  C   UNL     1      -0.064  -0.733  23.644  0.00  0.00    +0.049 C 
ATOM     12  C   UNL     1      -0.402  -0.871  24.383  0.00  0.00    -0.007 A 
ATOM     13  C   UNL     1      -0.654  -1.564  24.754  0.00  0.00    -0.003 A 
ATOM     14  C   UNL     1      -0.978  -1.532  25.511  0.00  0.00    -0.000 A 
ATOM     15  C   UNL     1      -1.051  -0.807  25.899  0.00  0.00    +0.001 A 
ATOM     16  C   UNL     1      -0.800  -0.114  25.529  0.00  0.00    +0.015 A 
ATOM     17  C   UNL     1      -0.475  -0.146  24.770  0.00  0.00    +0.050 A 
ENDBRANCH   6   7
ENDBRANCH   5   6
BRANCH  19  20
ATOM     20  C   UNL     1      -2.517   3.530  24.911  0.00  0.00    +0.148 C 
BRANCH  20  21
ATOM     21  N   UNL     1      -3.225   3.160  25.116  0.00  0.00    -0.199 NA
ATOM     22  C   UNL     1      -3.936   3.417  24.786  0.00  0.00    +0.265 C 
ATOM     23  O   UNL     1      -3.940   4.045  24.250  0.00  0.00    -0.268 OA
BRANCH  22  24
ATOM     24  C   UNL     1      -4.644   3.046  24.991  0.00  0.00    +0.056 A 
ATOM     25  C   UNL     1      -4.814   2.292  24.701  0.00  0.00    +0.018 A 
ATOM     26  C   UNL     1      -5.522   1.922  24.906  0.00  0.00    +0.085 A 
ATOM     27 CL   UNL     1      -5.693   1.169  24.617  0.00  0.00    -0.080 Cl
ATOM     28  C   UNL     1      -6.060   2.305  25.401  0.00  0.00    +0.151 A 
ATOM     29  F   UNL     1      -6.768   1.934  25.607  0.00  0.00    -0.203 F 
ATOM     30  C   UNL     1      -5.890   3.058  25.691  0.00  0.00    +0.031 A 
ATOM     31  C   UNL     1      -5.182   3.429  25.486  0.00  0.00    +0.007 A 
ENDBRANCH  22  24
ENDBRANCH  20  21
ENDBRANCH  19  20
TORSDOF 5
ENDMDL
