MODEL 1
REMARK VINA RESULT:      -9.7      0.000      0.000
REMARK  Name = 
REMARK  12 active torsions:
REMARK  status: ('A' for Active; 'I' for Inactive)
REMARK    1  A    between atoms: C_5  and  S_7
REMARK    2  A    between atoms: S_7  and  N_10
REMARK    3  A    between atoms: N_10  and  C_11
REMARK    4  A    between atoms: C_15  and  C_17
REMARK    5  A    between atoms: N_19  and  C_20
REMARK    6  A    between atoms: C_20  and  C_21
REMARK    7  A    between atoms: C_20  and  C_28
REMARK    8  A    between atoms: C_21  and  C_22
REMARK    9  A    between atoms: C_31  and  C_33
REMARK   10  A    between atoms: C_33  and  O_34
REMARK   11  A    between atoms: O_34  and  C_35
REMARK   12  A    between atoms: C_35  and  C_36
REMARK                            x       y       z     vdW  Elec       q    Type
REMARK                         _______ _______ _______ _____ _____    ______ ____
ROOT
ATOM     11  C   UNL     1      -1.372   3.018  25.523  0.00  0.00    +0.102 C 
ATOM     12  C   UNL     1      -0.767   3.450  25.165  0.00  0.00    +0.041 C 
ATOM     13  C   UNL     1      -0.200   3.064  24.707  0.00  0.00    +0.095 C 
ATOM     14  N   UNL     1      -0.238   2.246  24.606  0.00  0.00    -0.271 N 
ATOM     15  C   UNL     1      -0.843   1.814  24.963  0.00  0.00    +0.155 C 
ATOM     16  C   UNL     1      -1.410   2.201  25.422  0.00  0.00    +0.049 C 
ATOM     31  C   UNL     1       0.329   1.860  24.147  0.00  0.00    +0.256 C 
ATOM     32  O   UNL     1       0.933   2.291  23.789  0.00  0.00    -0.272 OA
ENDROOT
BRANCH  15  17
ATOM     17  C   UNL     1      -0.881   0.996  24.862  0.00  0.00    +0.260 C 
ATOM     18  O   UNL     1      -0.280   0.603  24.454  0.00  0.00    -0.272 OA
ATOM     19  N   UNL     1      -1.518   0.571  25.168  0.00  0.00    -0.196 NA
BRANCH  19  20
ATOM     20  C   UNL     1      -1.555  -0.247  25.066  0.00  0.00    +0.179 C 
BRANCH  20  28
ATOM     28  C   UNL     1      -1.231  -0.749  25.637  0.00  0.00    +0.281 C 
ATOM     29  N   UNL     1      -0.774  -1.395  25.405  0.00  0.00    -0.086 NA
ATOM     30  O   UNL     1      -1.365  -0.603  26.437  0.00  0.00    -0.270 OA
ENDBRANCH  20  28
BRANCH  20  21
ATOM     21  C   UNL     1      -1.915  -0.564  24.395  0.00  0.00    +0.057 C 
BRANCH  21  22
ATOM     22  C   UNL     1      -2.729  -0.694  24.386  0.00  0.00    -0.020 A 
ATOM     23  C   UNL     1      -3.246  -0.068  24.240  0.00  0.00    -0.004 A 
ATOM     24  C   UNL     1      -4.060  -0.198  24.231  0.00  0.00    -0.000 A 
ATOM     25  C   UNL     1      -4.358  -0.956  24.368  0.00  0.00    -0.000 A 
ATOM     26  C   UNL     1      -3.842  -1.582  24.513  0.00  0.00    -0.000 A 
ATOM     27  C   UNL     1      -3.027  -1.452  24.523  0.00  0.00    -0.004 A 
ENDBRANCH  21  22
ENDBRANCH  20  21
ENDBRANCH  19  20
ENDBRANCH  15  17
BRANCH  11  10
ATOM     10  N   UNL     1      -1.938   3.404  25.981  0.00  0.00    -0.078 NA
BRANCH  10   7
ATOM      7  S   UNL     1      -2.706   3.499  25.695  0.00  0.00    +0.095 S 
ATOM      8  O   UNL     1      -2.450   4.121  25.216  0.00  0.00    -0.150 OA
ATOM      9  O   UNL     1      -2.961   2.878  26.174  0.00  0.00    -0.150 OA
BRANCH   7   5
ATOM      1  C   UNL     1      -5.606   3.542  25.531  0.00  0.00    +0.132 C 
ATOM      2  N   UNL     1      -4.807   3.614  25.335  0.00  0.00    -0.305 N 
ATOM      3  C   UNL     1      -4.508   3.865  24.610  0.00  0.00    +0.180 A 
ATOM      4  N   UNL     1      -3.684   3.853  24.655  0.00  0.00    -0.204 NA
ATOM      5  C   UNL     1      -3.474   3.594  25.410  0.00  0.00    +0.223 A 
ATOM      6  C   UNL     1      -4.169   3.446  25.830  0.00  0.00    +0.117 A 
ENDBRANCH   7   5
ENDBRANCH  10   7
ENDBRANCH  11  10
BRANCH  31  33
ATOM     33  C   UNL     1       0.290   1.042  24.046  0.00  0.00    +0.228 C 
BRANCH  33  34
ATOM     34  O   UNL     1       0.588   0.698  23.358  0.00  0.00    -0.333 OA
BRANCH  34  35
ATOM     35  C   UNL     1       1.303   0.285  23.380  0.00  0.00    +0.257 C 
BRANCH  35  36
ATOM     36  C   UNL     1       1.595  -0.069  22.694  0.00  0.00    +0.394 C 
ATOM     37  O   UNL     1       1.081  -0.449  22.174  0.00  0.00    -0.243 OA
ATOM     38  O   UNL     1       2.403  -0.040  22.528  0.00  0.00    -0.243 OA
ENDBRANCH  35  36
ENDBRANCH  34  35
ENDBRANCH  33  34
ENDBRANCH  31  33
TORSDOF 12
ENDMDL
MODEL 2
REMARK VINA RESULT:      -9.4      2.061      4.326
REMARK  Name = 
REMARK  12 active torsions:
REMARK  status: ('A' for Active; 'I' for Inactive)
REMARK    1  A    between atoms: C_5  and  S_7
REMARK    2  A    between atoms: S_7  and  N_10
REMARK    3  A    between atoms: N_10  and  C_11
REMARK    4  A    between atoms: C_15  and  C_17
REMARK    5  A    between atoms: N_19  and  C_20
REMARK    6  A    between atoms: C_20  and  C_21
REMARK    7  A    between atoms: C_20  and  C_28
REMARK    8  A    between atoms: C_21  and  C_22
REMARK    9  A    between atoms: C_31  and  C_33
REMARK   10  A    between atoms: C_33  and  O_34
REMARK   11  A    between atoms: O_34  and  C_35
REMARK   12  A    between atoms: C_35  and  C_36
REMARK                            x       y       z     vdW  Elec       q    Type
REMARK                         _______ _______ _______ _____ _____    ______ ____
ROOT
ATOM     11  C   UNL     1      -1.085   0.097  25.228  0.00  0.00    +0.102 C 
ATOM     12  C   UNL     1      -0.542   0.397  25.771  0.00  0.00    +0.041 C 
ATOM     13  C   UNL     1      -0.478   1.211  25.886  0.00  0.00    +0.095 C 
ATOM     14  N   UNL     1      -0.959   1.726  25.455  0.00  0.00    -0.271 N 
ATOM     15  C   UNL     1      -1.502   1.427  24.911  0.00  0.00    +0.155 C 
ATOM     16  C   UNL     1      -1.565   0.612  24.798  0.00  0.00    +0.049 C 
ATOM     31  C   UNL     1      -0.895   2.542  25.569  0.00  0.00    +0.256 C 
ATOM     32  O   UNL     1      -0.353   2.841  26.112  0.00  0.00    -0.272 OA
ENDROOT
BRANCH  15  17
ATOM     17  C   UNL     1      -1.982   1.942  24.482  0.00  0.00    +0.260 C 
ATOM     18  O   UNL     1      -1.664   2.636  24.167  0.00  0.00    -0.272 OA
ATOM     19  N   UNL     1      -2.779   1.766  24.367  0.00  0.00    -0.196 NA
BRANCH  19  20
ATOM     20  C   UNL     1      -3.258   2.281  23.937  0.00  0.00    +0.179 C 
BRANCH  20  28
ATOM     28  C   UNL     1      -3.235   2.275  23.112  0.00  0.00    +0.281 C 
ATOM     29  N   UNL     1      -3.326   2.979  22.691  0.00  0.00    -0.086 NA
ATOM     30  O   UNL     1      -3.123   1.565  22.708  0.00  0.00    -0.270 OA
ENDBRANCH  20  28
BRANCH  20  21
ATOM     21  C   UNL     1      -3.761   2.804  24.331  0.00  0.00    +0.057 C 
BRANCH  21  22
ATOM     22  C   UNL     1      -4.428   2.519  24.722  0.00  0.00    -0.020 A 
ATOM     23  C   UNL     1      -4.771   1.805  24.489  0.00  0.00    -0.004 A 
ATOM     24  C   UNL     1      -5.438   1.521  24.880  0.00  0.00    -0.000 A 
ATOM     25  C   UNL     1      -5.766   1.950  25.505  0.00  0.00    -0.000 A 
ATOM     26  C   UNL     1      -5.424   2.663  25.738  0.00  0.00    -0.000 A 
ATOM     27  C   UNL     1      -4.755   2.949  25.347  0.00  0.00    -0.004 A 
ENDBRANCH  21  22
ENDBRANCH  20  21
ENDBRANCH  19  20
ENDBRANCH  15  17
BRANCH  11  10
ATOM     10  N   UNL     1      -1.148  -0.717  25.115  0.00  0.00    -0.078 NA
BRANCH  10   7
ATOM      7  S   UNL     1      -1.892  -1.072  25.068  0.00  0.00    +0.095 S 
ATOM      8  O   UNL     1      -1.976  -1.003  25.886  0.00  0.00    -0.150 OA
ATOM      9  O   UNL     1      -1.807  -1.139  24.250  0.00  0.00    -0.150 OA
BRANCH   7   5
ATOM      1  C   UNL     1      -4.242  -2.431  24.036  0.00  0.00    +0.132 C 
ATOM      2  N   UNL     1      -3.715  -2.051  24.546  0.00  0.00    -0.305 N 
ATOM      3  C   UNL     1      -3.843  -1.893  25.344  0.00  0.00    +0.180 A 
ATOM      4  N   UNL     1      -3.176  -1.507  25.638  0.00  0.00    -0.204 NA
ATOM      5  C   UNL     1      -2.635  -1.426  25.020  0.00  0.00    +0.223 A 
ATOM      6  C   UNL     1      -2.969  -1.763  24.345  0.00  0.00    +0.117 A 
ENDBRANCH   7   5
ENDBRANCH  10   7
ENDBRANCH  11  10
BRANCH  31  33
ATOM     33  C   UNL     1      -1.376   3.056  25.139  0.00  0.00    +0.228 C 
BRANCH  33  34
ATOM     34  O   UNL     1      -1.112   3.819  24.968  0.00  0.00    -0.333 OA
BRANCH  34  35
ATOM     35  C   UNL     1      -1.380   4.458  25.418  0.00  0.00    +0.257 C 
BRANCH  35  36
ATOM     36  C   UNL     1      -1.328   5.224  25.118  0.00  0.00    +0.394 C 
ATOM     37  O   UNL     1      -1.981   5.725  25.151  0.00  0.00    -0.243 OA
ATOM     38  O   UNL     1      -0.621   5.488  24.783  0.00  0.00    -0.243 OA
ENDBRANCH  35  36
ENDBRANCH  34  35
ENDBRANCH  33  34
ENDBRANCH  31  33
TORSDOF 12
ENDMDL
MODEL 3
REMARK VINA RESULT:      -8.8      1.983      5.569
REMARK  Name = 
REMARK  12 active torsions:
REMARK  status: ('A' for Active; 'I' for Inactive)
REMARK    1  A    between atoms: C_5  and  S_7
REMARK    2  A    between atoms: S_7  and  N_10
REMARK    3  A    between atoms: N_10  and  C_11
REMARK    4  A    between atoms: C_15  and  C_17
REMARK    5  A    between atoms: N_19  and  C_20
REMARK    6  A    between atoms: C_20  and  C_21
REMARK    7  A    between atoms: C_20  and  C_28
REMARK    8  A    between atoms: C_21  and  C_22
REMARK    9  A    between atoms: C_31  and  C_33
REMARK   10  A    between atoms: C_33  and  O_34
REMARK   11  A    between atoms: O_34  and  C_35
REMARK   12  A    between atoms: C_35  and  C_36
REMARK                            x       y       z     vdW  Elec       q    Type
REMARK                         _______ _______ _______ _____ _____    ______ ____
ROOT
ATOM     11  C   UNL     1      -1.365  -0.220  25.090  0.00  0.00    +0.102 C 
ATOM     12  C   UNL     1      -1.871  -0.865  25.183  0.00  0.00    +0.041 C 
ATOM     13  C   UNL     1      -2.688  -0.752  25.190  0.00  0.00    +0.095 C 
ATOM     14  N   UNL     1      -2.999   0.008  25.103  0.00  0.00    -0.271 N 
ATOM     15  C   UNL     1      -2.493   0.653  25.009  0.00  0.00    +0.155 C 
ATOM     16  C   UNL     1      -1.676   0.539  25.002  0.00  0.00    +0.049 C 
ATOM     31  C   UNL     1      -3.817   0.122  25.109  0.00  0.00    +0.256 C 
ATOM     32  O   UNL     1      -4.322  -0.522  25.203  0.00  0.00    -0.272 OA
ENDROOT
BRANCH  15  17
ATOM     17  C   UNL     1      -2.806   1.412  24.922  0.00  0.00    +0.260 C 
ATOM     18  O   UNL     1      -3.527   1.604  25.275  0.00  0.00    -0.272 OA
ATOM     19  N   UNL     1      -2.398   1.978  24.483  0.00  0.00    -0.196 NA
BRANCH  19  20
ATOM     20  C   UNL     1      -2.710   2.736  24.396  0.00  0.00    +0.179 C 
BRANCH  20  28
ATOM     28  C   UNL     1      -3.063   2.958  23.683  0.00  0.00    +0.281 C 
ATOM     29  N   UNL     1      -2.741   2.704  22.967  0.00  0.00    -0.086 NA
ATOM     30  O   UNL     1      -3.737   3.432  23.687  0.00  0.00    -0.270 OA
ENDBRANCH  20  28
BRANCH  20  21
ATOM     21  C   UNL     1      -2.670   3.274  25.020  0.00  0.00    +0.057 C 
BRANCH  21  22
ATOM     22  C   UNL     1      -2.066   3.834  25.045  0.00  0.00    -0.020 A 
ATOM     23  C   UNL     1      -2.248   4.636  25.114  0.00  0.00    -0.004 A 
ATOM     24  C   UNL     1      -1.644   5.196  25.139  0.00  0.00    -0.000 A 
ATOM     25  C   UNL     1      -0.855   4.955  25.094  0.00  0.00    -0.000 A 
ATOM     26  C   UNL     1      -0.673   4.154  25.025  0.00  0.00    -0.000 A 
ATOM     27  C   UNL     1      -1.277   3.593  25.001  0.00  0.00    -0.004 A 
ENDBRANCH  21  22
ENDBRANCH  20  21
ENDBRANCH  19  20
ENDBRANCH  15  17
BRANCH  11  10
ATOM     10  N   UNL     1      -0.549  -0.334  25.083  0.00  0.00    -0.078 NA
BRANCH  10   7
ATOM      7  S   UNL     1      -0.133  -0.306  24.371  0.00  0.00    +0.095 S 
ATOM      8  O   UNL     1      -0.375  -1.076  24.200  0.00  0.00    -0.150 OA
ATOM      9  O   UNL     1       0.108   0.464  24.543  0.00  0.00    -0.150 OA
BRANCH   7   5
ATOM      1  C   UNL     1       2.000   0.046  22.431  0.00  0.00    +0.132 C 
ATOM      2  N   UNL     1       1.264  -0.115  22.768  0.00  0.00    -0.305 N 
ATOM      3  C   UNL     1       0.586  -0.348  22.361  0.00  0.00    +0.180 A 
ATOM      4  N   UNL     1      -0.020  -0.448  22.912  0.00  0.00    -0.204 NA
ATOM      5  C   UNL     1       0.283  -0.277  23.659  0.00  0.00    +0.223 A 
ATOM      6  C   UNL     1       1.077  -0.070  23.570  0.00  0.00    +0.117 A 
ENDBRANCH   7   5
ENDBRANCH  10   7
ENDBRANCH  11  10
BRANCH  31  33
ATOM     33  C   UNL     1      -4.128   0.881  25.022  0.00  0.00    +0.228 C 
BRANCH  33  34
ATOM     34  O   UNL     1      -4.847   1.074  25.377  0.00  0.00    -0.333 OA
BRANCH  34  35
ATOM     35  C   UNL     1      -5.526   1.156  24.914  0.00  0.00    +0.257 C 
BRANCH  35  36
ATOM     36  C   UNL     1      -6.151   1.624  25.179  0.00  0.00    +0.394 C 
ATOM     37  O   UNL     1      -6.201   1.833  25.975  0.00  0.00    -0.243 OA
ATOM     38  O   UNL     1      -6.728   1.882  24.648  0.00  0.00    -0.243 OA
ENDBRANCH  35  36
ENDBRANCH  34  35
ENDBRANCH  33  34
ENDBRANCH  31  33
TORSDOF 12
ENDMDL
MODEL 4
REMARK VINA RESULT:      -8.8      1.581      3.366
REMARK  Name = 
REMARK  12 active torsions:
REMARK  status: ('A' for Active; 'I' for Inactive)
REMARK    1  A    between atoms: C_5  and  S_7
REMARK    2  A    between atoms: S_7  and  N_10
REMARK    3  A    between atoms: N_10  and  C_11
REMARK    4  A    between atoms: C_15  and  C_17
REMARK    5  A    between atoms: N_19  and  C_20
REMARK    6  A    between atoms: C_20  and  C_21
REMARK    7  A    between atoms: C_20  and  C_28
REMARK    8  A    between atoms: C_21  and  C_22
REMARK    9  A    between atoms: C_31  and  C_33
REMARK   10  A    between atoms: C_33  and  O_34
REMARK   11  A    between atoms: O_34  and  C_35
REMARK   12  A    between atoms: C_35  and  C_36
REMARK                            x       y       z     vdW  Elec       q    Type
REMARK                         _______ _______ _______ _____ _____    ______ ____
ROOT
ATOM     11  C   UNL     1      -2.642  -0.182  25.002  0.00  0.00    +0.102 C 
ATOM     12  C   UNL     1      -2.410  -0.861  24.594  0.00  0.00    +0.041 C 
ATOM     13  C   UNL     1      -1.671  -0.892  24.230  0.00  0.00    +0.095 C 
ATOM     14  N   UNL     1      -1.162  -0.243  24.273  0.00  0.00    -0.271 N 
ATOM     15  C   UNL     1      -1.394   0.436  24.680  0.00  0.00    +0.155 C 
ATOM     16  C   UNL     1      -2.134   0.466  25.044  0.00  0.00    +0.049 C 
ATOM     31  C   UNL     1      -0.422  -0.275  23.909  0.00  0.00    +0.256 C 
ATOM     32  O   UNL     1      -0.191  -0.953  23.502  0.00  0.00    -0.272 OA
ENDROOT
BRANCH  15  17
ATOM     17  C   UNL     1      -0.885   1.084  24.723  0.00  0.00    +0.260 C 
ATOM     18  O   UNL     1      -0.255   1.149  24.193  0.00  0.00    -0.272 OA
ATOM     19  N   UNL     1      -1.005   1.666  25.294  0.00  0.00    -0.196 NA
BRANCH  19  20
ATOM     20  C   UNL     1      -0.496   2.314  25.336  0.00  0.00    +0.179 C 
BRANCH  20  28
ATOM     28  C   UNL     1       0.066   2.358  25.940  0.00  0.00    +0.281 C 
ATOM     29  N   UNL     1      -0.152   2.195  26.719  0.00  0.00    -0.086 NA
ATOM     30  O   UNL     1       0.844   2.565  25.763  0.00  0.00    -0.270 OA
ENDBRANCH  20  28
BRANCH  20  21
ATOM     21  C   UNL     1      -0.548   2.917  24.776  0.00  0.00    +0.057 C 
BRANCH  21  22
ATOM     22  C   UNL     1      -0.970   3.604  24.948  0.00  0.00    -0.020 A 
ATOM     23  C   UNL     1      -0.628   4.344  24.815  0.00  0.00    -0.004 A 
ATOM     24  C   UNL     1      -1.050   5.031  24.987  0.00  0.00    -0.000 A 
ATOM     25  C   UNL     1      -1.816   4.979  25.292  0.00  0.00    -0.000 A 
ATOM     26  C   UNL     1      -2.158   4.241  25.425  0.00  0.00    -0.000 A 
ATOM     27  C   UNL     1      -1.736   3.553  25.253  0.00  0.00    -0.004 A 
ENDBRANCH  21  22
ENDBRANCH  20  21
ENDBRANCH  19  20
ENDBRANCH  15  17
BRANCH  11  10
ATOM     10  N   UNL     1      -3.381  -0.151  25.365  0.00  0.00    -0.078 NA
BRANCH  10   7
ATOM      7  S   UNL     1      -3.929   0.423  25.140  0.00  0.00    +0.095 S 
ATOM      8  O   UNL     1      -4.106  -0.012  24.461  0.00  0.00    -0.150 OA
ATOM      9  O   UNL     1      -3.752   0.857  25.819  0.00  0.00    -0.150 OA
BRANCH   7   5
ATOM      1  C   UNL     1      -6.289   2.115  25.081  0.00  0.00    +0.132 C 
ATOM      2  N   UNL     1      -5.562   1.775  24.889  0.00  0.00    -0.305 N 
ATOM      3  C   UNL     1      -5.080   1.988  24.255  0.00  0.00    +0.180 A 
ATOM      4  N   UNL     1      -4.409   1.508  24.271  0.00  0.00    -0.204 NA
ATOM      5  C   UNL     1      -4.477   0.998  24.916  0.00  0.00    +0.223 A 
ATOM      6  C   UNL     1      -5.189   1.163  25.298  0.00  0.00    +0.117 A 
ENDBRANCH   7   5
ENDBRANCH  10   7
ENDBRANCH  11  10
BRANCH  31  33
ATOM     33  C   UNL     1       0.086   0.374  23.952  0.00  0.00    +0.228 C 
BRANCH  33  34
ATOM     34  O   UNL     1       0.663   0.484  23.373  0.00  0.00    -0.333 OA
BRANCH  34  35
ATOM     35  C   UNL     1       1.430   0.205  23.498  0.00  0.00    +0.257 C 
BRANCH  35  36
ATOM     36  C   UNL     1       2.048   0.470  23.020  0.00  0.00    +0.394 C 
ATOM     37  O   UNL     1       2.503   1.115  23.255  0.00  0.00    -0.243 OA
ATOM     38  O   UNL     1       2.209   0.089  22.305  0.00  0.00    -0.243 OA
ENDBRANCH  35  36
ENDBRANCH  34  35
ENDBRANCH  33  34
ENDBRANCH  31  33
TORSDOF 12
ENDMDL
MODEL 5
REMARK VINA RESULT:      -8.8      1.900      4.869
REMARK  Name = 
REMARK  12 active torsions:
REMARK  status: ('A' for Active; 'I' for Inactive)
REMARK    1  A    between atoms: C_5  and  S_7
REMARK    2  A    between atoms: S_7  and  N_10
REMARK    3  A    between atoms: N_10  and  C_11
REMARK    4  A    between atoms: C_15  and  C_17
REMARK    5  A    between atoms: N_19  and  C_20
REMARK    6  A    between atoms: C_20  and  C_21
REMARK    7  A    between atoms: C_20  and  C_28
REMARK    8  A    between atoms: C_21  and  C_22
REMARK    9  A    between atoms: C_31  and  C_33
REMARK   10  A    between atoms: C_33  and  O_34
REMARK   11  A    between atoms: O_34  and  C_35
REMARK   12  A    between atoms: C_35  and  C_36
REMARK                            x       y       z     vdW  Elec       q    Type
REMARK                         _______ _______ _______ _____ _____    ______ ____
ROOT
ATOM     11  C   UNL     1      -0.002   0.413  23.868  0.00  0.00    +0.102 C 
ATOM     12  C   UNL     1       0.424   1.093  24.060  0.00  0.00    +0.041 C 
ATOM     13  C   UNL     1       0.047   1.726  24.430  0.00  0.00    +0.095 C 
ATOM     14  N   UNL     1      -0.758   1.679  24.609  0.00  0.00    -0.271 N 
ATOM     15  C   UNL     1      -1.184   0.999  24.416  0.00  0.00    +0.155 C 
ATOM     16  C   UNL     1      -0.805   0.367  24.046  0.00  0.00    +0.049 C 
ATOM     31  C   UNL     1      -1.136   2.313  24.979  0.00  0.00    +0.256 C 
ATOM     32  O   UNL     1      -0.711   2.992  25.171  0.00  0.00    -0.272 OA
ENDROOT
BRANCH  15  17
ATOM     17  C   UNL     1      -1.989   0.953  24.595  0.00  0.00    +0.260 C 
ATOM     18  O   UNL     1      -2.311   1.445  25.174  0.00  0.00    -0.272 OA
ATOM     19  N   UNL     1      -2.470   0.416  24.195  0.00  0.00    -0.196 NA
BRANCH  19  20
ATOM     20  C   UNL     1      -3.273   0.370  24.374  0.00  0.00    +0.179 C 
BRANCH  20  28
ATOM     28  C   UNL     1      -3.820   0.804  23.931  0.00  0.00    +0.281 C 
ATOM     29  N   UNL     1      -4.518   1.067  24.283  0.00  0.00    -0.086 NA
ATOM     30  O   UNL     1      -3.667   0.973  23.139  0.00  0.00    -0.270 OA
ENDBRANCH  20  28
BRANCH  20  21
ATOM     21  C   UNL     1      -3.532  -0.108  24.994  0.00  0.00    +0.057 C 
BRANCH  21  22
ATOM     22  C   UNL     1      -3.586  -0.924  24.891  0.00  0.00    -0.020 A 
ATOM     23  C   UNL     1      -3.944  -1.233  24.215  0.00  0.00    -0.004 A 
ATOM     24  C   UNL     1      -3.998  -2.049  24.112  0.00  0.00    -0.000 A 
ATOM     25  C   UNL     1      -3.693  -2.559  24.686  0.00  0.00    -0.000 A 
ATOM     26  C   UNL     1      -3.335  -2.251  25.362  0.00  0.00    -0.000 A 
ATOM     27  C   UNL     1      -3.281  -1.434  25.465  0.00  0.00    -0.004 A 
ENDBRANCH  21  22
ENDBRANCH  20  21
ENDBRANCH  19  20
ENDBRANCH  15  17
BRANCH  11  10
ATOM     10  N   UNL     1       0.376  -0.219  23.498  0.00  0.00    -0.078 NA
BRANCH  10   7
ATOM      7  S   UNL     1       1.090  -0.100  23.102  0.00  0.00    +0.095 S 
ATOM      8  O   UNL     1       0.678   0.149  22.432  0.00  0.00    -0.150 OA
ATOM      9  O   UNL     1       1.502  -0.348  23.773  0.00  0.00    -0.150 OA
BRANCH   7   5
ATOM      1  C   UNL     1       3.851   0.610  22.542  0.00  0.00    +0.132 C 
ATOM      2  N   UNL     1       3.074   0.346  22.451  0.00  0.00    -0.305 N 
ATOM      3  C   UNL     1       2.737   0.061  21.754  0.00  0.00    +0.180 A 
ATOM      4  N   UNL     1       1.953  -0.140  21.913  0.00  0.00    -0.204 NA
ATOM      5  C   UNL     1       1.805   0.019  22.708  0.00  0.00    +0.223 A 
ATOM      6  C   UNL     1       2.498   0.320  23.041  0.00  0.00    +0.117 A 
ENDBRANCH   7   5
ENDBRANCH  10   7
ENDBRANCH  11  10
BRANCH  31  33
ATOM     33  C   UNL     1      -1.940   2.265  25.157  0.00  0.00    +0.228 C 
BRANCH  33  34
ATOM     34  O   UNL     1      -2.277   2.800  25.688  0.00  0.00    -0.333 OA
BRANCH  34  35
ATOM     35  C   UNL     1      -2.629   3.492  25.408  0.00  0.00    +0.257 C 
BRANCH  35  36
ATOM     36  C   UNL     1      -3.177   3.893  25.875  0.00  0.00    +0.394 C 
ATOM     37  O   UNL     1      -2.936   4.256  26.575  0.00  0.00    -0.243 OA
ATOM     38  O   UNL     1      -3.968   3.931  25.642  0.00  0.00    -0.243 OA
ENDBRANCH  35  36
ENDBRANCH  34  35
ENDBRANCH  33  34
ENDBRANCH  31  33
TORSDOF 12
ENDMDL
MODEL 6
REMARK VINA RESULT:      -8.6      1.976      4.558
REMARK  Name = 
REMARK  12 active torsions:
REMARK  status: ('A' for Active; 'I' for Inactive)
REMARK    1  A    between atoms: C_5  and  S_7
REMARK    2  A    between atoms: S_7  and  N_10
REMARK    3  A    between atoms: N_10  and  C_11
REMARK    4  A    between atoms: C_15  and  C_17
REMARK    5  A    between atoms: N_19  and  C_20
REMARK    6  A    between atoms: C_20  and  C_21
REMARK    7  A    between atoms: C_20  and  C_28
REMARK    8  A    between atoms: C_21  and  C_22
REMARK    9  A    between atoms: C_31  and  C_33
REMARK   10  A    between atoms: C_33  and  O_34
REMARK   11  A    between atoms: O_34  and  C_35
REMARK   12  A    between atoms: C_35  and  C_36
REMARK                            x       y       z     vdW  Elec       q    Type
REMARK                         _______ _______ _______ _____ _____    ______ ____
ROOT
ATOM     11  C   UNL     1      -4.612   1.130  24.839  0.00  0.00    +0.102 C 
ATOM     12  C   UNL     1      -4.980   1.683  25.327  0.00  0.00    +0.041 C 
ATOM     13  C   UNL     1      -4.618   2.409  25.475  0.00  0.00    +0.095 C 
ATOM     14  N   UNL     1      -3.886   2.581  25.134  0.00  0.00    -0.271 N 
ATOM     15  C   UNL     1      -3.517   2.028  24.646  0.00  0.00    +0.155 C 
ATOM     16  C   UNL     1      -3.881   1.302  24.498  0.00  0.00    +0.049 C 
ATOM     31  C   UNL     1      -3.522   3.308  25.282  0.00  0.00    +0.256 C 
ATOM     32  O   UNL     1      -3.890   3.861  25.770  0.00  0.00    -0.272 OA
ENDROOT
BRANCH  15  17
ATOM     17  C   UNL     1      -2.786   2.201  24.305  0.00  0.00    +0.260 C 
ATOM     18  O   UNL     1      -2.519   2.982  24.276  0.00  0.00    -0.272 OA
ATOM     19  N   UNL     1      -2.321   1.595  23.995  0.00  0.00    -0.196 NA
BRANCH  19  20
ATOM     20  C   UNL     1      -1.591   1.768  23.655  0.00  0.00    +0.179 C 
BRANCH  20  28
ATOM     28  C   UNL     1      -1.554   2.078  22.890  0.00  0.00    +0.281 C 
ATOM     29  N   UNL     1      -2.068   1.799  22.307  0.00  0.00    -0.086 NA
ATOM     30  O   UNL     1      -1.005   2.666  22.710  0.00  0.00    -0.270 OA
ENDBRANCH  20  28
BRANCH  20  21
ATOM     21  C   UNL     1      -0.895   1.632  24.078  0.00  0.00    +0.057 C 
BRANCH  21  22
ATOM     22  C   UNL     1      -0.648   0.860  24.229  0.00  0.00    -0.020 A 
ATOM     23  C   UNL     1      -0.706   0.549  24.991  0.00  0.00    -0.004 A 
ATOM     24  C   UNL     1      -0.459  -0.223  25.142  0.00  0.00    -0.000 A 
ATOM     25  C   UNL     1      -0.153  -0.686  24.530  0.00  0.00    -0.000 A 
ATOM     26  C   UNL     1      -0.095  -0.376  23.768  0.00  0.00    -0.000 A 
ATOM     27  C   UNL     1      -0.343   0.397  23.617  0.00  0.00    -0.004 A 
ENDBRANCH  21  22
ENDBRANCH  20  21
ENDBRANCH  19  20
ENDBRANCH  15  17
BRANCH  11  10
ATOM     10  N   UNL     1      -4.975   0.405  24.691  0.00  0.00    -0.078 NA
BRANCH  10   7
ATOM      7  S   UNL     1      -4.559  -0.298  24.811  0.00  0.00    +0.095 S 
ATOM      8  O   UNL     1      -4.585  -0.175  25.626  0.00  0.00    -0.150 OA
ATOM      9  O   UNL     1      -4.534  -0.420  23.995  0.00  0.00    -0.150 OA
BRANCH   7   5
ATOM      1  C   UNL     1      -3.278  -2.862  24.339  0.00  0.00    +0.132 C 
ATOM      2  N   UNL     1      -3.555  -2.179  24.711  0.00  0.00    -0.305 N 
ATOM      3  C   UNL     1      -3.452  -1.985  25.506  0.00  0.00    +0.180 A 
ATOM      4  N   UNL     1      -3.816  -1.257  25.641  0.00  0.00    -0.204 NA
ATOM      5  C   UNL     1      -4.143  -1.000  24.929  0.00  0.00    +0.223 A 
ATOM      6  C   UNL     1      -3.982  -1.570  24.354  0.00  0.00    +0.117 A 
ENDBRANCH   7   5
ENDBRANCH  10   7
ENDBRANCH  11  10
BRANCH  31  33
ATOM     33  C   UNL     1      -2.791   3.480  24.941  0.00  0.00    +0.228 C 
BRANCH  33  34
ATOM     34  O   UNL     1      -2.521   4.259  24.917  0.00  0.00    -0.333 OA
BRANCH  34  35
ATOM     35  C   UNL     1      -1.889   4.491  25.395  0.00  0.00    +0.257 C 
BRANCH  35  36
ATOM     36  C   UNL     1      -1.421   5.133  25.174  0.00  0.00    +0.394 C 
ATOM     37  O   UNL     1      -0.630   5.018  24.974  0.00  0.00    -0.243 OA
ATOM     38  O   UNL     1      -1.745   5.892  25.155  0.00  0.00    -0.243 OA
ENDBRANCH  35  36
ENDBRANCH  34  35
ENDBRANCH  33  34
ENDBRANCH  31  33
TORSDOF 12
ENDMDL
MODEL 7
REMARK VINA RESULT:      -8.6      0.969      1.244
REMARK  Name = 
REMARK  12 active torsions:
REMARK  status: ('A' for Active; 'I' for Inactive)
REMARK    1  A    between atoms: C_5  and  S_7
REMARK    2  A    between atoms: S_7  and  N_10
REMARK    3  A    between atoms: N_10  and  C_11
REMARK    4  A    between atoms: C_15  and  C_17
REMARK    5  A    between atoms: N_19  and  C_20
REMARK    6  A    between atoms: C_20  and  C_21
REMARK    7  A    between atoms: C_20  and  C_28
REMARK    8  A    between atoms: C_21  and  C_22
REMARK    9  A    between atoms: C_31  and  C_33
REMARK   10  A    between atoms: C_33  and  O_34
REMARK   11  A    between atoms: O_34  and  C_35
REMARK   12  A    between atoms: C_35  and  C_36
REMARK                            x       y       z     vdW  Elec       q    Type
REMARK                         _______ _______ _______ _____ _____    ______ ____
ROOT
ATOM     11  C   UNL     1      -2.460   2.925  25.239  0.00  0.00    +0.102 C 
ATOM     12  C   UNL     1      -2.046   3.373  24.683  0.00  0.00    +0.041 C 
ATOM     13  C   UNL     1      -1.471   3.017  24.211  0.00  0.00    +0.095 C 
ATOM     14  N   UNL     1      -1.311   2.211  24.294  0.00  0.00    -0.271 N 
ATOM     15  C   UNL     1      -1.724   1.763  24.850  0.00  0.00    +0.155 C 
ATOM     16  C   UNL     1      -2.299   2.121  25.322  0.00  0.00    +0.049 C 
ATOM     31  C   UNL     1      -0.735   1.854  23.821  0.00  0.00    +0.256 C 
ATOM     32  O   UNL     1      -0.322   2.302  23.267  0.00  0.00    -0.272 OA
ENDROOT
BRANCH  15  17
ATOM     17  C   UNL     1      -1.563   0.958  24.932  0.00  0.00    +0.260 C 
ATOM     18  O   UNL     1      -0.785   0.686  24.883  0.00  0.00    -0.272 OA
ATOM     19  N   UNL     1      -2.178   0.425  25.065  0.00  0.00    -0.196 NA
BRANCH  19  20
ATOM     20  C   UNL     1      -2.016  -0.379  25.147  0.00  0.00    +0.179 C 
BRANCH  20  28
ATOM     28  C   UNL     1      -1.778  -0.679  25.879  0.00  0.00    +0.281 C 
ATOM     29  N   UNL     1      -1.060  -1.080  25.945  0.00  0.00    -0.086 NA
ATOM     30  O   UNL     1      -2.257  -0.578  26.542  0.00  0.00    -0.270 OA
ENDBRANCH  20  28
BRANCH  20  21
ATOM     21  C   UNL     1      -2.093  -0.884  24.499  0.00  0.00    +0.057 C 
BRANCH  21  22
ATOM     22  C   UNL     1      -2.814  -1.252  24.345  0.00  0.00    -0.020 A 
ATOM     23  C   UNL     1      -2.894  -2.066  24.450  0.00  0.00    -0.004 A 
ATOM     24  C   UNL     1      -3.616  -2.434  24.296  0.00  0.00    -0.000 A 
ATOM     25  C   UNL     1      -4.260  -1.986  24.035  0.00  0.00    -0.000 A 
ATOM     26  C   UNL     1      -4.180  -1.173  23.930  0.00  0.00    -0.000 A 
ATOM     27  C   UNL     1      -3.458  -0.804  24.084  0.00  0.00    -0.004 A 
ENDBRANCH  21  22
ENDBRANCH  20  21
ENDBRANCH  19  20
ENDBRANCH  15  17
BRANCH  11  10
ATOM     10  N   UNL     1      -3.034   3.282  25.711  0.00  0.00    -0.078 NA
BRANCH  10   7
ATOM      7  S   UNL     1      -3.831   3.098  25.602  0.00  0.00    +0.095 S 
ATOM      8  O   UNL     1      -3.825   3.497  24.880  0.00  0.00    -0.150 OA
ATOM      9  O   UNL     1      -3.837   2.699  26.324  0.00  0.00    -0.150 OA
BRANCH   7   5
ATOM      1  C   UNL     1      -6.272   1.855  24.635  0.00  0.00    +0.132 C 
ATOM      2  N   UNL     1      -5.750   2.342  25.049  0.00  0.00    -0.305 N 
ATOM      3  C   UNL     1      -5.958   2.915  25.604  0.00  0.00    +0.180 A 
ATOM      4  N   UNL     1      -5.265   3.268  25.879  0.00  0.00    -0.204 NA
ATOM      5  C   UNL     1      -4.628   2.914  25.494  0.00  0.00    +0.223 A 
ATOM      6  C   UNL     1      -4.928   2.341  24.981  0.00  0.00    +0.117 A 
ENDBRANCH   7   5
ENDBRANCH  10   7
ENDBRANCH  11  10
BRANCH  31  33
ATOM     33  C   UNL     1      -0.575   1.050  23.905  0.00  0.00    +0.228 C 
BRANCH  33  34
ATOM     34  O   UNL     1      -0.149   0.652  23.321  0.00  0.00    -0.333 OA
BRANCH  34  35
ATOM     35  C   UNL     1       0.624   0.404  23.472  0.00  0.00    +0.257 C 
BRANCH  35  36
ATOM     36  C   UNL     1       1.022  -0.062  22.919  0.00  0.00    +0.394 C 
ATOM     37  O   UNL     1       1.802   0.111  22.720  0.00  0.00    -0.243 OA
ATOM     38  O   UNL     1       0.637  -0.702  22.567  0.00  0.00    -0.243 OA
ENDBRANCH  35  36
ENDBRANCH  34  35
ENDBRANCH  33  34
ENDBRANCH  31  33
TORSDOF 12
ENDMDL
MODEL 8
REMARK VINA RESULT:      -8.4      1.743      3.753
REMARK  Name = 
REMARK  12 active torsions:
REMARK  status: ('A' for Active; 'I' for Inactive)
REMARK    1  A    between atoms: C_5  and  S_7
REMARK    2  A    between atoms: S_7  and  N_10
REMARK    3  A    between atoms: N_10  and  C_11
REMARK    4  A    between atoms: C_15  and  C_17
REMARK    5  A    between atoms: N_19  and  C_20
REMARK    6  A    between atoms: C_20  and  C_21
REMARK    7  A    between atoms: C_20  and  C_28
REMARK    8  A    between atoms: C_21  and  C_22
REMARK    9  A    between atoms: C_31  and  C_33
REMARK   10  A    between atoms: C_33  and  O_34
REMARK   11  A    between atoms: O_34  and  C_35
REMARK   12  A    between atoms: C_35  and  C_36
REMARK                            x       y       z     vdW  Elec       q    Type
REMARK                         _______ _______ _______ _____ _____    ______ ____
ROOT
ATOM     11  C   UNL     1      -4.363   2.029  24.595  0.00  0.00    +0.102 C 
ATOM     12  C   UNL     1      -4.959   1.486  24.770  0.00  0.00    +0.041 C 
ATOM     13  C   UNL     1      -4.790   0.678  24.786  0.00  0.00    +0.095 C 
ATOM     14  N   UNL     1      -4.024   0.415  24.627  0.00  0.00    -0.271 N 
ATOM     15  C   UNL     1      -3.428   0.958  24.453  0.00  0.00    +0.155 C 
ATOM     16  C   UNL     1      -3.598   1.765  24.437  0.00  0.00    +0.049 C 
ATOM     31  C   UNL     1      -3.854  -0.393  24.643  0.00  0.00    +0.256 C 
ATOM     32  O   UNL     1      -4.449  -0.936  24.818  0.00  0.00    -0.272 OA
ENDROOT
BRANCH  15  17
ATOM     17  C   UNL     1      -2.662   0.693  24.294  0.00  0.00    +0.260 C 
ATOM     18  O   UNL     1      -2.530  -0.101  24.112  0.00  0.00    -0.272 OA
ATOM     19  N   UNL     1      -2.030   1.222  24.317  0.00  0.00    -0.196 NA
BRANCH  19  20
ATOM     20  C   UNL     1      -1.266   0.957  24.159  0.00  0.00    +0.179 C 
BRANCH  20  28
ATOM     28  C   UNL     1      -1.014   0.866  23.377  0.00  0.00    +0.281 C 
ATOM     29  N   UNL     1      -0.496   0.254  23.180  0.00  0.00    -0.086 NA
ATOM     30  O   UNL     1      -1.280   1.386  22.795  0.00  0.00    -0.270 OA
ENDBRANCH  20  28
BRANCH  20  21
ATOM     21  C   UNL     1      -0.751   0.783  24.780  0.00  0.00    +0.057 C 
BRANCH  21  22
ATOM     22  C   UNL     1      -0.436   1.391  25.238  0.00  0.00    -0.020 A 
ATOM     23  C   UNL     1      -0.611   1.435  26.044  0.00  0.00    -0.004 A 
ATOM     24  C   UNL     1      -0.296   2.043  26.502  0.00  0.00    -0.000 A 
ATOM     25  C   UNL     1       0.194   2.610  26.155  0.00  0.00    -0.000 A 
ATOM     26  C   UNL     1       0.369   2.567  25.351  0.00  0.00    -0.000 A 
ATOM     27  C   UNL     1       0.054   1.958  24.891  0.00  0.00    -0.004 A 
ENDBRANCH  21  22
ENDBRANCH  20  21
ENDBRANCH  19  20
ENDBRANCH  15  17
BRANCH  11  10
ATOM     10  N   UNL     1      -4.533   2.835  24.580  0.00  0.00    -0.078 NA
BRANCH  10   7
ATOM      7  S   UNL     1      -4.014   3.374  24.929  0.00  0.00    +0.095 S 
ATOM      8  O   UNL     1      -4.297   3.162  25.675  0.00  0.00    -0.150 OA
ATOM      9  O   UNL     1      -3.732   3.585  24.183  0.00  0.00    -0.150 OA
BRANCH   7   5
ATOM      1  C   UNL     1      -1.915   5.349  25.289  0.00  0.00    +0.132 C 
ATOM      2  N   UNL     1      -2.531   4.821  25.442  0.00  0.00    -0.305 N 
ATOM      3  C   UNL     1      -2.862   4.664  26.180  0.00  0.00    +0.180 A 
ATOM      4  N   UNL     1      -3.458   4.103  26.079  0.00  0.00    -0.204 NA
ATOM      5  C   UNL     1      -3.495   3.913  25.277  0.00  0.00    +0.223 A 
ATOM      6  C   UNL     1      -2.922   4.357  24.883  0.00  0.00    +0.117 A 
ENDBRANCH   7   5
ENDBRANCH  10   7
ENDBRANCH  11  10
BRANCH  31  33
ATOM     33  C   UNL     1      -3.088  -0.657  24.485  0.00  0.00    +0.228 C 
BRANCH  33  34
ATOM     34  O   UNL     1      -2.959  -1.444  24.277  0.00  0.00    -0.333 OA
BRANCH  34  35
ATOM     35  C   UNL     1      -2.644  -1.970  24.831  0.00  0.00    +0.257 C 
BRANCH  35  36
ATOM     36  C   UNL     1      -2.222  -2.632  24.577  0.00  0.00    +0.394 C 
ATOM     37  O   UNL     1      -1.423  -2.708  24.763  0.00  0.00    -0.243 OA
ATOM     38  O   UNL     1      -2.602  -3.218  24.137  0.00  0.00    -0.243 OA
ENDBRANCH  35  36
ENDBRANCH  34  35
ENDBRANCH  33  34
ENDBRANCH  31  33
TORSDOF 12
ENDMDL
MODEL 9
REMARK VINA RESULT:      -8.4      1.725      3.709
REMARK  Name = 
REMARK  12 active torsions:
REMARK  status: ('A' for Active; 'I' for Inactive)
REMARK    1  A    between atoms: C_5  and  S_7
REMARK    2  A    between atoms: S_7  and  N_10
REMARK    3  A    between atoms: N_10  and  C_11
REMARK    4  A    between atoms: C_15  and  C_17
REMARK    5  A    between atoms: N_19  and  C_20
REMARK    6  A    between atoms: C_20  and  C_21
REMARK    7  A    between atoms: C_20  and  C_28
REMARK    8  A    between atoms: C_21  and  C_22
REMARK    9  A    between atoms: C_31  and  C_33
REMARK   10  A    between atoms: C_33  and  O_34
REMARK   11  A    between atoms: O_34  and  C_35
REMARK   12  A    between atoms: C_35  and  C_36
REMARK                            x       y       z     vdW  Elec       q    Type
REMARK                         _______ _______ _______ _____ _____    ______ ____
ROOT
ATOM     11  C   UNL     1      -4.503   0.780  24.686  0.00  0.00    +0.102 C 
ATOM     12  C   UNL     1      -4.652   0.000  24.910  0.00  0.00    +0.041 C 
ATOM     13  C   UNL     1      -4.029  -0.493  25.131  0.00  0.00    +0.095 C 
ATOM     14  N   UNL     1      -3.255  -0.206  25.128  0.00  0.00    -0.271 N 
ATOM     15  C   UNL     1      -3.105   0.574  24.905  0.00  0.00    +0.155 C 
ATOM     16  C   UNL     1      -3.730   1.067  24.684  0.00  0.00    +0.049 C 
ATOM     31  C   UNL     1      -2.631  -0.699  25.349  0.00  0.00    +0.256 C 
ATOM     32  O   UNL     1      -2.781  -1.478  25.573  0.00  0.00    -0.272 OA
ENDROOT
BRANCH  15  17
ATOM     17  C   UNL     1      -2.331   0.861  24.902  0.00  0.00    +0.260 C 
ATOM     18  O   UNL     1      -1.735   0.439  25.287  0.00  0.00    -0.272 OA
ATOM     19  N   UNL     1      -2.154   1.567  24.516  0.00  0.00    -0.196 NA
BRANCH  19  20
ATOM     20  C   UNL     1      -1.381   1.853  24.514  0.00  0.00    +0.179 C 
BRANCH  20  28
ATOM     28  C   UNL     1      -0.891   1.713  23.863  0.00  0.00    +0.281 C 
ATOM     29  N   UNL     1      -1.206   1.723  23.101  0.00  0.00    -0.086 NA
ATOM     30  O   UNL     1      -0.088   1.564  23.977  0.00  0.00    -0.270 OA
ENDBRANCH  20  28
BRANCH  20  21
ATOM     21  C   UNL     1      -1.095   2.278  25.161  0.00  0.00    +0.057 C 
BRANCH  21  22
ATOM     22  C   UNL     1      -1.238   3.088  25.218  0.00  0.00    -0.020 A 
ATOM     23  C   UNL     1      -1.831   3.369  25.718  0.00  0.00    -0.004 A 
ATOM     24  C   UNL     1      -1.974   4.179  25.775  0.00  0.00    -0.000 A 
ATOM     25  C   UNL     1      -1.522   4.710  25.332  0.00  0.00    -0.000 A 
ATOM     26  C   UNL     1      -0.929   4.429  24.833  0.00  0.00    -0.000 A 
ATOM     27  C   UNL     1      -0.786   3.619  24.775  0.00  0.00    -0.004 A 
ENDBRANCH  21  22
ENDBRANCH  20  21
ENDBRANCH  19  20
ENDBRANCH  15  17
BRANCH  11  10
ATOM     10  N   UNL     1      -5.126   1.272  24.466  0.00  0.00    -0.078 NA
BRANCH  10   7
ATOM      7  S   UNL     1      -5.285   1.957  24.898  0.00  0.00    +0.095 S 
ATOM      8  O   UNL     1      -5.604   1.500  25.506  0.00  0.00    -0.150 OA
ATOM      9  O   UNL     1      -4.965   2.414  24.289  0.00  0.00    -0.150 OA
BRANCH   7   5
ATOM      1  C   UNL     1      -5.687   4.747  25.600  0.00  0.00    +0.132 C 
ATOM      2  N   UNL     1      -5.628   3.925  25.651  0.00  0.00    -0.305 N 
ATOM      3  C   UNL     1      -5.745   3.472  26.330  0.00  0.00    +0.180 A 
ATOM      4  N   UNL     1      -5.631   2.680  26.131  0.00  0.00    -0.204 NA
ATOM      5  C   UNL     1      -5.443   2.642  25.329  0.00  0.00    +0.223 A 
ATOM      6  C   UNL     1      -5.441   3.413  25.032  0.00  0.00    +0.117 A 
ENDBRANCH   7   5
ENDBRANCH  10   7
ENDBRANCH  11  10
BRANCH  31  33
ATOM     33  C   UNL     1      -1.858  -0.412  25.347  0.00  0.00    +0.228 C 
BRANCH  33  34
ATOM     34  O   UNL     1      -1.238  -0.897  25.591  0.00  0.00    -0.333 OA
BRANCH  34  35
ATOM     35  C   UNL     1      -0.935  -1.468  25.077  0.00  0.00    +0.257 C 
BRANCH  35  36
ATOM     36  C   UNL     1      -0.148  -1.706  25.144  0.00  0.00    +0.394 C 
ATOM     37  O   UNL     1       0.089  -2.173  25.781  0.00  0.00    -0.243 OA
ATOM     38  O   UNL     1       0.402  -1.477  24.573  0.00  0.00    -0.243 OA
ENDBRANCH  35  36
ENDBRANCH  34  35
ENDBRANCH  33  34
ENDBRANCH  31  33
TORSDOF 12
ENDMDL
MODEL 10
REMARK VINA RESULT:      -8.4      2.216      5.612
REMARK  Name = 
REMARK  12 active torsions:
REMARK  status: ('A' for Active; 'I' for Inactive)
REMARK    1  A    between atoms: C_5  and  S_7
REMARK    2  A    between atoms: S_7  and  N_10
REMARK    3  A    between atoms: N_10  and  C_11
REMARK    4  A    between atoms: C_15  and  C_17
REMARK    5  A    between atoms: N_19  and  C_20
REMARK    6  A    between atoms: C_20  and  C_21
REMARK    7  A    between atoms: C_20  and  C_28
REMARK    8  A    between atoms: C_21  and  C_22
REMARK    9  A    between atoms: C_31  and  C_33
REMARK   10  A    between atoms: C_33  and  O_34
REMARK   11  A    between atoms: O_34  and  C_35
REMARK   12  A    between atoms: C_35  and  C_36
REMARK                            x       y       z     vdW  Elec       q    Type
REMARK                         _______ _______ _______ _____ _____    ______ ____
ROOT
ATOM     11  C   UNL     1      -3.616  -0.718  24.662  0.00  0.00    +0.102 C 
ATOM     12  C   UNL     1      -4.252  -0.799  25.181  0.00  0.00    +0.041 C 
ATOM     13  C   UNL     1      -4.704  -0.140  25.386  0.00  0.00    +0.095 C 
ATOM     14  N   UNL     1      -4.519   0.601  25.071  0.00  0.00    -0.271 N 
ATOM     15  C   UNL     1      -3.882   0.681  24.552  0.00  0.00    +0.155 C 
ATOM     16  C   UNL     1      -3.431   0.021  24.348  0.00  0.00    +0.049 C 
ATOM     31  C   UNL     1      -4.970   1.261  25.276  0.00  0.00    +0.256 C 
ATOM     32  O   UNL     1      -5.606   1.180  25.795  0.00  0.00    -0.272 OA
ENDROOT
BRANCH  15  17
ATOM     17  C   UNL     1      -3.698   1.422  24.238  0.00  0.00    +0.260 C 
ATOM     18  O   UNL     1      -4.300   1.965  24.081  0.00  0.00    -0.272 OA
ATOM     19  N   UNL     1      -2.913   1.621  24.082  0.00  0.00    -0.196 NA
BRANCH  19  20
ATOM     20  C   UNL     1      -2.730   2.360  23.768  0.00  0.00    +0.179 C 
BRANCH  20  28
ATOM     28  C   UNL     1      -2.862   2.514  22.968  0.00  0.00    +0.281 C 
ATOM     29  N   UNL     1      -2.571   1.996  22.395  0.00  0.00    -0.086 NA
ATOM     30  O   UNL     1      -3.286   3.184  22.741  0.00  0.00    -0.270 OA
ENDBRANCH  20  28
BRANCH  20  21
ATOM     21  C   UNL     1      -2.414   2.948  24.254  0.00  0.00    +0.057 C 
BRANCH  21  22
ATOM     22  C   UNL     1      -1.666   2.851  24.586  0.00  0.00    -0.020 A 
ATOM     23  C   UNL     1      -1.574   2.859  25.406  0.00  0.00    -0.004 A 
ATOM     24  C   UNL     1      -0.826   2.762  25.739  0.00  0.00    -0.000 A 
ATOM     25  C   UNL     1      -0.168   2.656  25.251  0.00  0.00    -0.000 A 
ATOM     26  C   UNL     1      -0.259   2.648  24.432  0.00  0.00    -0.000 A 
ATOM     27  C   UNL     1      -1.007   2.745  24.099  0.00  0.00    -0.004 A 
ENDBRANCH  21  22
ENDBRANCH  20  21
ENDBRANCH  19  20
ENDBRANCH  15  17
BRANCH  11  10
ATOM     10  N   UNL     1      -3.165  -1.377  24.457  0.00  0.00    -0.078 NA
BRANCH  10   7
ATOM      7  S   UNL     1      -2.351  -1.379  24.592  0.00  0.00    +0.095 S 
ATOM      8  O   UNL     1      -2.485  -1.479  25.400  0.00  0.00    -0.150 OA
ATOM      9  O   UNL     1      -2.218  -1.279  23.785  0.00  0.00    -0.150 OA
BRANCH   7   5
ATOM      1  C   UNL     1       0.504  -0.961  24.258  0.00  0.00    +0.132 C 
ATOM      2  N   UNL     1      -0.225  -1.189  24.572  0.00  0.00    -0.305 N 
ATOM      3  C   UNL     1      -0.343  -1.578  25.289  0.00  0.00    +0.180 A 
ATOM      4  N   UNL     1      -1.154  -1.697  25.385  0.00  0.00    -0.204 NA
ATOM      5  C   UNL     1      -1.537  -1.381  24.726  0.00  0.00    +0.223 A 
ATOM      6  C   UNL     1      -0.963  -1.067  24.224  0.00  0.00    +0.117 A 
ENDBRANCH   7   5
ENDBRANCH  10   7
ENDBRANCH  11  10
BRANCH  31  33
ATOM     33  C   UNL     1      -4.785   2.001  24.962  0.00  0.00    +0.228 C 
BRANCH  33  34
ATOM     34  O   UNL     1      -5.319   2.625  25.037  0.00  0.00    -0.333 OA
BRANCH  34  35
ATOM     35  C   UNL     1      -5.251   3.151  25.670  0.00  0.00    +0.257 C 
BRANCH  35  36
ATOM     36  C   UNL     1      -5.542   3.919  25.600  0.00  0.00    +0.394 C 
ATOM     37  O   UNL     1      -5.038   4.532  25.377  0.00  0.00    -0.243 OA
ATOM     38  O   UNL     1      -6.338   4.074  25.753  0.00  0.00    -0.243 OA
ENDBRANCH  35  36
ENDBRANCH  34  35
ENDBRANCH  33  34
ENDBRANCH  31  33
TORSDOF 12
ENDMDL
