MODEL 1
REMARK VINA RESULT:      -8.9      0.000      0.000
REMARK  Name = 
REMARK  9 active torsions:
REMARK  status: ('A' for Active; 'I' for Inactive)
REMARK    1  A    between atoms: O_2  and  C_3
REMARK    2  A    between atoms: C_3  and  C_4
REMARK    3  A    between atoms: C_4  and  O_5
REMARK    4  A    between atoms: O_5  and  C_6
REMARK    5  A    between atoms: C_9  and  C_12
REMARK    6  A    between atoms: C_15  and  C_17
REMARK    7  A    between atoms: N_21  and  C_22
REMARK    8  A    between atoms: C_22  and  C_23
REMARK    9  A    between atoms: C_26  and  S_29
REMARK                            x       y       z     vdW  Elec       q    Type
REMARK                         _______ _______ _______ _____ _____    ______ ____
ROOT
ATOM     12  C   UNL     1      -0.823  -0.197  24.430  0.00  0.00    +0.205 A 
ATOM     13  N   UNL     1      -0.847  -0.324  25.246  0.00  0.00    -0.056 NA
ATOM     14  O   UNL     1      -1.638  -0.407  25.467  0.00  0.00    -0.336 OA
ATOM     15  C   UNL     1      -2.102  -0.331  24.789  0.00  0.00    +0.251 A 
ATOM     16  N   UNL     1      -1.598  -0.201  24.149  0.00  0.00    -0.190 NA
ENDROOT
BRANCH  12   9
ATOM      6  C   UNL     1       1.218   0.140  23.071  0.00  0.00    +0.225 A 
ATOM      7  C   UNL     1       0.823   0.790  23.392  0.00  0.00    +0.058 A 
ATOM      8  C   UNL     1       0.143   0.678  23.845  0.00  0.00    +0.010 A 
ATOM      9  C   UNL     1      -0.143  -0.084  23.977  0.00  0.00    +0.058 A 
ATOM     10  C   UNL     1       0.251  -0.734  23.657  0.00  0.00    +0.105 A 
ATOM     11  N   UNL     1       0.931  -0.622  23.204  0.00  0.00    -0.210 NA
BRANCH   6   5
ATOM      5  O   UNL     1       1.898   0.252  22.618  0.00  0.00    -0.457 OA
BRANCH   5   4
ATOM      4  C   UNL     1       2.610   0.446  22.985  0.00  0.00    +0.239 C 
BRANCH   4   3
ATOM      3  C   UNL     1       3.311   0.452  22.549  0.00  0.00    +0.189 C 
BRANCH   3   2
ATOM      1  C   UNL     1       4.683   0.481  22.949  0.00  0.00    +0.174 C 
ATOM      2  O   UNL     1       3.966   0.871  22.827  0.00  0.00    -0.347 OA
ENDBRANCH   3   2
ENDBRANCH   4   3
ENDBRANCH   5   4
ENDBRANCH   6   5
ENDBRANCH  12   9
BRANCH  15  17
ATOM     17  C   UNL     1      -2.925  -0.377  24.757  0.00  0.00    +0.138 C 
ATOM     18  C   UNL     1      -3.377  -1.061  24.853  0.00  0.00    +0.027 C 
ATOM     19  C   UNL     1      -4.172  -0.854  24.778  0.00  0.00    +0.019 C 
ATOM     20  C   UNL     1      -4.212  -0.043  24.637  0.00  0.00    +0.073 C 
ATOM     21  N   UNL     1      -3.441   0.252  24.623  0.00  0.00    -0.263 NA
BRANCH  21  22
ATOM     22  C   UNL     1      -3.225   1.038  24.499  0.00  0.00    +0.099 C 
BRANCH  22  23
ATOM     23  C   UNL     1      -3.737   1.647  24.718  0.00  0.00    -0.006 A 
ATOM     24  C   UNL     1      -3.651   2.014  25.452  0.00  0.00    -0.002 A 
ATOM     25  C   UNL     1      -4.163   2.622  25.672  0.00  0.00    +0.018 A 
ATOM     26  C   UNL     1      -4.761   2.864  25.158  0.00  0.00    +0.106 A 
ATOM     27  C   UNL     1      -4.847   2.498  24.423  0.00  0.00    +0.018 A 
ATOM     28  C   UNL     1      -4.335   1.889  24.204  0.00  0.00    -0.002 A 
BRANCH  26  29
ATOM     29  S   UNL     1      -5.273   3.473  25.377  0.00  0.00    +0.010 S 
ATOM     30  C   UNL     1      -5.785   4.081  25.596  0.00  0.00    +0.182 C 
ATOM     31  O   UNL     1      -5.831   2.916  25.621  0.00  0.00    -0.169 OA
ATOM     32  O   UNL     1      -4.716   4.030  25.133  0.00  0.00    -0.169 OA
ENDBRANCH  26  29
ENDBRANCH  22  23
ENDBRANCH  21  22
ENDBRANCH  15  17
TORSDOF 9
ENDMDL
MODEL 2
REMARK VINA RESULT:      -8.0      2.213      3.849
REMARK  Name = 
REMARK  9 active torsions:
REMARK  status: ('A' for Active; 'I' for Inactive)
REMARK    1  A    between atoms: O_2  and  C_3
REMARK    2  A    between atoms: C_3  and  C_4
REMARK    3  A    between atoms: C_4  and  O_5
REMARK    4  A    between atoms: O_5  and  C_6
REMARK    5  A    between atoms: C_9  and  C_12
REMARK    6  A    between atoms: C_15  and  C_17
REMARK    7  A    between atoms: N_21  and  C_22
REMARK    8  A    between atoms: C_22  and  C_23
REMARK    9  A    between atoms: C_26  and  S_29
REMARK                            x       y       z     vdW  Elec       q    Type
REMARK                         _______ _______ _______ _____ _____    ______ ____
ROOT
ATOM     12  C   UNL     1      -0.309   1.595  25.039  0.00  0.00    +0.205 A 
ATOM     13  N   UNL     1       0.400   1.912  25.318  0.00  0.00    -0.056 NA
ATOM     14  O   UNL     1       0.313   2.732  25.361  0.00  0.00    -0.336 OA
ATOM     15  C   UNL     1      -0.449   2.921  25.109  0.00  0.00    +0.251 A 
ATOM     16  N   UNL     1      -0.833   2.218  24.909  0.00  0.00    -0.190 NA
ENDROOT
BRANCH  12   9
ATOM      6  C   UNL     1      -0.777  -0.806  24.657  0.00  0.00    +0.225 A 
ATOM      7  C   UNL     1      -0.941  -0.464  25.391  0.00  0.00    +0.058 A 
ATOM      8  C   UNL     1      -0.785   0.336  25.518  0.00  0.00    +0.010 A 
ATOM      9  C   UNL     1      -0.465   0.795  24.912  0.00  0.00    +0.058 A 
ATOM     10  C   UNL     1      -0.300   0.454  24.179  0.00  0.00    +0.105 A 
ATOM     11  N   UNL     1      -0.456  -0.346  24.052  0.00  0.00    -0.210 NA
BRANCH   6   5
ATOM      5  O   UNL     1      -0.932  -1.606  24.530  0.00  0.00    -0.457 OA
BRANCH   5   4
ATOM      4  C   UNL     1      -1.666  -1.920  24.735  0.00  0.00    +0.239 C 
BRANCH   4   3
ATOM      3  C   UNL     1      -1.968  -2.567  24.322  0.00  0.00    +0.189 C 
BRANCH   3   2
ATOM      1  C   UNL     1      -3.357  -2.905  24.303  0.00  0.00    +0.174 C 
ATOM      2  O   UNL     1      -2.604  -2.994  24.630  0.00  0.00    -0.347 OA
ENDBRANCH   3   2
ENDBRANCH   4   3
ENDBRANCH   5   4
ENDBRANCH   6   5
ENDBRANCH  12   9
BRANCH  15  17
ATOM     17  C   UNL     1      -0.772   3.678  25.063  0.00  0.00    +0.138 C 
ATOM     18  C   UNL     1      -0.454   4.316  24.646  0.00  0.00    +0.027 C 
ATOM     19  C   UNL     1      -0.954   4.964  24.751  0.00  0.00    +0.019 C 
ATOM     20  C   UNL     1      -1.580   4.727  25.233  0.00  0.00    +0.073 C 
ATOM     21  N   UNL     1      -1.467   3.932  25.426  0.00  0.00    -0.263 NA
BRANCH  21  22
ATOM     22  C   UNL     1      -1.964   3.473  25.898  0.00  0.00    +0.099 C 
BRANCH  22  23
ATOM     23  C   UNL     1      -2.782   3.545  25.828  0.00  0.00    -0.006 A 
ATOM     24  C   UNL     1      -3.200   4.032  26.347  0.00  0.00    -0.002 A 
ATOM     25  C   UNL     1      -4.018   4.103  26.277  0.00  0.00    +0.018 A 
ATOM     26  C   UNL     1      -4.420   3.688  25.689  0.00  0.00    +0.106 A 
ATOM     27  C   UNL     1      -4.003   3.201  25.170  0.00  0.00    +0.018 A 
ATOM     28  C   UNL     1      -3.184   3.129  25.240  0.00  0.00    -0.002 A 
BRANCH  26  29
ATOM     29  S   UNL     1      -5.239   3.759  25.619  0.00  0.00    +0.010 S 
ATOM     30  C   UNL     1      -6.058   3.830  25.549  0.00  0.00    +0.182 C 
ATOM     31  O   UNL     1      -5.339   3.121  26.133  0.00  0.00    -0.169 OA
ATOM     32  O   UNL     1      -5.140   4.396  25.105  0.00  0.00    -0.169 OA
ENDBRANCH  26  29
ENDBRANCH  22  23
ENDBRANCH  21  22
ENDBRANCH  15  17
TORSDOF 9
ENDMDL
MODEL 3
REMARK VINA RESULT:      -7.6      3.022      4.431
REMARK  Name = 
REMARK  9 active torsions:
REMARK  status: ('A' for Active; 'I' for Inactive)
REMARK    1  A    between atoms: O_2  and  C_3
REMARK    2  A    between atoms: C_3  and  C_4
REMARK    3  A    between atoms: C_4  and  O_5
REMARK    4  A    between atoms: O_5  and  C_6
REMARK    5  A    between atoms: C_9  and  C_12
REMARK    6  A    between atoms: C_15  and  C_17
REMARK    7  A    between atoms: N_21  and  C_22
REMARK    8  A    between atoms: C_22  and  C_23
REMARK    9  A    between atoms: C_26  and  S_29
REMARK                            x       y       z     vdW  Elec       q    Type
REMARK                         _______ _______ _______ _____ _____    ______ ____
ROOT
ATOM     12  C   UNL     1      -4.778   0.455  24.873  0.00  0.00    +0.205 A 
ATOM     13  N   UNL     1      -5.542   0.553  24.576  0.00  0.00    -0.056 NA
ATOM     14  O   UNL     1      -5.766   1.338  24.702  0.00  0.00    -0.336 OA
ATOM     15  C   UNL     1      -5.140   1.723  25.078  0.00  0.00    +0.251 A 
ATOM     16  N   UNL     1      -4.530   1.178  25.183  0.00  0.00    -0.190 NA
ENDROOT
BRANCH  12   9
ATOM      6  C   UNL     1      -3.465  -1.642  24.839  0.00  0.00    +0.225 A 
ATOM      7  C   UNL     1      -3.830  -1.373  24.150  0.00  0.00    +0.058 A 
ATOM      8  C   UNL     1      -4.268  -0.674  24.161  0.00  0.00    +0.010 A 
ATOM      9  C   UNL     1      -4.341  -0.244  24.862  0.00  0.00    +0.058 A 
ATOM     10  C   UNL     1      -3.976  -0.513  25.550  0.00  0.00    +0.105 A 
ATOM     11  N   UNL     1      -3.538  -1.212  25.539  0.00  0.00    -0.210 NA
BRANCH   6   5
ATOM      5  O   UNL     1      -3.027  -2.342  24.828  0.00  0.00    -0.457 OA
BRANCH   5   4
ATOM      4  C   UNL     1      -2.260  -2.343  24.524  0.00  0.00    +0.239 C 
BRANCH   4   3
ATOM      3  C   UNL     1      -1.652  -2.713  24.941  0.00  0.00    +0.189 C 
BRANCH   3   2
ATOM      1  C   UNL     1      -0.314  -2.268  25.178  0.00  0.00    +0.174 C 
ATOM      2  O   UNL     1      -0.870  -2.632  24.689  0.00  0.00    -0.347 OA
ENDBRANCH   3   2
ENDBRANCH   4   3
ENDBRANCH   5   4
ENDBRANCH   6   5
ENDBRANCH  12   9
BRANCH  15  17
ATOM     17  C   UNL     1      -5.127   2.515  25.307  0.00  0.00    +0.138 C 
ATOM     18  C   UNL     1      -5.698   2.898  25.764  0.00  0.00    +0.027 C 
ATOM     19  C   UNL     1      -5.464   3.683  25.860  0.00  0.00    +0.019 C 
ATOM     20  C   UNL     1      -4.749   3.786  25.463  0.00  0.00    +0.073 C 
ATOM     21  N   UNL     1      -4.540   3.065  25.121  0.00  0.00    -0.263 NA
BRANCH  21  22
ATOM     22  C   UNL     1      -3.864   2.918  24.672  0.00  0.00    +0.099 C 
BRANCH  22  23
ATOM     23  C   UNL     1      -3.204   3.407  24.749  0.00  0.00    -0.006 A 
ATOM     24  C   UNL     1      -2.651   3.264  25.344  0.00  0.00    -0.002 A 
ATOM     25  C   UNL     1      -1.991   3.752  25.420  0.00  0.00    +0.018 A 
ATOM     26  C   UNL     1      -1.884   4.385  24.902  0.00  0.00    +0.106 A 
ATOM     27  C   UNL     1      -2.437   4.530  24.307  0.00  0.00    +0.018 A 
ATOM     28  C   UNL     1      -3.098   4.040  24.231  0.00  0.00    -0.002 A 
BRANCH  26  29
ATOM     29  S   UNL     1      -1.224   4.875  24.978  0.00  0.00    +0.010 S 
ATOM     30  C   UNL     1      -0.565   5.364  25.055  0.00  0.00    +0.182 C 
ATOM     31  O   UNL     1      -0.748   4.284  24.654  0.00  0.00    -0.169 OA
ATOM     32  O   UNL     1      -1.699   5.465  25.303  0.00  0.00    -0.169 OA
ENDBRANCH  26  29
ENDBRANCH  22  23
ENDBRANCH  21  22
ENDBRANCH  15  17
TORSDOF 9
ENDMDL
MODEL 4
REMARK VINA RESULT:      -7.5      1.518      2.221
REMARK  Name = 
REMARK  9 active torsions:
REMARK  status: ('A' for Active; 'I' for Inactive)
REMARK    1  A    between atoms: O_2  and  C_3
REMARK    2  A    between atoms: C_3  and  C_4
REMARK    3  A    between atoms: C_4  and  O_5
REMARK    4  A    between atoms: O_5  and  C_6
REMARK    5  A    between atoms: C_9  and  C_12
REMARK    6  A    between atoms: C_15  and  C_17
REMARK    7  A    between atoms: N_21  and  C_22
REMARK    8  A    between atoms: C_22  and  C_23
REMARK    9  A    between atoms: C_26  and  S_29
REMARK                            x       y       z     vdW  Elec       q    Type
REMARK                         _______ _______ _______ _____ _____    ______ ____
ROOT
ATOM     12  C   UNL     1      -0.004   1.324  24.427  0.00  0.00    +0.205 A 
ATOM     13  N   UNL     1      -0.432   0.860  24.960  0.00  0.00    -0.056 NA
ATOM     14  O   UNL     1      -1.021   1.333  25.293  0.00  0.00    -0.336 OA
ATOM     15  C   UNL     1      -0.958   2.088  24.966  0.00  0.00    +0.251 A 
ATOM     16  N   UNL     1      -0.329   2.082  24.431  0.00  0.00    -0.190 NA
ENDROOT
BRANCH  12   9
ATOM      6  C   UNL     1       1.916   0.571  23.059  0.00  0.00    +0.225 A 
ATOM      7  C   UNL     1       1.218   0.130  23.069  0.00  0.00    +0.058 A 
ATOM      8  C   UNL     1       0.578   0.381  23.526  0.00  0.00    +0.010 A 
ATOM      9  C   UNL     1       0.636   1.073  23.971  0.00  0.00    +0.058 A 
ATOM     10  C   UNL     1       1.332   1.514  23.961  0.00  0.00    +0.105 A 
ATOM     11  N   UNL     1       1.972   1.263  23.505  0.00  0.00    -0.210 NA
BRANCH   6   5
ATOM      5  O   UNL     1       2.556   0.320  22.603  0.00  0.00    -0.457 OA
BRANCH   5   4
ATOM      4  C   UNL     1       3.308   0.623  22.747  0.00  0.00    +0.239 C 
BRANCH   4   3
ATOM      3  C   UNL     1       3.975   0.166  22.584  0.00  0.00    +0.189 C 
BRANCH   3   2
ATOM      1  C   UNL     1       5.238   0.034  23.241  0.00  0.00    +0.174 C 
ATOM      2  O   UNL     1       4.729   0.460  22.751  0.00  0.00    -0.347 OA
ENDBRANCH   3   2
ENDBRANCH   4   3
ENDBRANCH   5   4
ENDBRANCH   6   5
ENDBRANCH  12   9
BRANCH  15  17
ATOM     17  C   UNL     1      -1.438   2.734  25.143  0.00  0.00    +0.138 C 
ATOM     18  C   UNL     1      -1.215   3.399  25.579  0.00  0.00    +0.027 C 
ATOM     19  C   UNL     1      -1.865   3.906  25.621  0.00  0.00    +0.019 C 
ATOM     20  C   UNL     1      -2.489   3.555  25.211  0.00  0.00    +0.073 C 
ATOM     21  N   UNL     1      -2.225   2.831  24.916  0.00  0.00    -0.263 NA
BRANCH  21  22
ATOM     22  C   UNL     1      -2.670   2.298  24.471  0.00  0.00    +0.099 C 
BRANCH  22  23
ATOM     23  C   UNL     1      -3.482   2.231  24.598  0.00  0.00    -0.006 A 
ATOM     24  C   UNL     1      -4.002   2.757  24.230  0.00  0.00    -0.002 A 
ATOM     25  C   UNL     1      -4.814   2.691  24.357  0.00  0.00    +0.018 A 
ATOM     26  C   UNL     1      -5.108   2.100  24.852  0.00  0.00    +0.106 A 
ATOM     27  C   UNL     1      -4.589   1.574  25.220  0.00  0.00    +0.018 A 
ATOM     28  C   UNL     1      -3.776   1.641  25.093  0.00  0.00    -0.002 A 
BRANCH  26  29
ATOM     29  S   UNL     1      -5.920   2.033  24.979  0.00  0.00    +0.010 S 
ATOM     30  C   UNL     1      -6.732   1.967  25.107  0.00  0.00    +0.182 C 
ATOM     31  O   UNL     1      -5.924   2.775  25.342  0.00  0.00    -0.169 OA
ATOM     32  O   UNL     1      -5.917   1.293  24.618  0.00  0.00    -0.169 OA
ENDBRANCH  26  29
ENDBRANCH  22  23
ENDBRANCH  21  22
ENDBRANCH  15  17
TORSDOF 9
ENDMDL
MODEL 5
REMARK VINA RESULT:      -7.5      3.121      4.405
REMARK  Name = 
REMARK  9 active torsions:
REMARK  status: ('A' for Active; 'I' for Inactive)
REMARK    1  A    between atoms: O_2  and  C_3
REMARK    2  A    between atoms: C_3  and  C_4
REMARK    3  A    between atoms: C_4  and  O_5
REMARK    4  A    between atoms: O_5  and  C_6
REMARK    5  A    between atoms: C_9  and  C_12
REMARK    6  A    between atoms: C_15  and  C_17
REMARK    7  A    between atoms: N_21  and  C_22
REMARK    8  A    between atoms: C_22  and  C_23
REMARK    9  A    between atoms: C_26  and  S_29
REMARK                            x       y       z     vdW  Elec       q    Type
REMARK                         _______ _______ _______ _____ _____    ______ ____
ROOT
ATOM     12  C   UNL     1      -2.047   2.580  25.124  0.00  0.00    +0.205 A 
ATOM     13  N   UNL     1      -2.262   3.010  24.453  0.00  0.00    -0.056 NA
ATOM     14  O   UNL     1      -3.028   2.785  24.242  0.00  0.00    -0.336 OA
ATOM     15  C   UNL     1      -3.285   2.216  24.781  0.00  0.00    +0.251 A 
ATOM     16  N   UNL     1      -2.678   2.090  25.327  0.00  0.00    -0.190 NA
ENDROOT
BRANCH  12   9
ATOM      6  C   UNL     1       0.116   2.735  26.318  0.00  0.00    +0.225 A 
ATOM      7  C   UNL     1      -0.185   1.997  26.103  0.00  0.00    +0.058 A 
ATOM      8  C   UNL     1      -0.906   1.945  25.705  0.00  0.00    +0.010 A 
ATOM      9  C   UNL     1      -1.326   2.632  25.522  0.00  0.00    +0.058 A 
ATOM     10  C   UNL     1      -1.025   3.369  25.736  0.00  0.00    +0.105 A 
ATOM     11  N   UNL     1      -0.304   3.421  26.134  0.00  0.00    -0.210 NA
BRANCH   6   5
ATOM      5  O   UNL     1       0.837   2.787  26.715  0.00  0.00    -0.457 OA
BRANCH   5   4
ATOM      4  C   UNL     1       0.871   2.645  27.527  0.00  0.00    +0.239 C 
BRANCH   4   3
ATOM      3  C   UNL     1       1.585   2.732  27.931  0.00  0.00    +0.189 C 
BRANCH   3   2
ATOM      1  C   UNL     1       2.330   2.693  29.151  0.00  0.00    +0.174 C 
ATOM      2  O   UNL     1       1.615   2.609  28.747  0.00  0.00    -0.347 OA
ENDBRANCH   3   2
ENDBRANCH   4   3
ENDBRANCH   5   4
ENDBRANCH   6   5
ENDBRANCH  12   9
BRANCH  15  17
ATOM     17  C   UNL     1      -4.018   1.840  24.777  0.00  0.00    +0.138 C 
ATOM     18  C   UNL     1      -4.717   2.136  25.102  0.00  0.00    +0.027 C 
ATOM     19  C   UNL     1      -5.314   1.580  24.973  0.00  0.00    +0.019 C 
ATOM     20  C   UNL     1      -4.984   0.942  24.568  0.00  0.00    +0.073 C 
ATOM     21  N   UNL     1      -4.184   1.102  24.447  0.00  0.00    -0.263 NA
BRANCH  21  22
ATOM     22  C   UNL     1      -3.644   0.611  24.064  0.00  0.00    +0.099 C 
BRANCH  22  23
ATOM     23  C   UNL     1      -3.675  -0.205  24.177  0.00  0.00    -0.006 A 
ATOM     24  C   UNL     1      -3.256  -0.552  24.798  0.00  0.00    -0.002 A 
ATOM     25  C   UNL     1      -3.288  -1.368  24.912  0.00  0.00    +0.018 A 
ATOM     26  C   UNL     1      -3.738  -1.838  24.406  0.00  0.00    +0.106 A 
ATOM     27  C   UNL     1      -4.157  -1.493  23.785  0.00  0.00    +0.018 A 
ATOM     28  C   UNL     1      -4.125  -0.676  23.671  0.00  0.00    -0.002 A 
BRANCH  26  29
ATOM     29  S   UNL     1      -3.769  -2.655  24.520  0.00  0.00    +0.010 S 
ATOM     30  C   UNL     1      -3.801  -3.471  24.634  0.00  0.00    +0.182 C 
ATOM     31  O   UNL     1      -3.465  -2.561  25.282  0.00  0.00    -0.169 OA
ATOM     32  O   UNL     1      -4.073  -2.750  23.760  0.00  0.00    -0.169 OA
ENDBRANCH  26  29
ENDBRANCH  22  23
ENDBRANCH  21  22
ENDBRANCH  15  17
TORSDOF 9
ENDMDL
MODEL 6
REMARK VINA RESULT:      -7.4      2.104      3.242
REMARK  Name = 
REMARK  9 active torsions:
REMARK  status: ('A' for Active; 'I' for Inactive)
REMARK    1  A    between atoms: O_2  and  C_3
REMARK    2  A    between atoms: C_3  and  C_4
REMARK    3  A    between atoms: C_4  and  O_5
REMARK    4  A    between atoms: O_5  and  C_6
REMARK    5  A    between atoms: C_9  and  C_12
REMARK    6  A    between atoms: C_15  and  C_17
REMARK    7  A    between atoms: N_21  and  C_22
REMARK    8  A    between atoms: C_22  and  C_23
REMARK    9  A    between atoms: C_26  and  S_29
REMARK                            x       y       z     vdW  Elec       q    Type
REMARK                         _______ _______ _______ _____ _____    ______ ____
ROOT
ATOM     12  C   UNL     1      -0.085   1.326  24.122  0.00  0.00    +0.205 A 
ATOM     13  N   UNL     1      -0.161   1.683  24.862  0.00  0.00    -0.056 NA
ATOM     14  O   UNL     1      -0.965   1.808  25.003  0.00  0.00    -0.336 OA
ATOM     15  C   UNL     1      -1.385   1.527  24.351  0.00  0.00    +0.251 A 
ATOM     16  N   UNL     1      -0.841   1.229  23.806  0.00  0.00    -0.190 NA
ENDROOT
BRANCH  12   9
ATOM      6  C   UNL     1       2.040   0.659  23.041  0.00  0.00    +0.225 A 
ATOM      7  C   UNL     1       1.386   0.155  23.014  0.00  0.00    +0.058 A 
ATOM      8  C   UNL     1       0.678   0.377  23.374  0.00  0.00    +0.010 A 
ATOM      9  C   UNL     1       0.623   1.104  23.761  0.00  0.00    +0.058 A 
ATOM     10  C   UNL     1       1.275   1.607  23.788  0.00  0.00    +0.105 A 
ATOM     11  N   UNL     1       1.983   1.385  23.428  0.00  0.00    -0.210 NA
BRANCH   6   5
ATOM      5  O   UNL     1       2.748   0.437  22.680  0.00  0.00    -0.457 OA
BRANCH   5   4
ATOM      4  C   UNL     1       3.467   0.682  23.000  0.00  0.00    +0.239 C 
BRANCH   4   3
ATOM      3  C   UNL     1       4.171   0.335  22.745  0.00  0.00    +0.189 C 
BRANCH   3   2
ATOM      1  C   UNL     1       5.388   0.053  23.439  0.00  0.00    +0.174 C 
ATOM      2  O   UNL     1       4.893   0.589  23.055  0.00  0.00    -0.347 OA
ENDBRANCH   3   2
ENDBRANCH   4   3
ENDBRANCH   5   4
ENDBRANCH   6   5
ENDBRANCH  12   9
BRANCH  15  17
ATOM     17  C   UNL     1      -2.204   1.542  24.259  0.00  0.00    +0.138 C 
ATOM     18  C   UNL     1      -2.636   2.114  23.849  0.00  0.00    +0.027 C 
ATOM     19  C   UNL     1      -3.435   1.913  23.897  0.00  0.00    +0.019 C 
ATOM     20  C   UNL     1      -3.497   1.217  24.336  0.00  0.00    +0.073 C 
ATOM     21  N   UNL     1      -2.736   0.988  24.559  0.00  0.00    -0.263 NA
BRANCH  21  22
ATOM     22  C   UNL     1      -2.542   0.321  25.005  0.00  0.00    +0.099 C 
BRANCH  22  23
ATOM     23  C   UNL     1      -2.890  -0.406  24.833  0.00  0.00    -0.006 A 
ATOM     24  C   UNL     1      -2.492  -0.953  24.361  0.00  0.00    -0.002 A 
ATOM     25  C   UNL     1      -2.840  -1.681  24.189  0.00  0.00    +0.018 A 
ATOM     26  C   UNL     1      -3.587  -1.862  24.488  0.00  0.00    +0.106 A 
ATOM     27  C   UNL     1      -3.986  -1.315  24.960  0.00  0.00    +0.018 A 
ATOM     28  C   UNL     1      -3.637  -0.587  25.132  0.00  0.00    -0.002 A 
BRANCH  26  29
ATOM     29  S   UNL     1      -3.936  -2.590  24.316  0.00  0.00    +0.010 S 
ATOM     30  C   UNL     1      -4.284  -3.317  24.144  0.00  0.00    +0.182 C 
ATOM     31  O   UNL     1      -3.522  -2.936  24.941  0.00  0.00    -0.169 OA
ATOM     32  O   UNL     1      -4.349  -2.244  23.691  0.00  0.00    -0.169 OA
ENDBRANCH  26  29
ENDBRANCH  22  23
ENDBRANCH  21  22
ENDBRANCH  15  17
TORSDOF 9
ENDMDL
MODEL 7
REMARK VINA RESULT:      -7.4      2.243      5.702
REMARK  Name = 
REMARK  9 active torsions:
REMARK  status: ('A' for Active; 'I' for Inactive)
REMARK    1  A    between atoms: O_2  and  C_3
REMARK    2  A    between atoms: C_3  and  C_4
REMARK    3  A    between atoms: C_4  and  O_5
REMARK    4  A    between atoms: O_5  and  C_6
REMARK    5  A    between atoms: C_9  and  C_12
REMARK    6  A    between atoms: C_15  and  C_17
REMARK    7  A    between atoms: N_21  and  C_22
REMARK    8  A    between atoms: C_22  and  C_23
REMARK    9  A    between atoms: C_26  and  S_29
REMARK                            x       y       z     vdW  Elec       q    Type
REMARK                         _______ _______ _______ _____ _____    ______ ____
ROOT
ATOM     12  C   UNL     1      -0.959   2.359  24.761  0.00  0.00    +0.205 A 
ATOM     13  N   UNL     1      -0.173   2.531  24.946  0.00  0.00    -0.056 NA
ATOM     14  O   UNL     1       0.294   1.904  24.681  0.00  0.00    -0.336 OA
ATOM     15  C   UNL     1      -0.203   1.346  24.332  0.00  0.00    +0.251 A 
ATOM     16  N   UNL     1      -0.977   1.627  24.381  0.00  0.00    -0.190 NA
ENDROOT
BRANCH  12   9
ATOM      6  C   UNL     1      -2.917   3.791  25.256  0.00  0.00    +0.225 A 
ATOM      7  C   UNL     1      -2.361   3.633  25.846  0.00  0.00    +0.058 A 
ATOM      8  C   UNL     1      -1.708   3.155  25.681  0.00  0.00    +0.010 A 
ATOM      9  C   UNL     1      -1.612   2.836  24.926  0.00  0.00    +0.058 A 
ATOM     10  C   UNL     1      -2.167   2.994  24.337  0.00  0.00    +0.105 A 
ATOM     11  N   UNL     1      -2.819   3.471  24.502  0.00  0.00    -0.210 NA
BRANCH   6   5
ATOM      5  O   UNL     1      -3.569   4.268  25.421  0.00  0.00    -0.457 OA
BRANCH   5   4
ATOM      4  C   UNL     1      -4.258   3.933  25.726  0.00  0.00    +0.239 C 
BRANCH   4   3
ATOM      3  C   UNL     1      -4.995   4.197  25.467  0.00  0.00    +0.189 C 
BRANCH   3   2
ATOM      1  C   UNL     1      -6.024   3.226  25.673  0.00  0.00    +0.174 C 
ATOM      2  O   UNL     1      -5.681   3.954  25.856  0.00  0.00    -0.347 OA
ENDBRANCH   3   2
ENDBRANCH   4   3
ENDBRANCH   5   4
ENDBRANCH   6   5
ENDBRANCH  12   9
BRANCH  15  17
ATOM     17  C   UNL     1       0.032   0.631  23.994  0.00  0.00    +0.138 C 
ATOM     18  C   UNL     1       0.530   0.545  23.341  0.00  0.00    +0.027 C 
ATOM     19  C   UNL     1       0.617  -0.262  23.192  0.00  0.00    +0.019 C 
ATOM     20  C   UNL     1       0.173  -0.674  23.752  0.00  0.00    +0.073 C 
ATOM     21  N   UNL     1      -0.188  -0.122  24.247  0.00  0.00    -0.263 NA
BRANCH  21  22
ATOM     22  C   UNL     1      -0.683  -0.293  24.884  0.00  0.00    +0.099 C 
BRANCH  22  23
ATOM     23  C   UNL     1      -1.252  -0.887  24.817  0.00  0.00    -0.006 A 
ATOM     24  C   UNL     1      -1.050  -1.672  24.972  0.00  0.00    -0.002 A 
ATOM     25  C   UNL     1      -1.619  -2.265  24.904  0.00  0.00    +0.018 A 
ATOM     26  C   UNL     1      -2.390  -2.074  24.682  0.00  0.00    +0.106 A 
ATOM     27  C   UNL     1      -2.593  -1.290  24.527  0.00  0.00    +0.018 A 
ATOM     28  C   UNL     1      -2.023  -0.696  24.595  0.00  0.00    -0.002 A 
BRANCH  26  29
ATOM     29  S   UNL     1      -2.959  -2.668  24.615  0.00  0.00    +0.010 S 
ATOM     30  C   UNL     1      -3.528  -3.261  24.547  0.00  0.00    +0.182 C 
ATOM     31  O   UNL     1      -3.345  -2.374  25.283  0.00  0.00    -0.169 OA
ATOM     32  O   UNL     1      -2.574  -2.961  23.947  0.00  0.00    -0.169 OA
ENDBRANCH  26  29
ENDBRANCH  22  23
ENDBRANCH  21  22
ENDBRANCH  15  17
TORSDOF 9
ENDMDL
MODEL 8
REMARK VINA RESULT:      -6.7     16.788     17.741
REMARK  Name = 
REMARK  9 active torsions:
REMARK  status: ('A' for Active; 'I' for Inactive)
REMARK    1  A    between atoms: O_2  and  C_3
REMARK    2  A    between atoms: C_3  and  C_4
REMARK    3  A    between atoms: C_4  and  O_5
REMARK    4  A    between atoms: O_5  and  C_6
REMARK    5  A    between atoms: C_9  and  C_12
REMARK    6  A    between atoms: C_15  and  C_17
REMARK    7  A    between atoms: N_21  and  C_22
REMARK    8  A    between atoms: C_22  and  C_23
REMARK    9  A    between atoms: C_26  and  S_29
REMARK                            x       y       z     vdW  Elec       q    Type
REMARK                         _______ _______ _______ _____ _____    ______ ____
ROOT
ATOM     12  C   UNL     1      -3.177  -9.811  10.730  0.00  0.00    +0.205 A 
ATOM     13  N   UNL     1      -3.034  -9.112  10.314  0.00  0.00    -0.056 NA
ATOM     14  O   UNL     1      -3.537  -9.096   9.661  0.00  0.00    -0.336 OA
ATOM     15  C   UNL     1      -3.992  -9.785   9.672  0.00  0.00    +0.251 A 
ATOM     16  N   UNL     1      -3.769 -10.226  10.333  0.00  0.00    -0.190 NA
ENDROOT
BRANCH  12   9
ATOM      6  C   UNL     1      -2.033 -10.533  12.802  0.00  0.00    +0.225 A 
ATOM      7  C   UNL     1      -1.592 -10.245  12.166  0.00  0.00    +0.058 A 
ATOM      8  C   UNL     1      -1.974 -10.004  11.475  0.00  0.00    +0.010 A 
ATOM      9  C   UNL     1      -2.796 -10.052  11.421  0.00  0.00    +0.058 A 
ATOM     10  C   UNL     1      -3.236 -10.339  12.056  0.00  0.00    +0.105 A 
ATOM     11  N   UNL     1      -2.854 -10.580  12.746  0.00  0.00    -0.210 NA
BRANCH   6   5
ATOM      5  O   UNL     1      -1.651 -10.773  13.493  0.00  0.00    -0.457 OA
BRANCH   5   4
ATOM      4  C   UNL     1      -1.853 -10.432  14.216  0.00  0.00    +0.239 C 
BRANCH   4   3
ATOM      3  C   UNL     1      -1.602 -10.779  14.920  0.00  0.00    +0.189 C 
BRANCH   3   2
ATOM      1  C   UNL     1      -1.529 -10.688  16.345  0.00  0.00    +0.174 C 
ATOM      2  O   UNL     1      -1.538 -10.323  15.606  0.00  0.00    -0.347 OA
ENDBRANCH   3   2
ENDBRANCH   4   3
ENDBRANCH   5   4
ENDBRANCH   6   5
ENDBRANCH  12   9
BRANCH  15  17
ATOM     17  C   UNL     1      -4.568  -9.995   9.121  0.00  0.00    +0.138 C 
ATOM     18  C   UNL     1      -4.505 -10.598   8.560  0.00  0.00    +0.027 C 
ATOM     19  C   UNL     1      -5.207 -10.615   8.125  0.00  0.00    +0.019 C 
ATOM     20  C   UNL     1      -5.702 -10.023   8.416  0.00  0.00    +0.073 C 
ATOM     21  N   UNL     1      -5.307  -9.640   9.031  0.00  0.00    -0.263 NA
BRANCH  21  22
ATOM     22  C   UNL     1      -5.600  -9.012   9.479  0.00  0.00    +0.099 C 
BRANCH  22  23
ATOM     23  C   UNL     1      -6.371  -8.745   9.359  0.00  0.00    -0.006 A 
ATOM     24  C   UNL     1      -6.977  -8.993   9.862  0.00  0.00    -0.002 A 
ATOM     25  C   UNL     1      -7.748  -8.725   9.743  0.00  0.00    +0.018 A 
ATOM     26  C   UNL     1      -7.914  -8.211   9.120  0.00  0.00    +0.106 A 
ATOM     27  C   UNL     1      -7.310  -7.963   8.617  0.00  0.00    +0.018 A 
ATOM     28  C   UNL     1      -6.538  -8.230   8.736  0.00  0.00    -0.002 A 
BRANCH  26  29
ATOM     29  S   UNL     1      -8.686  -7.943   9.000  0.00  0.00    +0.010 S 
ATOM     30  C   UNL     1      -9.457  -7.676   8.881  0.00  0.00    +0.182 C 
ATOM     31  O   UNL     1      -8.957  -8.723   9.005  0.00  0.00    -0.169 OA
ATOM     32  O   UNL     1      -8.415  -7.165   8.996  0.00  0.00    -0.169 OA
ENDBRANCH  26  29
ENDBRANCH  22  23
ENDBRANCH  21  22
ENDBRANCH  15  17
TORSDOF 9
ENDMDL
MODEL 9
REMARK VINA RESULT:      -5.8     17.083     18.620
REMARK  Name = 
REMARK  9 active torsions:
REMARK  status: ('A' for Active; 'I' for Inactive)
REMARK    1  A    between atoms: O_2  and  C_3
REMARK    2  A    between atoms: C_3  and  C_4
REMARK    3  A    between atoms: C_4  and  O_5
REMARK    4  A    between atoms: O_5  and  C_6
REMARK    5  A    between atoms: C_9  and  C_12
REMARK    6  A    between atoms: C_15  and  C_17
REMARK    7  A    between atoms: N_21  and  C_22
REMARK    8  A    between atoms: C_22  and  C_23
REMARK    9  A    between atoms: C_26  and  S_29
REMARK                            x       y       z     vdW  Elec       q    Type
REMARK                         _______ _______ _______ _____ _____    ______ ____
ROOT
ATOM     12  C   UNL     1      -7.424  -9.123   9.833  0.00  0.00    +0.205 A 
ATOM     13  N   UNL     1      -7.375  -9.915   9.603  0.00  0.00    -0.056 NA
ATOM     14  O   UNL     1      -6.920 -10.316  10.163  0.00  0.00    -0.336 OA
ATOM     15  C   UNL     1      -6.688  -9.772  10.739  0.00  0.00    +0.251 A 
ATOM     16  N   UNL     1      -6.999  -9.036  10.535  0.00  0.00    -0.190 NA
ENDROOT
BRANCH  12   9
ATOM      6  C   UNL     1      -8.632  -7.330   8.628  0.00  0.00    +0.225 A 
ATOM      7  C   UNL     1      -7.815  -7.412   8.537  0.00  0.00    +0.058 A 
ATOM      8  C   UNL     1      -7.412  -8.009   8.939  0.00  0.00    +0.010 A 
ATOM      9  C   UNL     1      -7.826  -8.526   9.432  0.00  0.00    +0.058 A 
ATOM     10  C   UNL     1      -8.642  -8.445   9.523  0.00  0.00    +0.105 A 
ATOM     11  N   UNL     1      -9.044  -7.847   9.121  0.00  0.00    -0.210 NA
BRANCH   6   5
ATOM      5  O   UNL     1      -9.034  -6.733   8.227  0.00  0.00    -0.457 OA
BRANCH   5   4
ATOM      4  C   UNL     1      -9.240  -6.038   8.620  0.00  0.00    +0.239 C 
BRANCH   4   3
ATOM      3  C   UNL     1      -9.739  -5.491   8.257  0.00  0.00    +0.189 C 
BRANCH   3   2
ATOM      1  C   UNL     1     -10.400  -4.429   8.949  0.00  0.00    +0.174 C 
ATOM      2  O   UNL     1      -9.754  -4.708   8.519  0.00  0.00    -0.347 OA
ENDBRANCH   3   2
ENDBRANCH   4   3
ENDBRANCH   5   4
ENDBRANCH   6   5
ENDBRANCH  12   9
BRANCH  15  17
ATOM     17  C   UNL     1      -6.226  -9.936  11.402  0.00  0.00    +0.138 C 
ATOM     18  C   UNL     1      -6.496  -9.991  12.180  0.00  0.00    +0.027 C 
ATOM     19  C   UNL     1      -5.849 -10.163  12.663  0.00  0.00    +0.019 C 
ATOM     20  C   UNL     1      -5.180 -10.214  12.184  0.00  0.00    +0.073 C 
ATOM     21  N   UNL     1      -5.412 -10.074  11.404  0.00  0.00    -0.263 NA
BRANCH  21  22
ATOM     22  C   UNL     1      -4.918 -10.071  10.744  0.00  0.00    +0.099 C 
BRANCH  22  23
ATOM     23  C   UNL     1      -4.110  -9.932  10.834  0.00  0.00    -0.006 A 
ATOM     24  C   UNL     1      -3.604 -10.553  11.033  0.00  0.00    -0.002 A 
ATOM     25  C   UNL     1      -2.796 -10.413  11.123  0.00  0.00    +0.018 A 
ATOM     26  C   UNL     1      -2.494  -9.654  11.013  0.00  0.00    +0.106 A 
ATOM     27  C   UNL     1      -2.999  -9.033  10.814  0.00  0.00    +0.018 A 
ATOM     28  C   UNL     1      -3.808  -9.173  10.725  0.00  0.00    -0.002 A 
BRANCH  26  29
ATOM     29  S   UNL     1      -1.685  -9.514  11.103  0.00  0.00    +0.010 S 
ATOM     30  C   UNL     1      -0.878  -9.375  11.193  0.00  0.00    +0.182 C 
ATOM     31  O   UNL     1      -1.707  -8.983  10.471  0.00  0.00    -0.169 OA
ATOM     32  O   UNL     1      -1.664 -10.044  11.734  0.00  0.00    -0.169 OA
ENDBRANCH  26  29
ENDBRANCH  22  23
ENDBRANCH  21  22
ENDBRANCH  15  17
TORSDOF 9
ENDMDL
MODEL 10
REMARK VINA RESULT:      -5.8     16.337     17.923
REMARK  Name = 
REMARK  9 active torsions:
REMARK  status: ('A' for Active; 'I' for Inactive)
REMARK    1  A    between atoms: O_2  and  C_3
REMARK    2  A    between atoms: C_3  and  C_4
REMARK    3  A    between atoms: C_4  and  O_5
REMARK    4  A    between atoms: O_5  and  C_6
REMARK    5  A    between atoms: C_9  and  C_12
REMARK    6  A    between atoms: C_15  and  C_17
REMARK    7  A    between atoms: N_21  and  C_22
REMARK    8  A    between atoms: C_22  and  C_23
REMARK    9  A    between atoms: C_26  and  S_29
REMARK                            x       y       z     vdW  Elec       q    Type
REMARK                         _______ _______ _______ _____ _____    ______ ____
ROOT
ATOM     12  C   UNL     1      -4.904  -9.672   9.902  0.00  0.00    +0.205 A 
ATOM     13  N   UNL     1      -4.627 -10.407   9.649  0.00  0.00    -0.056 NA
ATOM     14  O   UNL     1      -3.850 -10.492   9.916  0.00  0.00    -0.336 OA
ATOM     15  C   UNL     1      -3.648  -9.810  10.333  0.00  0.00    +0.251 A 
ATOM     16  N   UNL     1      -4.299  -9.303  10.324  0.00  0.00    -0.190 NA
ENDROOT
BRANCH  12   9
ATOM      6  C   UNL     1      -7.155  -8.739   9.466  0.00  0.00    +0.225 A 
ATOM      7  C   UNL     1      -6.597  -8.772   8.858  0.00  0.00    +0.058 A 
ATOM      8  C   UNL     1      -5.847  -9.083   9.003  0.00  0.00    +0.010 A 
ATOM      9  C   UNL     1      -5.654  -9.361   9.756  0.00  0.00    +0.058 A 
ATOM     10  C   UNL     1      -6.211  -9.328  10.363  0.00  0.00    +0.105 A 
ATOM     11  N   UNL     1      -6.961  -9.017  10.218  0.00  0.00    -0.210 NA
BRANCH   6   5
ATOM      5  O   UNL     1      -7.905  -8.428   9.321  0.00  0.00    -0.457 OA
BRANCH   5   4
ATOM      4  C   UNL     1      -7.983  -7.678   8.988  0.00  0.00    +0.239 C 
BRANCH   4   3
ATOM      3  C   UNL     1      -8.687  -7.462   8.617  0.00  0.00    +0.189 C 
BRANCH   3   2
ATOM      1  C   UNL     1      -9.280  -6.201   8.299  0.00  0.00    +0.174 C 
ATOM      2  O   UNL     1      -9.087  -6.780   8.854  0.00  0.00    -0.347 OA
ENDBRANCH   3   2
ENDBRANCH   4   3
ENDBRANCH   5   4
ENDBRANCH   6   5
ENDBRANCH  12   9
BRANCH  15  17
ATOM     17  C   UNL     1      -2.923  -9.660  10.696  0.00  0.00    +0.138 C 
ATOM     18  C   UNL     1      -2.319  -9.184  10.395  0.00  0.00    +0.027 C 
ATOM     19  C   UNL     1      -1.696  -9.189  10.936  0.00  0.00    +0.019 C 
ATOM     20  C   UNL     1      -1.914  -9.668  11.571  0.00  0.00    +0.073 C 
ATOM     21  N   UNL     1      -2.672  -9.959  11.423  0.00  0.00    -0.263 NA
BRANCH  21  22
ATOM     22  C   UNL     1      -3.104 -10.461  11.915  0.00  0.00    +0.099 C 
BRANCH  22  23
ATOM     23  C   UNL     1      -2.923 -10.507  12.718  0.00  0.00    -0.006 A 
ATOM     24  C   UNL     1      -2.167 -10.735  12.959  0.00  0.00    -0.002 A 
ATOM     25  C   UNL     1      -1.987 -10.781  13.762  0.00  0.00    +0.018 A 
ATOM     26  C   UNL     1      -2.561 -10.599  14.325  0.00  0.00    +0.106 A 
ATOM     27  C   UNL     1      -3.317 -10.370  14.085  0.00  0.00    +0.018 A 
ATOM     28  C   UNL     1      -3.497 -10.324  13.281  0.00  0.00    -0.002 A 
BRANCH  26  29
ATOM     29  S   UNL     1      -2.380 -10.644  15.129  0.00  0.00    +0.010 S 
ATOM     30  C   UNL     1      -2.200 -10.690  15.933  0.00  0.00    +0.182 C 
ATOM     31  O   UNL     1      -3.178 -10.766  15.302  0.00  0.00    -0.169 OA
ATOM     32  O   UNL     1      -1.583 -10.523  14.957  0.00  0.00    -0.169 OA
ENDBRANCH  26  29
ENDBRANCH  22  23
ENDBRANCH  21  22
ENDBRANCH  15  17
TORSDOF 9
ENDMDL
