MODEL 1
REMARK VINA RESULT:     -14.0      0.000      0.000
REMARK  Name = 
REMARK  7 active torsions:
REMARK  status: ('A' for Active; 'I' for Inactive)
REMARK    1  A    between atoms: C_2  and  C_3
REMARK    2  A    between atoms: C_5  and  O_24
REMARK    3  A    between atoms: C_10  and  C_11
REMARK    4  A    between atoms: C_11  and  C_12
REMARK    5  A    between atoms: O_24  and  C_25
REMARK    6  A    between atoms: N_27  and  C_28
REMARK    7  A    between atoms: C_30  and  C_34
REMARK                            x       y       z     vdW  Elec       q    Type
REMARK                         _______ _______ _______ _____ _____    ______ ____
ROOT
ATOM      1  C   UNL     1      -5.584   0.896  25.079  0.00  0.00    +0.006 C 
ATOM      2  C   UNL     1      -5.088   1.553  25.032  0.00  0.00    +0.068 C 
ATOM      5  C   UNL     1      -4.557   0.958  24.824  0.00  0.00    +0.173 C 
ATOM      6  C   UNL     1      -3.773   1.147  24.647  0.00  0.00    +0.044 C 
ATOM      7  C   UNL     1      -3.521   1.931  24.679  0.00  0.00    +0.004 C 
ATOM      8  C   UNL     1      -4.052   2.527  24.887  0.00  0.00    +0.003 C 
ATOM      9  C   UNL     1      -3.270   2.716  24.710  0.00  0.00    +0.000 C 
ATOM     10  C   UNL     1      -3.801   3.312  24.918  0.00  0.00    +0.040 C 
ATOM     19  C   UNL     1      -4.331   3.908  25.127  0.00  0.00    +0.152 C 
ATOM     20  O   UNL     1      -4.080   4.693  25.158  0.00  0.00    -0.223 OA
ATOM     21  C   UNL     1      -5.116   3.718  25.304  0.00  0.00    +0.033 C 
ATOM     22  C   UNL     1      -5.367   2.934  25.272  0.00  0.00    +0.003 C 
ATOM     23  C   UNL     1      -4.836   2.337  25.064  0.00  0.00    +0.006 C 
ENDROOT
BRANCH   2   3
ATOM      3  C   UNL     1      -5.791   1.920  25.257  0.00  0.00    +0.185 C 
ATOM      4  O   UNL     1      -6.496   1.490  25.269  0.00  0.00    -0.220 OA
ENDBRANCH   2   3
BRANCH  10  11
ATOM     11  C   UNL     1      -3.017   3.502  24.742  0.00  0.00    +0.088 C 
BRANCH  11  12
ATOM     12  C   UNL     1      -2.581   3.975  25.257  0.00  0.00    +0.226 C 
ATOM     13  O   UNL     1      -2.878   4.152  26.006  0.00  0.00    -0.275 OA
ATOM     14  N   UNL     1      -1.848   4.272  25.023  0.00  0.00    -0.280 N 
ATOM     15  C   UNL     1      -1.482   4.143  24.295  0.00  0.00    +0.093 C 
ATOM     16  C   UNL     1      -0.760   4.542  24.299  0.00  0.00    +0.023 C 
ATOM     17  C   UNL     1      -0.679   4.918  25.029  0.00  0.00    +0.023 C 
ATOM     18  C   UNL     1      -1.352   4.751  25.477  0.00  0.00    +0.093 C 
ENDBRANCH  11  12
ENDBRANCH  10  11
BRANCH   5  24
ATOM     24  O   UNL     1      -4.808   0.172  24.792  0.00  0.00    -0.437 OA
BRANCH  24  25
ATOM     25  C   UNL     1      -4.283  -0.421  24.562  0.00  0.00    +0.425 C 
ATOM     26  O   UNL     1      -4.019  -0.458  23.780  0.00  0.00    -0.224 OA
ATOM     27  N   UNL     1      -4.021  -0.977  25.112  0.00  0.00    -0.142 NA
BRANCH  27  28
ATOM     28  C   UNL     1      -3.497  -1.570  24.882  0.00  0.00    +0.077 A 
ATOM     29  C   UNL     1      -2.684  -1.461  24.973  0.00  0.00    +0.021 A 
ATOM     30  C   UNL     1      -2.159  -2.054  24.743  0.00  0.00    +0.073 A 
ATOM     31  C   UNL     1      -2.447  -2.757  24.420  0.00  0.00    +0.004 A 
ATOM     32  C   UNL     1      -3.259  -2.867  24.329  0.00  0.00    +0.001 A 
ATOM     33  C   UNL     1      -3.785  -2.274  24.559  0.00  0.00    +0.017 A 
BRANCH  30  34
ATOM     34  C   UNL     1      -1.346  -1.945  24.834  0.00  0.00    +0.419 C 
ATOM     35  F   UNL     1      -0.534  -1.836  24.926  0.00  0.00    -0.166 F 
ATOM     36  F   UNL     1      -1.254  -1.948  24.015  0.00  0.00    -0.166 F 
ATOM     37  F   UNL     1      -1.440  -1.941  25.655  0.00  0.00    -0.166 F 
ENDBRANCH  30  34
ENDBRANCH  27  28
ENDBRANCH  24  25
ENDBRANCH   5  24
TORSDOF 7
ENDMDL
MODEL 2
REMARK VINA RESULT:     -12.9      1.970      3.403
REMARK  Name = 
REMARK  7 active torsions:
REMARK  status: ('A' for Active; 'I' for Inactive)
REMARK    1  A    between atoms: C_2  and  C_3
REMARK    2  A    between atoms: C_5  and  O_24
REMARK    3  A    between atoms: C_10  and  C_11
REMARK    4  A    between atoms: C_11  and  C_12
REMARK    5  A    between atoms: O_24  and  C_25
REMARK    6  A    between atoms: N_27  and  C_28
REMARK    7  A    between atoms: C_30  and  C_34
REMARK                            x       y       z     vdW  Elec       q    Type
REMARK                         _______ _______ _______ _____ _____    ______ ____
ROOT
ATOM      1  C   UNL     1       0.020   1.261  24.682  0.00  0.00    +0.006 C 
ATOM      2  C   UNL     1      -0.554   1.822  24.872  0.00  0.00    +0.068 C 
ATOM      5  C   UNL     1      -0.994   1.132  24.963  0.00  0.00    +0.173 C 
ATOM      6  C   UNL     1      -1.787   1.174  25.190  0.00  0.00    +0.044 C 
ATOM      7  C   UNL     1      -2.138   1.908  25.326  0.00  0.00    +0.004 C 
ATOM      8  C   UNL     1      -1.697   2.599  25.236  0.00  0.00    +0.003 C 
ATOM      9  C   UNL     1      -2.488   2.641  25.462  0.00  0.00    +0.000 C 
ATOM     10  C   UNL     1      -2.048   3.333  25.372  0.00  0.00    +0.040 C 
ATOM     19  C   UNL     1      -1.607   4.024  25.282  0.00  0.00    +0.152 C 
ATOM     20  O   UNL     1      -1.958   4.759  25.418  0.00  0.00    -0.223 OA
ATOM     21  C   UNL     1      -0.814   3.981  25.055  0.00  0.00    +0.033 C 
ATOM     22  C   UNL     1      -0.464   3.248  24.918  0.00  0.00    +0.003 C 
ATOM     23  C   UNL     1      -0.904   2.556  25.009  0.00  0.00    +0.006 C 
ENDROOT
BRANCH   2   3
ATOM      3  C   UNL     1       0.086   2.318  24.716  0.00  0.00    +0.185 C 
ATOM      4  O   UNL     1       0.804   1.999  24.462  0.00  0.00    -0.220 OA
ENDBRANCH   2   3
BRANCH  10  11
ATOM     11  C   UNL     1      -2.840   3.376  25.599  0.00  0.00    +0.088 C 
BRANCH  11  12
ATOM     12  C   UNL     1      -3.388   3.758  25.115  0.00  0.00    +0.226 C 
ATOM     13  O   UNL     1      -3.135   4.142  24.430  0.00  0.00    -0.275 OA
ATOM     14  N   UNL     1      -4.187   3.756  25.316  0.00  0.00    -0.280 N 
ATOM     15  C   UNL     1      -4.520   3.397  25.980  0.00  0.00    +0.093 C 
ATOM     16  C   UNL     1      -5.334   3.532  25.962  0.00  0.00    +0.023 C 
ATOM     17  C   UNL     1      -5.504   3.974  25.287  0.00  0.00    +0.023 C 
ATOM     18  C   UNL     1      -4.796   4.113  24.887  0.00  0.00    +0.093 C 
ENDBRANCH  11  12
ENDBRANCH  10  11
BRANCH   5  24
ATOM     24  O   UNL     1      -0.644   0.397  24.827  0.00  0.00    -0.437 OA
BRANCH  24  25
ATOM     25  C   UNL     1      -1.080  -0.296  24.932  0.00  0.00    +0.425 C 
ATOM     26  O   UNL     1      -1.233  -0.575  25.694  0.00  0.00    -0.224 OA
ATOM     27  N   UNL     1      -1.363  -0.708  24.277  0.00  0.00    -0.142 NA
BRANCH  27  28
ATOM     28  C   UNL     1      -1.799  -1.400  24.382  0.00  0.00    +0.077 A 
ATOM     29  C   UNL     1      -2.619  -1.391  24.288  0.00  0.00    +0.021 A 
ATOM     30  C   UNL     1      -3.054  -2.083  24.393  0.00  0.00    +0.073 A 
ATOM     31  C   UNL     1      -2.670  -2.786  24.593  0.00  0.00    +0.004 A 
ATOM     32  C   UNL     1      -1.851  -2.796  24.687  0.00  0.00    +0.001 A 
ATOM     33  C   UNL     1      -1.415  -2.104  24.582  0.00  0.00    +0.017 A 
BRANCH  30  34
ATOM     34  C   UNL     1      -3.874  -2.073  24.299  0.00  0.00    +0.419 C 
ATOM     35  F   UNL     1      -4.693  -2.064  24.204  0.00  0.00    -0.166 F 
ATOM     36  F   UNL     1      -3.967  -1.992  25.115  0.00  0.00    -0.166 F 
ATOM     37  F   UNL     1      -3.780  -2.155  23.483  0.00  0.00    -0.166 F 
ENDBRANCH  30  34
ENDBRANCH  27  28
ENDBRANCH  24  25
ENDBRANCH   5  24
TORSDOF 7
ENDMDL
MODEL 3
REMARK VINA RESULT:     -11.8      1.934      5.044
REMARK  Name = 
REMARK  7 active torsions:
REMARK  status: ('A' for Active; 'I' for Inactive)
REMARK    1  A    between atoms: C_2  and  C_3
REMARK    2  A    between atoms: C_5  and  O_24
REMARK    3  A    between atoms: C_10  and  C_11
REMARK    4  A    between atoms: C_11  and  C_12
REMARK    5  A    between atoms: O_24  and  C_25
REMARK    6  A    between atoms: N_27  and  C_28
REMARK    7  A    between atoms: C_30  and  C_34
REMARK                            x       y       z     vdW  Elec       q    Type
REMARK                         _______ _______ _______ _____ _____    ______ ____
ROOT
ATOM      1  C   UNL     1      -5.053   2.357  24.999  0.00  0.00    +0.006 C 
ATOM      2  C   UNL     1      -4.695   1.628  24.859  0.00  0.00    +0.068 C 
ATOM      5  C   UNL     1      -4.026   2.104  24.930  0.00  0.00    +0.173 C 
ATOM      6  C   UNL     1      -3.273   1.773  24.853  0.00  0.00    +0.044 C 
ATOM      7  C   UNL     1      -3.191   0.966  24.706  0.00  0.00    +0.004 C 
ATOM      8  C   UNL     1      -3.860   0.490  24.634  0.00  0.00    +0.003 C 
ATOM      9  C   UNL     1      -3.109   0.159  24.558  0.00  0.00    +0.000 C 
ATOM     10  C   UNL     1      -3.778  -0.318  24.486  0.00  0.00    +0.040 C 
ATOM     19  C   UNL     1      -4.447  -0.794  24.415  0.00  0.00    +0.152 C 
ATOM     20  O   UNL     1      -4.365  -1.602  24.267  0.00  0.00    -0.223 OA
ATOM     21  C   UNL     1      -5.200  -0.463  24.491  0.00  0.00    +0.033 C 
ATOM     22  C   UNL     1      -5.282   0.343  24.639  0.00  0.00    +0.003 C 
ATOM     23  C   UNL     1      -4.613   0.821  24.711  0.00  0.00    +0.006 C 
ENDROOT
BRANCH   2   3
ATOM      3  C   UNL     1      -5.489   1.405  24.836  0.00  0.00    +0.185 C 
ATOM      4  O   UNL     1      -6.079   1.966  24.970  0.00  0.00    -0.220 OA
ENDBRANCH   2   3
BRANCH  10  11
ATOM     11  C   UNL     1      -3.026  -0.649  24.410  0.00  0.00    +0.088 C 
BRANCH  11  12
ATOM     12  C   UNL     1      -2.812  -1.298  24.871  0.00  0.00    +0.226 C 
ATOM     13  O   UNL     1      -3.306  -1.551  25.482  0.00  0.00    -0.275 OA
ATOM     14  N   UNL     1      -2.104  -1.693  24.723  0.00  0.00    -0.280 N 
ATOM     15  C   UNL     1      -1.557  -1.505  24.135  0.00  0.00    +0.093 C 
ATOM     16  C   UNL     1      -0.933  -2.043  24.186  0.00  0.00    +0.023 C 
ATOM     17  C   UNL     1      -1.095  -2.564  24.805  0.00  0.00    +0.023 C 
ATOM     18  C   UNL     1      -1.819  -2.348  25.137  0.00  0.00    +0.093 C 
ENDBRANCH  11  12
ENDBRANCH  10  11
BRANCH   5  24
ATOM     24  O   UNL     1      -4.108   2.912  25.078  0.00  0.00    -0.437 OA
BRANCH  24  25
ATOM     25  C   UNL     1      -3.482   3.427  24.920  0.00  0.00    +0.425 C 
ATOM     26  O   UNL     1      -3.318   3.650  24.142  0.00  0.00    -0.224 OA
ATOM     27  N   UNL     1      -3.022   3.719  25.538  0.00  0.00    -0.142 NA
BRANCH  27  28
ATOM     28  C   UNL     1      -2.397   4.233  25.380  0.00  0.00    +0.077 A 
ATOM     29  C   UNL     1      -1.645   3.934  25.221  0.00  0.00    +0.021 A 
ATOM     30  C   UNL     1      -1.021   4.448  25.063  0.00  0.00    +0.073 A 
ATOM     31  C   UNL     1      -1.148   5.264  25.062  0.00  0.00    +0.004 A 
ATOM     32  C   UNL     1      -1.900   5.564  25.220  0.00  0.00    +0.001 A 
ATOM     33  C   UNL     1      -2.525   5.050  25.379  0.00  0.00    +0.017 A 
BRANCH  30  34
ATOM     34  C   UNL     1      -0.268   4.149  24.905  0.00  0.00    +0.419 C 
ATOM     35  F   UNL     1       0.484   3.850  24.746  0.00  0.00    -0.166 F 
ATOM     36  F   UNL     1      -0.251   3.798  25.651  0.00  0.00    -0.166 F 
ATOM     37  F   UNL     1      -0.286   4.500  24.158  0.00  0.00    -0.166 F 
ENDBRANCH  30  34
ENDBRANCH  27  28
ENDBRANCH  24  25
ENDBRANCH   5  24
TORSDOF 7
ENDMDL
MODEL 4
REMARK VINA RESULT:     -11.5      2.554      5.267
REMARK  Name = 
REMARK  7 active torsions:
REMARK  status: ('A' for Active; 'I' for Inactive)
REMARK    1  A    between atoms: C_2  and  C_3
REMARK    2  A    between atoms: C_5  and  O_24
REMARK    3  A    between atoms: C_10  and  C_11
REMARK    4  A    between atoms: C_11  and  C_12
REMARK    5  A    between atoms: O_24  and  C_25
REMARK    6  A    between atoms: N_27  and  C_28
REMARK    7  A    between atoms: C_30  and  C_34
REMARK                            x       y       z     vdW  Elec       q    Type
REMARK                         _______ _______ _______ _____ _____    ______ ____
ROOT
ATOM      1  C   UNL     1      -1.625   4.469  25.094  0.00  0.00    +0.006 C 
ATOM      2  C   UNL     1      -1.270   3.727  25.034  0.00  0.00    +0.068 C 
ATOM      5  C   UNL     1      -1.996   3.513  25.361  0.00  0.00    +0.173 C 
ATOM      6  C   UNL     1      -2.158   2.719  25.522  0.00  0.00    +0.044 C 
ATOM      7  C   UNL     1      -1.594   2.142  25.356  0.00  0.00    +0.004 C 
ATOM      8  C   UNL     1      -0.868   2.356  25.029  0.00  0.00    +0.003 C 
ATOM      9  C   UNL     1      -1.029   1.564  25.190  0.00  0.00    +0.000 C 
ATOM     10  C   UNL     1      -0.303   1.778  24.863  0.00  0.00    +0.040 C 
ATOM     19  C   UNL     1       0.423   1.993  24.536  0.00  0.00    +0.152 C 
ATOM     20  O   UNL     1       0.989   1.415  24.370  0.00  0.00    -0.223 OA
ATOM     21  C   UNL     1       0.585   2.787  24.375  0.00  0.00    +0.033 C 
ATOM     22  C   UNL     1       0.021   3.364  24.541  0.00  0.00    +0.003 C 
ATOM     23  C   UNL     1      -0.706   3.150  24.868  0.00  0.00    +0.006 C 
ENDROOT
BRANCH   2   3
ATOM      3  C   UNL     1      -0.668   4.200  24.728  0.00  0.00    +0.185 C 
ATOM      4  O   UNL     1      -0.727   5.022  24.770  0.00  0.00    -0.220 OA
ENDBRANCH   2   3
BRANCH  10  11
ATOM     11  C   UNL     1      -0.464   0.985  25.023  0.00  0.00    +0.088 C 
BRANCH  11  12
ATOM     12  C   UNL     1      -0.441   0.428  24.416  0.00  0.00    +0.226 C 
ATOM     13  O   UNL     1      -0.309   0.671  23.638  0.00  0.00    -0.275 OA
ATOM     14  N   UNL     1      -0.548  -0.371  24.585  0.00  0.00    -0.280 N 
ATOM     15  C   UNL     1      -0.684  -0.695  25.331  0.00  0.00    +0.093 C 
ATOM     16  C   UNL     1      -0.759  -1.512  25.245  0.00  0.00    +0.023 C 
ATOM     17  C   UNL     1      -0.669  -1.694  24.446  0.00  0.00    +0.023 C 
ATOM     18  C   UNL     1      -0.539  -0.989  24.037  0.00  0.00    +0.093 C 
ENDBRANCH  11  12
ENDBRANCH  10  11
BRANCH   5  24
ATOM     24  O   UNL     1      -2.562   4.090  25.527  0.00  0.00    -0.437 OA
BRANCH  24  25
ATOM     25  C   UNL     1      -3.337   3.872  25.704  0.00  0.00    +0.425 C 
ATOM     26  O   UNL     1      -3.553   3.710  26.485  0.00  0.00    -0.224 OA
ATOM     27  N   UNL     1      -3.897   3.814  25.101  0.00  0.00    -0.142 NA
BRANCH  27  28
ATOM     28  C   UNL     1      -4.672   3.595  25.278  0.00  0.00    +0.077 A 
ATOM     29  C   UNL     1      -4.931   2.828  25.119  0.00  0.00    +0.021 A 
ATOM     30  C   UNL     1      -5.706   2.609  25.296  0.00  0.00    +0.073 A 
ATOM     31  C   UNL     1      -6.224   3.158  25.632  0.00  0.00    +0.004 A 
ATOM     32  C   UNL     1      -5.965   3.925  25.791  0.00  0.00    +0.001 A 
ATOM     33  C   UNL     1      -5.190   4.144  25.614  0.00  0.00    +0.017 A 
BRANCH  30  34
ATOM     34  C   UNL     1      -5.966   1.842  25.137  0.00  0.00    +0.419 C 
ATOM     35  F   UNL     1      -6.225   1.076  24.978  0.00  0.00    -0.166 F 
ATOM     36  F   UNL     1      -5.892   1.652  25.937  0.00  0.00    -0.166 F 
ATOM     37  F   UNL     1      -6.039   2.033  24.337  0.00  0.00    -0.166 F 
ENDBRANCH  30  34
ENDBRANCH  27  28
ENDBRANCH  24  25
ENDBRANCH   5  24
TORSDOF 7
ENDMDL
MODEL 5
REMARK VINA RESULT:     -11.4      2.547      5.677
REMARK  Name = 
REMARK  7 active torsions:
REMARK  status: ('A' for Active; 'I' for Inactive)
REMARK    1  A    between atoms: C_2  and  C_3
REMARK    2  A    between atoms: C_5  and  O_24
REMARK    3  A    between atoms: C_10  and  C_11
REMARK    4  A    between atoms: C_11  and  C_12
REMARK    5  A    between atoms: O_24  and  C_25
REMARK    6  A    between atoms: N_27  and  C_28
REMARK    7  A    between atoms: C_30  and  C_34
REMARK                            x       y       z     vdW  Elec       q    Type
REMARK                         _______ _______ _______ _____ _____    ______ ____
ROOT
ATOM      1  C   UNL     1      -1.098   2.621  24.537  0.00  0.00    +0.006 C 
ATOM      2  C   UNL     1      -1.178   1.804  24.464  0.00  0.00    +0.068 C 
ATOM      5  C   UNL     1      -1.972   2.025  24.474  0.00  0.00    +0.173 C 
ATOM      6  C   UNL     1      -2.562   1.449  24.417  0.00  0.00    +0.044 C 
ATOM      7  C   UNL     1      -2.356   0.654  24.349  0.00  0.00    +0.004 C 
ATOM      8  C   UNL     1      -1.562   0.433  24.338  0.00  0.00    +0.003 C 
ATOM      9  C   UNL     1      -2.150  -0.141  24.281  0.00  0.00    +0.000 C 
ATOM     10  C   UNL     1      -1.356  -0.363  24.271  0.00  0.00    +0.040 C 
ATOM     19  C   UNL     1      -0.562  -0.585  24.260  0.00  0.00    +0.152 C 
ATOM     20  O   UNL     1      -0.355  -1.381  24.192  0.00  0.00    -0.223 OA
ATOM     21  C   UNL     1       0.028  -0.009  24.318  0.00  0.00    +0.033 C 
ATOM     22  C   UNL     1      -0.178   0.786  24.386  0.00  0.00    +0.003 C 
ATOM     23  C   UNL     1      -0.972   1.008  24.396  0.00  0.00    +0.006 C 
ENDROOT
BRANCH   2   3
ATOM      3  C   UNL     1      -0.356   1.867  24.479  0.00  0.00    +0.185 C 
ATOM      4  O   UNL     1       0.000   2.609  24.542  0.00  0.00    -0.220 OA
ENDBRANCH   2   3
BRANCH  10  11
ATOM     11  C   UNL     1      -1.945  -0.938  24.213  0.00  0.00    +0.088 C 
BRANCH  11  12
ATOM     12  C   UNL     1      -1.986  -1.544  24.771  0.00  0.00    +0.226 C 
ATOM     13  O   UNL     1      -1.436  -1.577  25.386  0.00  0.00    -0.275 OA
ATOM     14  N   UNL     1      -2.576  -2.117  24.715  0.00  0.00    -0.280 N 
ATOM     15  C   UNL     1      -3.161  -2.155  24.135  0.00  0.00    +0.093 C 
ATOM     16  C   UNL     1      -3.632  -2.815  24.291  0.00  0.00    +0.023 C 
ATOM     17  C   UNL     1      -3.339  -3.183  24.968  0.00  0.00    +0.023 C 
ATOM     18  C   UNL     1      -2.686  -2.752  25.231  0.00  0.00    +0.093 C 
ENDBRANCH  11  12
ENDBRANCH  10  11
BRANCH   5  24
ATOM     24  O   UNL     1      -2.179   2.821  24.542  0.00  0.00    -0.437 OA
BRANCH  24  25
ATOM     25  C   UNL     1      -2.972   3.039  24.606  0.00  0.00    +0.425 C 
ATOM     26  O   UNL     1      -3.434   3.118  23.926  0.00  0.00    -0.224 OA
ATOM     27  N   UNL     1      -3.304   3.177  25.348  0.00  0.00    -0.142 NA
BRANCH  27  28
ATOM     28  C   UNL     1      -4.096   3.394  25.412  0.00  0.00    +0.077 A 
ATOM     29  C   UNL     1      -4.667   2.827  25.594  0.00  0.00    +0.021 A 
ATOM     30  C   UNL     1      -5.460   3.045  25.658  0.00  0.00    +0.073 A 
ATOM     31  C   UNL     1      -5.683   3.831  25.539  0.00  0.00    +0.004 A 
ATOM     32  C   UNL     1      -5.113   4.398  25.357  0.00  0.00    +0.001 A 
ATOM     33  C   UNL     1      -4.319   4.181  25.293  0.00  0.00    +0.017 A 
BRANCH  30  34
ATOM     34  C   UNL     1      -6.031   2.478  25.840  0.00  0.00    +0.419 C 
ATOM     35  F   UNL     1      -6.601   1.911  26.022  0.00  0.00    -0.166 F 
ATOM     36  F   UNL     1      -5.862   2.566  26.643  0.00  0.00    -0.166 F 
ATOM     37  F   UNL     1      -6.199   2.390  25.037  0.00  0.00    -0.166 F 
ENDBRANCH  30  34
ENDBRANCH  27  28
ENDBRANCH  24  25
ENDBRANCH   5  24
TORSDOF 7
ENDMDL
MODEL 6
REMARK VINA RESULT:     -11.3      2.816      4.937
REMARK  Name = 
REMARK  7 active torsions:
REMARK  status: ('A' for Active; 'I' for Inactive)
REMARK    1  A    between atoms: C_2  and  C_3
REMARK    2  A    between atoms: C_5  and  O_24
REMARK    3  A    between atoms: C_10  and  C_11
REMARK    4  A    between atoms: C_11  and  C_12
REMARK    5  A    between atoms: O_24  and  C_25
REMARK    6  A    between atoms: N_27  and  C_28
REMARK    7  A    between atoms: C_30  and  C_34
REMARK                            x       y       z     vdW  Elec       q    Type
REMARK                         _______ _______ _______ _____ _____    ______ ____
ROOT
ATOM      1  C   UNL     1      -4.035  -1.003  25.059  0.00  0.00    +0.006 C 
ATOM      2  C   UNL     1      -3.224  -0.922  24.934  0.00  0.00    +0.068 C 
ATOM      5  C   UNL     1      -3.478  -0.169  24.715  0.00  0.00    +0.173 C 
ATOM      6  C   UNL     1      -2.930   0.395  24.462  0.00  0.00    +0.044 C 
ATOM      7  C   UNL     1      -2.129   0.204  24.428  0.00  0.00    +0.004 C 
ATOM      8  C   UNL     1      -1.874  -0.549  24.646  0.00  0.00    +0.003 C 
ATOM      9  C   UNL     1      -1.328   0.014  24.393  0.00  0.00    +0.000 C 
ATOM     10  C   UNL     1      -1.072  -0.740  24.612  0.00  0.00    +0.040 C 
ATOM     19  C   UNL     1      -0.818  -1.493  24.831  0.00  0.00    +0.152 C 
ATOM     20  O   UNL     1      -0.016  -1.684  24.797  0.00  0.00    -0.223 OA
ATOM     21  C   UNL     1      -1.366  -2.057  25.084  0.00  0.00    +0.033 C 
ATOM     22  C   UNL     1      -2.167  -1.866  25.118  0.00  0.00    +0.003 C 
ATOM     23  C   UNL     1      -2.422  -1.112  24.900  0.00  0.00    +0.006 C 
ENDROOT
BRANCH   2   3
ATOM      3  C   UNL     1      -3.251  -1.703  25.196  0.00  0.00    +0.185 C 
ATOM      4  O   UNL     1      -3.979  -2.076  25.306  0.00  0.00    -0.220 OA
ENDBRANCH   2   3
BRANCH  10  11
ATOM     11  C   UNL     1      -0.525  -0.177  24.359  0.00  0.00    +0.088 C 
BRANCH  11  12
ATOM     12  C   UNL     1       0.005  -0.359  23.754  0.00  0.00    +0.226 C 
ATOM     13  O   UNL     1      -0.079  -1.063  23.330  0.00  0.00    -0.275 OA
ATOM     14  N   UNL     1       0.618   0.160  23.572  0.00  0.00    -0.280 N 
ATOM     15  C   UNL     1       0.771   0.880  23.945  0.00  0.00    +0.093 C 
ATOM     16  C   UNL     1       1.434   1.217  23.588  0.00  0.00    +0.023 C 
ATOM     17  C   UNL     1       1.692   0.705  22.994  0.00  0.00    +0.023 C 
ATOM     18  C   UNL     1       1.187   0.052  22.984  0.00  0.00    +0.093 C 
ENDBRANCH  11  12
ENDBRANCH  10  11
BRANCH   5  24
ATOM     24  O   UNL     1      -4.280   0.023  24.749  0.00  0.00    -0.437 OA
BRANCH  24  25
ATOM     25  C   UNL     1      -4.517   0.813  24.749  0.00  0.00    +0.425 C 
ATOM     26  O   UNL     1      -4.510   1.246  24.046  0.00  0.00    -0.224 OA
ATOM     27  N   UNL     1      -4.761   1.171  25.451  0.00  0.00    -0.142 NA
BRANCH  27  28
ATOM     28  C   UNL     1      -4.998   1.961  25.450  0.00  0.00    +0.077 A 
ATOM     29  C   UNL     1      -4.437   2.561  25.530  0.00  0.00    +0.021 A 
ATOM     30  C   UNL     1      -4.674   3.350  25.530  0.00  0.00    +0.073 A 
ATOM     31  C   UNL     1      -5.474   3.541  25.449  0.00  0.00    +0.004 A 
ATOM     32  C   UNL     1      -6.034   2.942  25.369  0.00  0.00    +0.001 A 
ATOM     33  C   UNL     1      -5.798   2.152  25.369  0.00  0.00    +0.017 A 
BRANCH  30  34
ATOM     34  C   UNL     1      -4.113   3.950  25.610  0.00  0.00    +0.419 C 
ATOM     35  F   UNL     1      -3.553   4.549  25.690  0.00  0.00    -0.166 F 
ATOM     36  F   UNL     1      -4.055   3.788  26.417  0.00  0.00    -0.166 F 
ATOM     37  F   UNL     1      -4.172   4.112  24.803  0.00  0.00    -0.166 F 
ENDBRANCH  30  34
ENDBRANCH  27  28
ENDBRANCH  24  25
ENDBRANCH   5  24
TORSDOF 7
ENDMDL
