MODEL 1
REMARK VINA RESULT:     -10.0      0.000      0.000
REMARK  Name = 
REMARK  8 active torsions:
REMARK  status: ('A' for Active; 'I' for Inactive)
REMARK    1  A    between atoms: C_2  and  C_4
REMARK    2  A    between atoms: C_6  and  C_7
REMARK    3  A    between atoms: C_7  and  C_8
REMARK    4  A    between atoms: C_11  and  C_13
REMARK    5  A    between atoms: C_22  and  C_23
REMARK    6  A    between atoms: C_23  and  N_24
REMARK    7  A    between atoms: N_27  and  C_28
REMARK    8  A    between atoms: C_28  and  C_29
REMARK                            x       y       z     vdW  Elec       q    Type
REMARK                         _______ _______ _______ _____ _____    ______ ____
ROOT
ATOM      4  C   UNL     1      -4.854   1.654  24.917  0.00  0.00    +0.006 C 
ATOM      5  C   UNL     1      -4.760   0.910  24.575  0.00  0.00    +0.005 C 
ATOM      6  C   UNL     1      -4.162   0.784  24.020  0.00  0.00    +0.027 C 
ATOM     19  C   UNL     1      -3.659   1.402  23.808  0.00  0.00    -0.048 C 
ATOM     20  C   UNL     1      -3.061   1.276  23.254  0.00  0.00    +0.026 C 
ATOM     21  C   UNL     1      -3.754   2.147  24.151  0.00  0.00    -0.034 C 
ATOM     22  C   UNL     1      -4.351   2.273  24.705  0.00  0.00    +0.037 C 
ENDROOT
BRANCH   4   2
ATOM      1  C   UNL     1      -6.173   2.104  25.233  0.00  0.00    +0.000 C 
ATOM      2  C   UNL     1      -5.452   1.780  25.471  0.00  0.00    +0.000 C 
ATOM      3  C   UNL     1      -5.330   1.582  26.262  0.00  0.00    +0.000 C 
ENDBRANCH   4   2
BRANCH   6   7
ATOM      7  C   UNL     1      -4.067   0.039  23.679  0.00  0.00    +0.091 C 
BRANCH   7   8
ATOM      8  C   UNL     1      -3.689  -0.562  24.097  0.00  0.00    +0.227 A 
ATOM      9  N   UNL     1      -4.059  -1.191  24.484  0.00  0.00    -0.111 NA
ATOM     10  N   UNL     1      -3.473  -1.658  24.829  0.00  0.00    -0.107 NA
ATOM     11  C   UNL     1      -2.741  -1.319  24.655  0.00  0.00    +0.250 A 
ATOM     12  O   UNL     1      -2.875  -0.641  24.203  0.00  0.00    -0.420 OA
BRANCH  11  13
ATOM     13  C   UNL     1      -2.005  -1.605  24.892  0.00  0.00    +0.058 A 
ATOM     14  C   UNL     1      -1.530  -1.158  25.397  0.00  0.00    +0.025 A 
ATOM     15  C   UNL     1      -0.794  -1.443  25.635  0.00  0.00    +0.099 A 
ATOM     16  N   UNL     1      -0.532  -2.179  25.366  0.00  0.00    -0.242 NA
ATOM     17  C   UNL     1      -1.005  -2.627  24.861  0.00  0.00    +0.099 A 
ATOM     18  C   UNL     1      -1.742  -2.340  24.624  0.00  0.00    +0.025 A 
ENDBRANCH  11  13
ENDBRANCH   7   8
ENDBRANCH   6   7
BRANCH  22  23
ATOM     23  C   UNL     1      -4.446   3.017  25.047  0.00  0.00    +0.076 C 
BRANCH  23  24
ATOM     24  N   UNL     1      -3.800   3.527  25.111  0.00  0.00    -0.270 NA
ATOM     25  C   UNL     1      -3.311   3.492  25.775  0.00  0.00    +0.090 C 
ATOM     26  C   UNL     1      -2.666   4.002  25.839  0.00  0.00    +0.090 C 
ATOM     27  N   UNL     1      -2.509   4.547  25.239  0.00  0.00    -0.268 NA
ATOM     31  C   UNL     1      -2.998   4.582  24.576  0.00  0.00    +0.090 C 
ATOM     32  C   UNL     1      -3.644   4.072  24.512  0.00  0.00    +0.090 C 
BRANCH  27  28
ATOM     28  C   UNL     1      -1.865   5.056  25.303  0.00  0.00    +0.108 C 
BRANCH  28  29
ATOM     29  C   UNL     1      -1.137   4.844  24.978  0.00  0.00    +0.199 C 
ATOM     30  O   UNL     1      -0.534   5.404  24.913  0.00  0.00    -0.219 OA
ENDBRANCH  28  29
ENDBRANCH  27  28
ENDBRANCH  23  24
ENDBRANCH  22  23
TORSDOF 8
ENDMDL
MODEL 2
REMARK VINA RESULT:      -9.9      1.831      5.177
REMARK  Name = 
REMARK  8 active torsions:
REMARK  status: ('A' for Active; 'I' for Inactive)
REMARK    1  A    between atoms: C_2  and  C_4
REMARK    2  A    between atoms: C_6  and  C_7
REMARK    3  A    between atoms: C_7  and  C_8
REMARK    4  A    between atoms: C_11  and  C_13
REMARK    5  A    between atoms: C_22  and  C_23
REMARK    6  A    between atoms: C_23  and  N_24
REMARK    7  A    between atoms: N_27  and  C_28
REMARK    8  A    between atoms: C_28  and  C_29
REMARK                            x       y       z     vdW  Elec       q    Type
REMARK                         _______ _______ _______ _____ _____    ______ ____
ROOT
ATOM      4  C   UNL     1      -1.230   2.592  24.727  0.00  0.00    +0.006 C 
ATOM      5  C   UNL     1      -1.870   3.045  24.472  0.00  0.00    +0.005 C 
ATOM      6  C   UNL     1      -2.341   2.778  23.848  0.00  0.00    +0.027 C 
ATOM     19  C   UNL     1      -2.172   2.059  23.481  0.00  0.00    -0.048 C 
ATOM     20  C   UNL     1      -2.642   1.794  22.858  0.00  0.00    +0.026 C 
ATOM     21  C   UNL     1      -1.531   1.607  23.737  0.00  0.00    -0.034 C 
ATOM     22  C   UNL     1      -1.060   1.873  24.359  0.00  0.00    +0.037 C 
ENDROOT
BRANCH   4   2
ATOM      1  C   UNL     1      -0.037   3.227  25.192  0.00  0.00    +0.000 C 
ATOM      2  C   UNL     1      -0.759   2.858  25.350  0.00  0.00    +0.000 C 
ATOM      3  C   UNL     1      -1.009   2.757  26.128  0.00  0.00    +0.000 C 
ENDBRANCH   4   2
BRANCH   6   7
ATOM      7  C   UNL     1      -2.981   3.232  23.593  0.00  0.00    +0.091 C 
BRANCH   7   8
ATOM      8  C   UNL     1      -3.640   3.325  24.079  0.00  0.00    +0.227 A 
ATOM      9  N   UNL     1      -3.928   4.041  24.374  0.00  0.00    -0.111 NA
ATOM     10  N   UNL     1      -4.594   3.878  24.833  0.00  0.00    -0.107 NA
ATOM     11  C   UNL     1      -4.718   3.062  24.823  0.00  0.00    +0.250 A 
ATOM     12  O   UNL     1      -4.128   2.721  24.356  0.00  0.00    -0.420 OA
BRANCH  11  13
ATOM     13  C   UNL     1      -5.324   2.659  25.210  0.00  0.00    +0.058 A 
ATOM     14  C   UNL     1      -5.787   2.115  24.797  0.00  0.00    +0.025 A 
ATOM     15  C   UNL     1      -6.393   1.710  25.183  0.00  0.00    +0.099 A 
ATOM     16  N   UNL     1      -6.537   1.850  25.984  0.00  0.00    -0.242 NA
ATOM     17  C   UNL     1      -6.074   2.394  26.397  0.00  0.00    +0.099 A 
ATOM     18  C   UNL     1      -5.467   2.798  26.010  0.00  0.00    +0.025 A 
ENDBRANCH  11  13
ENDBRANCH   7   8
ENDBRANCH   6   7
BRANCH  22  23
ATOM     23  C   UNL     1      -0.420   1.420  24.615  0.00  0.00    +0.076 C 
BRANCH  23  24
ATOM     24  N   UNL     1      -0.476   0.596  24.629  0.00  0.00    -0.270 NA
ATOM     25  C   UNL     1      -0.874   0.221  25.247  0.00  0.00    +0.090 C 
ATOM     26  C   UNL     1      -0.930  -0.602  25.260  0.00  0.00    +0.090 C 
ATOM     27  N   UNL     1      -0.589  -1.050  24.656  0.00  0.00    -0.268 NA
ATOM     31  C   UNL     1      -0.191  -0.673  24.039  0.00  0.00    +0.090 C 
ATOM     32  C   UNL     1      -0.135   0.150  24.025  0.00  0.00    +0.090 C 
BRANCH  27  28
ATOM     28  C   UNL     1      -0.645  -1.872  24.670  0.00  0.00    +0.108 C 
BRANCH  28  29
ATOM     29  C   UNL     1      -1.385  -2.235  24.702  0.00  0.00    +0.199 C 
ATOM     30  O   UNL     1      -1.484  -2.998  24.404  0.00  0.00    -0.219 OA
ENDBRANCH  28  29
ENDBRANCH  27  28
ENDBRANCH  23  24
ENDBRANCH  22  23
TORSDOF 8
ENDMDL
MODEL 3
REMARK VINA RESULT:      -9.8      1.206      4.962
REMARK  Name = 
REMARK  8 active torsions:
REMARK  status: ('A' for Active; 'I' for Inactive)
REMARK    1  A    between atoms: C_2  and  C_4
REMARK    2  A    between atoms: C_6  and  C_7
REMARK    3  A    between atoms: C_7  and  C_8
REMARK    4  A    between atoms: C_11  and  C_13
REMARK    5  A    between atoms: C_22  and  C_23
REMARK    6  A    between atoms: C_23  and  N_24
REMARK    7  A    between atoms: N_27  and  C_28
REMARK    8  A    between atoms: C_28  and  C_29
REMARK                            x       y       z     vdW  Elec       q    Type
REMARK                         _______ _______ _______ _____ _____    ______ ____
ROOT
ATOM      4  C   UNL     1      -4.968   1.492  24.812  0.00  0.00    +0.006 C 
ATOM      5  C   UNL     1      -4.739   2.211  24.477  0.00  0.00    +0.005 C 
ATOM      6  C   UNL     1      -4.130   2.231  23.921  0.00  0.00    +0.027 C 
ATOM     19  C   UNL     1      -3.749   1.532  23.700  0.00  0.00    -0.048 C 
ATOM     20  C   UNL     1      -3.141   1.553  23.144  0.00  0.00    +0.026 C 
ATOM     21  C   UNL     1      -3.979   0.814  24.036  0.00  0.00    -0.034 C 
ATOM     22  C   UNL     1      -4.587   0.794  24.592  0.00  0.00    +0.037 C 
ENDROOT
BRANCH   4   2
ATOM      1  C   UNL     1      -6.357   1.368  25.121  0.00  0.00    +0.000 C 
ATOM      2  C   UNL     1      -5.577   1.473  25.368  0.00  0.00    +0.000 C 
ATOM      3  C   UNL     1      -5.406   1.558  26.170  0.00  0.00    +0.000 C 
ENDBRANCH   4   2
BRANCH   6   7
ATOM      7  C   UNL     1      -3.901   2.949  23.585  0.00  0.00    +0.091 C 
BRANCH   7   8
ATOM      8  C   UNL     1      -3.476   3.496  24.032  0.00  0.00    +0.227 A 
ATOM      9  N   UNL     1      -3.795   4.124  24.461  0.00  0.00    -0.111 NA
ATOM     10  N   UNL     1      -3.172   4.528  24.823  0.00  0.00    -0.107 NA
ATOM     11  C   UNL     1      -2.469   4.149  24.616  0.00  0.00    +0.250 A 
ATOM     12  O   UNL     1      -2.657   3.511  24.127  0.00  0.00    -0.420 OA
BRANCH  11  13
ATOM     13  C   UNL     1      -1.711   4.369  24.856  0.00  0.00    +0.058 A 
ATOM     14  C   UNL     1      -1.212   3.814  25.208  0.00  0.00    +0.025 A 
ATOM     15  C   UNL     1      -0.454   4.032  25.448  0.00  0.00    +0.099 A 
ATOM     16  N   UNL     1      -0.195   4.808  25.336  0.00  0.00    -0.242 NA
ATOM     17  C   UNL     1      -0.692   5.364  24.985  0.00  0.00    +0.099 A 
ATOM     18  C   UNL     1      -1.451   5.143  24.745  0.00  0.00    +0.025 A 
ENDBRANCH  11  13
ENDBRANCH   7   8
ENDBRANCH   6   7
BRANCH  22  23
ATOM     23  C   UNL     1      -4.816   0.077  24.927  0.00  0.00    +0.076 C 
BRANCH  23  24
ATOM     24  N   UNL     1      -4.332  -0.588  24.849  0.00  0.00    -0.270 NA
ATOM     25  C   UNL     1      -4.438  -1.103  24.213  0.00  0.00    +0.090 C 
ATOM     26  C   UNL     1      -3.955  -1.767  24.135  0.00  0.00    +0.090 C 
ATOM     27  N   UNL     1      -3.365  -1.916  24.694  0.00  0.00    -0.268 NA
ATOM     31  C   UNL     1      -3.260  -1.401  25.329  0.00  0.00    +0.090 C 
ATOM     32  C   UNL     1      -3.743  -0.737  25.407  0.00  0.00    +0.090 C 
BRANCH  27  28
ATOM     28  C   UNL     1      -2.883  -2.580  24.616  0.00  0.00    +0.108 C 
BRANCH  28  29
ATOM     29  C   UNL     1      -2.068  -2.489  24.520  0.00  0.00    +0.199 C 
ATOM     30  O   UNL     1      -1.629  -3.075  24.141  0.00  0.00    -0.219 OA
ENDBRANCH  28  29
ENDBRANCH  27  28
ENDBRANCH  23  24
ENDBRANCH  22  23
TORSDOF 8
ENDMDL
MODEL 4
REMARK VINA RESULT:      -9.6      2.424      3.578
REMARK  Name = 
REMARK  8 active torsions:
REMARK  status: ('A' for Active; 'I' for Inactive)
REMARK    1  A    between atoms: C_2  and  C_4
REMARK    2  A    between atoms: C_6  and  C_7
REMARK    3  A    between atoms: C_7  and  C_8
REMARK    4  A    between atoms: C_11  and  C_13
REMARK    5  A    between atoms: C_22  and  C_23
REMARK    6  A    between atoms: C_23  and  N_24
REMARK    7  A    between atoms: N_27  and  C_28
REMARK    8  A    between atoms: C_28  and  C_29
REMARK                            x       y       z     vdW  Elec       q    Type
REMARK                         _______ _______ _______ _____ _____    ______ ____
ROOT
ATOM      4  C   UNL     1      -3.076  -0.358  24.698  0.00  0.00    +0.006 C 
ATOM      5  C   UNL     1      -2.280  -0.442  24.894  0.00  0.00    +0.005 C 
ATOM      6  C   UNL     1      -1.829   0.223  25.084  0.00  0.00    +0.027 C 
ATOM     19  C   UNL     1      -2.176   0.972  25.076  0.00  0.00    -0.048 C 
ATOM     20  C   UNL     1      -1.727   1.636  25.265  0.00  0.00    +0.026 C 
ATOM     21  C   UNL     1      -2.973   1.055  24.879  0.00  0.00    -0.034 C 
ATOM     22  C   UNL     1      -3.423   0.390  24.690  0.00  0.00    +0.037 C 
ENDROOT
BRANCH   4   2
ATOM      1  C   UNL     1      -3.786  -1.529  25.107  0.00  0.00    +0.000 C 
ATOM      2  C   UNL     1      -3.526  -1.024  24.509  0.00  0.00    +0.000 C 
ATOM      3  C   UNL     1      -3.715  -1.184  23.723  0.00  0.00    +0.000 C 
ENDBRANCH   4   2
BRANCH   6   7
ATOM      7  C   UNL     1      -1.033   0.139  25.280  0.00  0.00    +0.091 C 
BRANCH   7   8
ATOM      8  C   UNL     1      -0.514  -0.224  24.753  0.00  0.00    +0.227 A 
ATOM      9  N   UNL     1      -0.363  -1.034  24.702  0.00  0.00    -0.111 NA
ATOM     10  N   UNL     1       0.191  -1.153  24.101  0.00  0.00    -0.107 NA
ATOM     11  C   UNL     1       0.381  -0.416  23.781  0.00  0.00    +0.250 A 
ATOM     12  O   UNL     1      -0.055   0.157  24.184  0.00  0.00    -0.420 OA
BRANCH  11  13
ATOM     13  C   UNL     1       0.913  -0.278  23.166  0.00  0.00    +0.058 A 
ATOM     14  C   UNL     1       0.712  -0.483  22.393  0.00  0.00    +0.025 A 
ATOM     15  C   UNL     1       1.243  -0.345  21.777  0.00  0.00    +0.099 A 
ATOM     16  N   UNL     1       1.977  -0.000  21.936  0.00  0.00    -0.242 NA
ATOM     17  C   UNL     1       2.178   0.205  22.708  0.00  0.00    +0.099 A 
ATOM     18  C   UNL     1       1.645   0.066  23.324  0.00  0.00    +0.025 A 
ENDBRANCH  11  13
ENDBRANCH   7   8
ENDBRANCH   6   7
BRANCH  22  23
ATOM     23  C   UNL     1      -4.219   0.473  24.494  0.00  0.00    +0.076 C 
BRANCH  23  24
ATOM     24  N   UNL     1      -4.636   1.144  24.735  0.00  0.00    -0.270 NA
ATOM     25  C   UNL     1      -4.631   1.823  24.266  0.00  0.00    +0.090 C 
ATOM     26  C   UNL     1      -5.048   2.494  24.507  0.00  0.00    +0.090 C 
ATOM     27  N   UNL     1      -5.469   2.485  25.217  0.00  0.00    -0.268 NA
ATOM     31  C   UNL     1      -5.473   1.805  25.685  0.00  0.00    +0.090 C 
ATOM     32  C   UNL     1      -5.057   1.135  25.444  0.00  0.00    +0.090 C 
BRANCH  27  28
ATOM     28  C   UNL     1      -5.885   3.154  25.458  0.00  0.00    +0.108 C 
BRANCH  28  29
ATOM     29  C   UNL     1      -5.482   3.856  25.616  0.00  0.00    +0.199 C 
ATOM     30  O   UNL     1      -5.903   4.545  25.787  0.00  0.00    -0.219 OA
ENDBRANCH  28  29
ENDBRANCH  27  28
ENDBRANCH  23  24
ENDBRANCH  22  23
TORSDOF 8
ENDMDL
MODEL 5
REMARK VINA RESULT:      -9.4      1.881      3.113
REMARK  Name = 
REMARK  8 active torsions:
REMARK  status: ('A' for Active; 'I' for Inactive)
REMARK    1  A    between atoms: C_2  and  C_4
REMARK    2  A    between atoms: C_6  and  C_7
REMARK    3  A    between atoms: C_7  and  C_8
REMARK    4  A    between atoms: C_11  and  C_13
REMARK    5  A    between atoms: C_22  and  C_23
REMARK    6  A    between atoms: C_23  and  N_24
REMARK    7  A    between atoms: N_27  and  C_28
REMARK    8  A    between atoms: C_28  and  C_29
REMARK                            x       y       z     vdW  Elec       q    Type
REMARK                         _______ _______ _______ _____ _____    ______ ____
ROOT
ATOM      4  C   UNL     1      -0.768   2.275  25.125  0.00  0.00    +0.006 C 
ATOM      5  C   UNL     1      -0.531   1.565  24.779  0.00  0.00    +0.005 C 
ATOM      6  C   UNL     1      -0.931   1.275  24.117  0.00  0.00    +0.027 C 
ATOM     19  C   UNL     1      -1.567   1.696  23.802  0.00  0.00    -0.048 C 
ATOM     20  C   UNL     1      -1.966   1.406  23.142  0.00  0.00    +0.026 C 
ATOM     21  C   UNL     1      -1.803   2.406  24.150  0.00  0.00    -0.034 C 
ATOM     22  C   UNL     1      -1.404   2.696  24.810  0.00  0.00    +0.037 C 
ENDROOT
BRANCH   4   2
ATOM      1  C   UNL     1       0.162   3.191  25.705  0.00  0.00    +0.000 C 
ATOM      2  C   UNL     1      -0.368   2.564  25.786  0.00  0.00    +0.000 C 
ATOM      3  C   UNL     1      -0.498   2.227  26.527  0.00  0.00    +0.000 C 
ENDBRANCH   4   2
BRANCH   6   7
ATOM      7  C   UNL     1      -0.694   0.565  23.771  0.00  0.00    +0.091 C 
BRANCH   7   8
ATOM      8  C   UNL     1      -0.880  -0.152  24.131  0.00  0.00    +0.227 A 
ATOM      9  N   UNL     1      -0.344  -0.669  24.489  0.00  0.00    -0.111 NA
ATOM     10  N   UNL     1      -0.767  -1.316  24.777  0.00  0.00    -0.107 NA
ATOM     11  C   UNL     1      -1.564  -1.199  24.598  0.00  0.00    +0.250 A 
ATOM     12  O   UNL     1      -1.633  -0.480  24.199  0.00  0.00    -0.420 OA
BRANCH  11  13
ATOM     13  C   UNL     1      -2.183  -1.711  24.784  0.00  0.00    +0.058 A 
ATOM     14  C   UNL     1      -2.735  -1.500  25.361  0.00  0.00    +0.025 A 
ATOM     15  C   UNL     1      -3.354  -2.011  25.548  0.00  0.00    +0.099 A 
ATOM     16  N   UNL     1      -3.422  -2.735  25.158  0.00  0.00    -0.242 NA
ATOM     17  C   UNL     1      -2.872  -2.948  24.582  0.00  0.00    +0.099 A 
ATOM     18  C   UNL     1      -2.252  -2.435  24.396  0.00  0.00    +0.025 A 
ENDBRANCH  11  13
ENDBRANCH   7   8
ENDBRANCH   6   7
BRANCH  22  23
ATOM     23  C   UNL     1      -1.641   3.405  25.157  0.00  0.00    +0.076 C 
BRANCH  23  24
ATOM     24  N   UNL     1      -2.444   3.592  25.209  0.00  0.00    -0.270 NA
ATOM     25  C   UNL     1      -2.805   4.028  24.609  0.00  0.00    +0.090 C 
ATOM     26  C   UNL     1      -3.607   4.215  24.661  0.00  0.00    +0.090 C 
ATOM     27  N   UNL     1      -4.048   3.964  25.313  0.00  0.00    -0.268 NA
ATOM     31  C   UNL     1      -3.685   3.528  25.912  0.00  0.00    +0.090 C 
ATOM     32  C   UNL     1      -2.883   3.342  25.860  0.00  0.00    +0.090 C 
BRANCH  27  28
ATOM     28  C   UNL     1      -4.849   4.151  25.365  0.00  0.00    +0.108 C 
BRANCH  28  29
ATOM     29  C   UNL     1      -5.394   3.572  25.585  0.00  0.00    +0.199 C 
ATOM     30  O   UNL     1      -6.180   3.777  25.725  0.00  0.00    -0.219 OA
ENDBRANCH  28  29
ENDBRANCH  27  28
ENDBRANCH  23  24
ENDBRANCH  22  23
TORSDOF 8
ENDMDL
MODEL 6
REMARK VINA RESULT:      -9.3      2.448      4.934
REMARK  Name = 
REMARK  8 active torsions:
REMARK  status: ('A' for Active; 'I' for Inactive)
REMARK    1  A    between atoms: C_2  and  C_4
REMARK    2  A    between atoms: C_6  and  C_7
REMARK    3  A    between atoms: C_7  and  C_8
REMARK    4  A    between atoms: C_11  and  C_13
REMARK    5  A    between atoms: C_22  and  C_23
REMARK    6  A    between atoms: C_23  and  N_24
REMARK    7  A    between atoms: N_27  and  C_28
REMARK    8  A    between atoms: C_28  and  C_29
REMARK                            x       y       z     vdW  Elec       q    Type
REMARK                         _______ _______ _______ _____ _____    ______ ____
ROOT
ATOM      4  C   UNL     1      -1.933  -0.338  24.783  0.00  0.00    +0.006 C 
ATOM      5  C   UNL     1      -2.710  -0.165  24.563  0.00  0.00    +0.005 C 
ATOM      6  C   UNL     1      -2.856   0.382  23.963  0.00  0.00    +0.027 C 
ATOM     19  C   UNL     1      -2.227   0.757  23.583  0.00  0.00    -0.048 C 
ATOM     20  C   UNL     1      -2.374   1.303  22.984  0.00  0.00    +0.026 C 
ATOM     21  C   UNL     1      -1.451   0.583  23.803  0.00  0.00    -0.034 C 
ATOM     22  C   UNL     1      -1.304   0.037  24.403  0.00  0.00    +0.037 C 
ENDROOT
BRANCH   4   2
ATOM      1  C   UNL     1      -1.820  -1.694  25.219  0.00  0.00    +0.000 C 
ATOM      2  C   UNL     1      -1.787  -0.885  25.382  0.00  0.00    +0.000 C 
ATOM      3  C   UNL     1      -1.609  -0.625  26.144  0.00  0.00    +0.000 C 
ENDBRANCH   4   2
BRANCH   6   7
ATOM      7  C   UNL     1      -3.633   0.555  23.744  0.00  0.00    +0.091 C 
BRANCH   7   8
ATOM      8  C   UNL     1      -4.141   0.920  24.279  0.00  0.00    +0.227 A 
ATOM      9  N   UNL     1      -4.670   0.537  24.784  0.00  0.00    -0.111 NA
ATOM     10  N   UNL     1      -5.067   1.114  25.222  0.00  0.00    -0.107 NA
ATOM     11  C   UNL     1      -4.783   1.852  24.988  0.00  0.00    +0.250 A 
ATOM     12  O   UNL     1      -4.211   1.732  24.405  0.00  0.00    -0.420 OA
BRANCH  11  13
ATOM     13  C   UNL     1      -5.028   2.582  25.284  0.00  0.00    +0.058 A 
ATOM     14  C   UNL     1      -4.476   3.182  25.410  0.00  0.00    +0.025 A 
ATOM     15  C   UNL     1      -4.720   3.913  25.706  0.00  0.00    +0.099 A 
ATOM     16  N   UNL     1      -5.517   4.043  25.876  0.00  0.00    -0.242 NA
ATOM     17  C   UNL     1      -6.070   3.444  25.750  0.00  0.00    +0.099 A 
ATOM     18  C   UNL     1      -5.824   2.713  25.453  0.00  0.00    +0.025 A 
ENDBRANCH  11  13
ENDBRANCH   7   8
ENDBRANCH   6   7
BRANCH  22  23
ATOM     23  C   UNL     1      -0.529  -0.136  24.622  0.00  0.00    +0.076 C 
BRANCH  23  24
ATOM     24  N   UNL     1       0.094   0.029  24.105  0.00  0.00    -0.270 NA
ATOM     25  C   UNL     1       0.476   0.759  24.141  0.00  0.00    +0.090 C 
ATOM     26  C   UNL     1       1.098   0.925  23.624  0.00  0.00    +0.090 C 
ATOM     27  N   UNL     1       1.337   0.359  23.071  0.00  0.00    -0.268 NA
ATOM     31  C   UNL     1       0.954  -0.370  23.037  0.00  0.00    +0.090 C 
ATOM     32  C   UNL     1       0.332  -0.535  23.554  0.00  0.00    +0.090 C 
BRANCH  27  28
ATOM     28  C   UNL     1       1.958   0.524  22.555  0.00  0.00    +0.108 C 
BRANCH  28  29
ATOM     29  C   UNL     1       2.705   0.205  22.693  0.00  0.00    +0.199 C 
ATOM     30  O   UNL     1       3.365   0.517  22.309  0.00  0.00    -0.219 OA
ENDBRANCH  28  29
ENDBRANCH  27  28
ENDBRANCH  23  24
ENDBRANCH  22  23
TORSDOF 8
ENDMDL
MODEL 7
REMARK VINA RESULT:      -9.2      2.846      5.315
REMARK  Name = 
REMARK  8 active torsions:
REMARK  status: ('A' for Active; 'I' for Inactive)
REMARK    1  A    between atoms: C_2  and  C_4
REMARK    2  A    between atoms: C_6  and  C_7
REMARK    3  A    between atoms: C_7  and  C_8
REMARK    4  A    between atoms: C_11  and  C_13
REMARK    5  A    between atoms: C_22  and  C_23
REMARK    6  A    between atoms: C_23  and  N_24
REMARK    7  A    between atoms: N_27  and  C_28
REMARK    8  A    between atoms: C_28  and  C_29
REMARK                            x       y       z     vdW  Elec       q    Type
REMARK                         _______ _______ _______ _____ _____    ______ ____
ROOT
ATOM      4  C   UNL     1      -1.282   0.350  24.684  0.00  0.00    +0.006 C 
ATOM      5  C   UNL     1      -1.661   1.025  24.970  0.00  0.00    +0.005 C 
ATOM      6  C   UNL     1      -1.342   1.772  24.820  0.00  0.00    +0.027 C 
ATOM     19  C   UNL     1      -0.644   1.843  24.386  0.00  0.00    -0.048 C 
ATOM     20  C   UNL     1      -0.326   2.589  24.237  0.00  0.00    +0.026 C 
ATOM     21  C   UNL     1      -0.266   1.168  24.101  0.00  0.00    -0.034 C 
ATOM     22  C   UNL     1      -0.584   0.422  24.250  0.00  0.00    +0.037 C 
ENDROOT
BRANCH   4   2
ATOM      1  C   UNL     1      -1.379  -0.810  25.512  0.00  0.00    +0.000 C 
ATOM      2  C   UNL     1      -1.601  -0.396  24.833  0.00  0.00    +0.000 C 
ATOM      3  C   UNL     1      -2.140  -0.727  24.305  0.00  0.00    +0.000 C 
ENDBRANCH   4   2
BRANCH   6   7
ATOM      7  C   UNL     1      -1.722   2.446  25.106  0.00  0.00    +0.091 C 
BRANCH   7   8
ATOM      8  C   UNL     1      -2.498   2.608  24.883  0.00  0.00    +0.227 A 
ATOM      9  N   UNL     1      -2.733   3.024  24.210  0.00  0.00    -0.111 NA
ATOM     10  N   UNL     1      -3.558   3.056  24.204  0.00  0.00    -0.107 NA
ATOM     11  C   UNL     1      -3.833   2.660  24.873  0.00  0.00    +0.250 A 
ATOM     12  O   UNL     1      -3.178   2.383  25.293  0.00  0.00    -0.420 OA
BRANCH  11  13
ATOM     13  C   UNL     1      -4.623   2.558  25.086  0.00  0.00    +0.058 A 
ATOM     14  C   UNL     1      -4.994   3.112  25.572  0.00  0.00    +0.025 A 
ATOM     15  C   UNL     1      -5.784   3.011  25.786  0.00  0.00    +0.099 A 
ATOM     16  N   UNL     1      -6.204   2.355  25.513  0.00  0.00    -0.242 NA
ATOM     17  C   UNL     1      -5.834   1.800  25.027  0.00  0.00    +0.099 A 
ATOM     18  C   UNL     1      -5.042   1.902  24.814  0.00  0.00    +0.025 A 
ENDBRANCH  11  13
ENDBRANCH   7   8
ENDBRANCH   6   7
BRANCH  22  23
ATOM     23  C   UNL     1      -0.205  -0.253  23.965  0.00  0.00    +0.076 C 
BRANCH  23  24
ATOM     24  N   UNL     1       0.495  -0.181  23.532  0.00  0.00    -0.270 NA
ATOM     25  C   UNL     1       0.468  -0.124  22.710  0.00  0.00    +0.090 C 
ATOM     26  C   UNL     1       1.167  -0.053  22.278  0.00  0.00    +0.090 C 
ATOM     27  N   UNL     1       1.894  -0.039  22.669  0.00  0.00    -0.268 NA
ATOM     31  C   UNL     1       1.920  -0.096  23.491  0.00  0.00    +0.090 C 
ATOM     32  C   UNL     1       1.221  -0.167  23.923  0.00  0.00    +0.090 C 
BRANCH  27  28
ATOM     28  C   UNL     1       2.593   0.033  22.238  0.00  0.00    +0.108 C 
BRANCH  28  29
ATOM     29  C   UNL     1       3.196   0.526  22.508  0.00  0.00    +0.199 C 
ATOM     30  O   UNL     1       3.862   0.658  22.039  0.00  0.00    -0.219 OA
ENDBRANCH  28  29
ENDBRANCH  27  28
ENDBRANCH  23  24
ENDBRANCH  22  23
TORSDOF 8
ENDMDL
MODEL 8
REMARK VINA RESULT:      -9.1      1.826      3.263
REMARK  Name = 
REMARK  8 active torsions:
REMARK  status: ('A' for Active; 'I' for Inactive)
REMARK    1  A    between atoms: C_2  and  C_4
REMARK    2  A    between atoms: C_6  and  C_7
REMARK    3  A    between atoms: C_7  and  C_8
REMARK    4  A    between atoms: C_11  and  C_13
REMARK    5  A    between atoms: C_22  and  C_23
REMARK    6  A    between atoms: C_23  and  N_24
REMARK    7  A    between atoms: N_27  and  C_28
REMARK    8  A    between atoms: C_28  and  C_29
REMARK                            x       y       z     vdW  Elec       q    Type
REMARK                         _______ _______ _______ _____ _____    ______ ____
ROOT
ATOM      4  C   UNL     1      -2.353   2.204  23.342  0.00  0.00    +0.006 C 
ATOM      5  C   UNL     1      -1.611   1.886  23.514  0.00  0.00    +0.005 C 
ATOM      6  C   UNL     1      -1.283   1.988  24.264  0.00  0.00    +0.027 C 
ATOM     19  C   UNL     1      -1.696   2.408  24.842  0.00  0.00    -0.048 C 
ATOM     20  C   UNL     1      -1.367   2.510  25.591  0.00  0.00    +0.026 C 
ATOM     21  C   UNL     1      -2.437   2.726  24.669  0.00  0.00    -0.034 C 
ATOM     22  C   UNL     1      -2.766   2.624  23.920  0.00  0.00    +0.037 C 
ENDROOT
BRANCH   4   2
ATOM      1  C   UNL     1      -2.655   2.717  22.043  0.00  0.00    +0.000 C 
ATOM      2  C   UNL     1      -2.680   2.101  22.592  0.00  0.00    +0.000 C 
ATOM      3  C   UNL     1      -3.034   1.384  22.391  0.00  0.00    +0.000 C 
ENDBRANCH   4   2
BRANCH   6   7
ATOM      7  C   UNL     1      -0.541   1.670  24.436  0.00  0.00    +0.091 C 
BRANCH   7   8
ATOM      8  C   UNL     1      -0.402   0.865  24.328  0.00  0.00    +0.227 A 
ATOM      9  N   UNL     1       0.178   0.534  23.844  0.00  0.00    -0.111 NA
ATOM     10  N   UNL     1       0.120  -0.288  23.902  0.00  0.00    -0.107 NA
ATOM     11  C   UNL     1      -0.496  -0.463  24.422  0.00  0.00    +0.250 A 
ATOM     12  O   UNL     1      -0.819   0.249  24.685  0.00  0.00    -0.420 OA
BRANCH  11  13
ATOM     13  C   UNL     1      -0.746  -1.218  24.640  0.00  0.00    +0.058 A 
ATOM     14  C   UNL     1      -1.416  -1.549  24.290  0.00  0.00    +0.025 A 
ATOM     15  C   UNL     1      -1.667  -2.304  24.508  0.00  0.00    +0.099 A 
ATOM     16  N   UNL     1      -1.246  -2.729  25.077  0.00  0.00    -0.242 NA
ATOM     17  C   UNL     1      -0.577  -2.400  25.428  0.00  0.00    +0.099 A 
ATOM     18  C   UNL     1      -0.327  -1.643  25.209  0.00  0.00    +0.025 A 
ENDBRANCH  11  13
ENDBRANCH   7   8
ENDBRANCH   6   7
BRANCH  22  23
ATOM     23  C   UNL     1      -3.507   2.941  23.747  0.00  0.00    +0.076 C 
BRANCH  23  24
ATOM     24  N   UNL     1      -4.105   2.926  24.317  0.00  0.00    -0.270 NA
ATOM     25  C   UNL     1      -4.561   2.245  24.418  0.00  0.00    +0.090 C 
ATOM     26  C   UNL     1      -5.158   2.230  24.987  0.00  0.00    +0.090 C 
ATOM     27  N   UNL     1      -5.300   2.896  25.454  0.00  0.00    -0.268 NA
ATOM     31  C   UNL     1      -4.844   3.576  25.352  0.00  0.00    +0.090 C 
ATOM     32  C   UNL     1      -4.246   3.591  24.783  0.00  0.00    +0.090 C 
BRANCH  27  28
ATOM     28  C   UNL     1      -5.897   2.881  26.022  0.00  0.00    +0.108 C 
BRANCH  28  29
ATOM     29  C   UNL     1      -6.141   2.163  26.346  0.00  0.00    +0.199 C 
ATOM     30  O   UNL     1      -6.586   2.152  27.040  0.00  0.00    -0.219 OA
ENDBRANCH  28  29
ENDBRANCH  27  28
ENDBRANCH  23  24
ENDBRANCH  22  23
TORSDOF 8
ENDMDL
