MODEL 1
REMARK VINA RESULT:      -9.6      0.000      0.000
REMARK  Name = 
REMARK  8 active torsions:
REMARK  status: ('A' for Active; 'I' for Inactive)
REMARK    1  A    between atoms: C_2  and  C_4
REMARK    2  A    between atoms: C_6  and  C_7
REMARK    3  A    between atoms: C_7  and  C_8
REMARK    4  A    between atoms: N_10  and  C_11
REMARK    5  A    between atoms: C_11  and  C_12
REMARK    6  A    between atoms: C_21  and  C_22
REMARK    7  A    between atoms: C_22  and  N_23
REMARK    8  A    between atoms: N_26  and  C_27
REMARK                            x       y       z     vdW  Elec       q    Type
REMARK                         _______ _______ _______ _____ _____    ______ ____
ROOT
ATOM      4  C   UNL     1      -0.431   1.435  24.434  0.00  0.00    +0.006 C 
ATOM      5  C   UNL     1       0.147   0.910  24.170  0.00  0.00    +0.005 C 
ATOM      6  C   UNL     1      -0.056   0.134  23.974  0.00  0.00    +0.027 C 
ATOM     18  C   UNL     1      -0.839  -0.116  24.043  0.00  0.00    -0.048 C 
ATOM     19  C   UNL     1      -1.043  -0.892  23.848  0.00  0.00    +0.026 C 
ATOM     20  C   UNL     1      -1.419   0.409  24.307  0.00  0.00    -0.033 C 
ATOM     21  C   UNL     1      -1.215   1.184  24.502  0.00  0.00    +0.043 C 
ENDROOT
BRANCH   4   2
ATOM      1  C   UNL     1       0.025   2.389  25.394  0.00  0.00    +0.000 C 
ATOM      2  C   UNL     1      -0.228   2.209  24.629  0.00  0.00    +0.000 C 
ATOM      3  C   UNL     1      -0.277   2.805  24.060  0.00  0.00    +0.000 C 
ENDBRANCH   4   2
BRANCH   6   7
ATOM      7  C   UNL     1       0.522  -0.390  23.711  0.00  0.00    +0.091 C 
BRANCH   7   8
ATOM      8  C   UNL     1       1.034  -0.167  23.101  0.00  0.00    +0.242 C 
ATOM      9  O   UNL     1       0.734   0.002  22.352  0.00  0.00    -0.273 OA
ATOM     10  N   UNL     1       1.845  -0.115  23.243  0.00  0.00    -0.200 NA
BRANCH  10  11
ATOM     11  C   UNL     1       2.356   0.107  22.635  0.00  0.00    +0.143 C 
BRANCH  11  12
ATOM     12  C   UNL     1       3.160   0.214  22.788  0.00  0.00    +0.019 A 
ATOM     13  C   UNL     1       3.512   0.948  22.650  0.00  0.00    +0.001 A 
ATOM     14  C   UNL     1       4.315   1.055  22.803  0.00  0.00    +0.020 A 
ATOM     15  C   UNL     1       4.766   0.430  23.095  0.00  0.00    +0.099 A 
ATOM     16  N   UNL     1       4.415  -0.303  23.233  0.00  0.00    -0.243 NA
ATOM     17  C   UNL     1       3.611  -0.411  23.080  0.00  0.00    +0.096 A 
ENDBRANCH  11  12
ENDBRANCH  10  11
ENDBRANCH   7   8
ENDBRANCH   6   7
BRANCH  21  22
ATOM     22  C   UNL     1      -1.795   1.709  24.767  0.00  0.00    +0.121 C 
BRANCH  22  23
ATOM     23  N   UNL     1      -2.545   1.701  24.424  0.00  0.00    -0.187 NA
ATOM     24  C   UNL     1      -3.194   1.983  24.848  0.00  0.00    +0.344 C 
ATOM     25  O   UNL     1      -3.093   2.273  25.613  0.00  0.00    -0.249 OA
ATOM     26  N   UNL     1      -3.945   1.975  24.505  0.00  0.00    -0.161 NA
BRANCH  26  27
ATOM     27  C   UNL     1      -4.594   2.257  24.929  0.00  0.00    +0.077 A 
ATOM     28  C   UNL     1      -5.115   1.726  25.287  0.00  0.00    +0.017 A 
ATOM     29  C   UNL     1      -5.764   2.008  25.711  0.00  0.00    +0.004 A 
ATOM     30  C   UNL     1      -5.892   2.820  25.778  0.00  0.00    +0.030 A 
ATOM     31  C   UNL     1      -5.371   3.351  25.421  0.00  0.00    +0.141 A 
ATOM     32  F   UNL     1      -5.499   4.163  25.488  0.00  0.00    -0.204 F 
ATOM     33  C   UNL     1      -4.722   3.068  24.996  0.00  0.00    +0.046 A 
ENDBRANCH  26  27
ENDBRANCH  22  23
ENDBRANCH  21  22
TORSDOF 8
ENDMDL
MODEL 2
REMARK VINA RESULT:      -9.2      2.264      6.849
REMARK  Name = 
REMARK  8 active torsions:
REMARK  status: ('A' for Active; 'I' for Inactive)
REMARK    1  A    between atoms: C_2  and  C_4
REMARK    2  A    between atoms: C_6  and  C_7
REMARK    3  A    between atoms: C_7  and  C_8
REMARK    4  A    between atoms: N_10  and  C_11
REMARK    5  A    between atoms: C_11  and  C_12
REMARK    6  A    between atoms: C_21  and  C_22
REMARK    7  A    between atoms: C_22  and  N_23
REMARK    8  A    between atoms: N_26  and  C_27
REMARK                            x       y       z     vdW  Elec       q    Type
REMARK                         _______ _______ _______ _____ _____    ______ ____
ROOT
ATOM      4  C   UNL     1      -1.042   1.217  24.294  0.00  0.00    +0.006 C 
ATOM      5  C   UNL     1      -1.784   0.957  24.545  0.00  0.00    +0.005 C 
ATOM      6  C   UNL     1      -1.934   0.150  24.626  0.00  0.00    +0.027 C 
ATOM     18  C   UNL     1      -1.342  -0.398  24.456  0.00  0.00    -0.048 C 
ATOM     19  C   UNL     1      -1.492  -1.206  24.537  0.00  0.00    +0.026 C 
ATOM     20  C   UNL     1      -0.599  -0.140  24.206  0.00  0.00    -0.033 C 
ATOM     21  C   UNL     1      -0.449   0.667  24.125  0.00  0.00    +0.043 C 
ENDROOT
BRANCH   4   2
ATOM      1  C   UNL     1      -0.593   2.453  24.851  0.00  0.00    +0.000 C 
ATOM      2  C   UNL     1      -0.892   2.023  24.213  0.00  0.00    +0.000 C 
ATOM      3  C   UNL     1      -1.041   2.400  23.495  0.00  0.00    +0.000 C 
ENDBRANCH   4   2
BRANCH   6   7
ATOM      7  C   UNL     1      -2.676  -0.108  24.876  0.00  0.00    +0.091 C 
BRANCH   7   8
ATOM      8  C   UNL     1      -3.359   0.207  24.535  0.00  0.00    +0.242 C 
ATOM      9  O   UNL     1      -3.569  -0.001  23.766  0.00  0.00    -0.273 OA
ATOM     10  N   UNL     1      -3.831   0.729  24.966  0.00  0.00    -0.200 NA
BRANCH  10  11
ATOM     11  C   UNL     1      -4.514   1.044  24.626  0.00  0.00    +0.143 C 
BRANCH  11  12
ATOM     12  C   UNL     1      -4.920   1.654  25.004  0.00  0.00    +0.019 A 
ATOM     13  C   UNL     1      -4.735   2.440  24.832  0.00  0.00    +0.001 A 
ATOM     14  C   UNL     1      -5.141   3.051  25.210  0.00  0.00    +0.020 A 
ATOM     15  C   UNL     1      -5.731   2.876  25.758  0.00  0.00    +0.099 A 
ATOM     16  N   UNL     1      -5.916   2.091  25.930  0.00  0.00    -0.243 NA
ATOM     17  C   UNL     1      -5.510   1.480  25.552  0.00  0.00    +0.096 A 
ENDBRANCH  11  12
ENDBRANCH  10  11
ENDBRANCH   7   8
ENDBRANCH   6   7
BRANCH  21  22
ATOM     22  C   UNL     1       0.294   0.926  23.874  0.00  0.00    +0.121 C 
BRANCH  22  23
ATOM     23  N   UNL     1       0.766   0.435  23.409  0.00  0.00    -0.187 NA
ATOM     24  C   UNL     1       1.580   0.560  23.375  0.00  0.00    +0.344 C 
ATOM     25  O   UNL     1       1.922   1.174  23.804  0.00  0.00    -0.249 OA
ATOM     26  N   UNL     1       2.053   0.068  22.909  0.00  0.00    -0.161 NA
BRANCH  26  27
ATOM     27  C   UNL     1       2.868   0.193  22.875  0.00  0.00    +0.077 A 
ATOM     28  C   UNL     1       3.168   0.846  22.469  0.00  0.00    +0.017 A 
ATOM     29  C   UNL     1       3.983   0.971  22.435  0.00  0.00    +0.004 A 
ATOM     30  C   UNL     1       4.497   0.444  22.805  0.00  0.00    +0.030 A 
ATOM     31  C   UNL     1       4.197  -0.209  23.211  0.00  0.00    +0.141 A 
ATOM     32  F   UNL     1       4.712  -0.737  23.581  0.00  0.00    -0.204 F 
ATOM     33  C   UNL     1       3.382  -0.334  23.245  0.00  0.00    +0.046 A 
ENDBRANCH  26  27
ENDBRANCH  22  23
ENDBRANCH  21  22
TORSDOF 8
ENDMDL
MODEL 3
REMARK VINA RESULT:      -8.5      2.652      6.451
REMARK  Name = 
REMARK  8 active torsions:
REMARK  status: ('A' for Active; 'I' for Inactive)
REMARK    1  A    between atoms: C_2  and  C_4
REMARK    2  A    between atoms: C_6  and  C_7
REMARK    3  A    between atoms: C_7  and  C_8
REMARK    4  A    between atoms: N_10  and  C_11
REMARK    5  A    between atoms: C_11  and  C_12
REMARK    6  A    between atoms: C_21  and  C_22
REMARK    7  A    between atoms: C_22  and  N_23
REMARK    8  A    between atoms: N_26  and  C_27
REMARK                            x       y       z     vdW  Elec       q    Type
REMARK                         _______ _______ _______ _____ _____    ______ ____
ROOT
ATOM      4  C   UNL     1      -1.130   1.440  24.733  0.00  0.00    +0.006 C 
ATOM      5  C   UNL     1      -1.952   1.498  24.707  0.00  0.00    +0.005 C 
ATOM      6  C   UNL     1      -2.341   1.537  23.980  0.00  0.00    +0.027 C 
ATOM     18  C   UNL     1      -1.907   1.517  23.279  0.00  0.00    -0.048 C 
ATOM     19  C   UNL     1      -2.296   1.555  22.552  0.00  0.00    +0.026 C 
ATOM     20  C   UNL     1      -1.084   1.458  23.304  0.00  0.00    -0.033 C 
ATOM     21  C   UNL     1      -0.696   1.420  24.031  0.00  0.00    +0.043 C 
ENDROOT
BRANCH   4   2
ATOM      1  C   UNL     1      -0.461   2.092  25.814  0.00  0.00    +0.000 C 
ATOM      2  C   UNL     1      -0.742   1.402  25.459  0.00  0.00    +0.000 C 
ATOM      3  C   UNL     1      -0.633   0.674  25.831  0.00  0.00    +0.000 C 
ENDBRANCH   4   2
BRANCH   6   7
ATOM      7  C   UNL     1      -3.163   1.595  23.955  0.00  0.00    +0.091 C 
BRANCH   7   8
ATOM      8  C   UNL     1      -3.627   1.074  24.397  0.00  0.00    +0.242 C 
ATOM      9  O   UNL     1      -4.036   1.347  25.059  0.00  0.00    -0.273 OA
ATOM     10  N   UNL     1      -3.681   0.281  24.176  0.00  0.00    -0.200 NA
BRANCH  10  11
ATOM     11  C   UNL     1      -4.145  -0.239  24.617  0.00  0.00    +0.143 C 
BRANCH  11  12
ATOM     12  C   UNL     1      -4.046  -1.054  24.534  0.00  0.00    +0.019 A 
ATOM     13  C   UNL     1      -3.637  -1.480  25.111  0.00  0.00    +0.001 A 
ATOM     14  C   UNL     1      -3.538  -2.295  25.027  0.00  0.00    +0.020 A 
ATOM     15  C   UNL     1      -3.846  -2.683  24.369  0.00  0.00    +0.099 A 
ATOM     16  N   UNL     1      -4.255  -2.257  23.793  0.00  0.00    -0.243 NA
ATOM     17  C   UNL     1      -4.355  -1.442  23.876  0.00  0.00    +0.096 A 
ENDBRANCH  11  12
ENDBRANCH  10  11
ENDBRANCH   7   8
ENDBRANCH   6   7
BRANCH  21  22
ATOM     22  C   UNL     1       0.127   1.362  24.056  0.00  0.00    +0.121 C 
BRANCH  22  23
ATOM     23  N   UNL     1       0.523   0.884  23.513  0.00  0.00    -0.187 NA
ATOM     24  C   UNL     1       1.348   0.890  23.484  0.00  0.00    +0.344 C 
ATOM     25  O   UNL     1       1.775   1.371  23.999  0.00  0.00    -0.249 OA
ATOM     26  N   UNL     1       1.745   0.412  22.940  0.00  0.00    -0.161 NA
BRANCH  26  27
ATOM     27  C   UNL     1       2.569   0.418  22.912  0.00  0.00    +0.077 A 
ATOM     28  C   UNL     1       2.968   1.088  22.640  0.00  0.00    +0.017 A 
ATOM     29  C   UNL     1       3.792   1.093  22.612  0.00  0.00    +0.004 A 
ATOM     30  C   UNL     1       4.218   0.431  22.855  0.00  0.00    +0.030 A 
ATOM     31  C   UNL     1       3.820  -0.239  23.126  0.00  0.00    +0.141 A 
ATOM     32  F   UNL     1       4.246  -0.902  23.369  0.00  0.00    -0.204 F 
ATOM     33  C   UNL     1       2.995  -0.245  23.154  0.00  0.00    +0.046 A 
ENDBRANCH  26  27
ENDBRANCH  22  23
ENDBRANCH  21  22
TORSDOF 8
ENDMDL
MODEL 4
REMARK VINA RESULT:      -8.4      2.271      7.034
REMARK  Name = 
REMARK  8 active torsions:
REMARK  status: ('A' for Active; 'I' for Inactive)
REMARK    1  A    between atoms: C_2  and  C_4
REMARK    2  A    between atoms: C_6  and  C_7
REMARK    3  A    between atoms: C_7  and  C_8
REMARK    4  A    between atoms: N_10  and  C_11
REMARK    5  A    between atoms: C_11  and  C_12
REMARK    6  A    between atoms: C_21  and  C_22
REMARK    7  A    between atoms: C_22  and  N_23
REMARK    8  A    between atoms: N_26  and  C_27
REMARK                            x       y       z     vdW  Elec       q    Type
REMARK                         _______ _______ _______ _____ _____    ______ ____
ROOT
ATOM      4  C   UNL     1      -1.354   1.752  24.848  0.00  0.00    +0.006 C 
ATOM      5  C   UNL     1      -1.901   2.290  25.151  0.00  0.00    +0.005 C 
ATOM      6  C   UNL     1      -1.697   3.086  25.231  0.00  0.00    +0.027 C 
ATOM     18  C   UNL     1      -0.946   3.343  25.009  0.00  0.00    -0.048 C 
ATOM     19  C   UNL     1      -0.742   4.139  25.089  0.00  0.00    +0.026 C 
ATOM     20  C   UNL     1      -0.398   2.806  24.705  0.00  0.00    -0.033 C 
ATOM     21  C   UNL     1      -0.602   2.010  24.625  0.00  0.00    +0.043 C 
ENDROOT
BRANCH   4   2
ATOM      1  C   UNL     1      -1.900   0.688  24.066  0.00  0.00    +0.000 C 
ATOM      2  C   UNL     1      -1.558   0.958  24.767  0.00  0.00    +0.000 C 
ATOM      3  C   UNL     1      -1.420   0.432  25.387  0.00  0.00    +0.000 C 
ENDBRANCH   4   2
BRANCH   6   7
ATOM      7  C   UNL     1      -2.244   3.623  25.534  0.00  0.00    +0.091 C 
BRANCH   7   8
ATOM      8  C   UNL     1      -2.980   3.712  25.170  0.00  0.00    +0.242 C 
ATOM      9  O   UNL     1      -3.042   4.136  24.465  0.00  0.00    -0.273 OA
ATOM     10  N   UNL     1      -3.652   3.377  25.511  0.00  0.00    -0.200 NA
BRANCH  10  11
ATOM     11  C   UNL     1      -4.387   3.466  25.147  0.00  0.00    +0.143 C 
BRANCH  11  12
ATOM     12  C   UNL     1      -5.011   2.966  25.350  0.00  0.00    +0.019 A 
ATOM     13  C   UNL     1      -5.246   2.368  24.830  0.00  0.00    +0.001 A 
ATOM     14  C   UNL     1      -5.870   1.869  25.032  0.00  0.00    +0.020 A 
ATOM     15  C   UNL     1      -6.260   1.965  25.752  0.00  0.00    +0.099 A 
ATOM     16  N   UNL     1      -6.026   2.562  26.271  0.00  0.00    -0.243 NA
ATOM     17  C   UNL     1      -5.401   3.062  26.069  0.00  0.00    +0.096 A 
ENDBRANCH  11  12
ENDBRANCH  10  11
ENDBRANCH   7   8
ENDBRANCH   6   7
BRANCH  21  22
ATOM     22  C   UNL     1      -0.054   1.472  24.322  0.00  0.00    +0.121 C 
BRANCH  22  23
ATOM     23  N   UNL     1       0.704   1.727  24.118  0.00  0.00    -0.187 NA
ATOM     24  C   UNL     1       1.208   1.225  23.701  0.00  0.00    +0.344 C 
ATOM     25  O   UNL     1       0.955   0.470  23.488  0.00  0.00    -0.249 OA
ATOM     26  N   UNL     1       1.967   1.479  23.498  0.00  0.00    -0.161 NA
BRANCH  26  27
ATOM     27  C   UNL     1       2.471   0.977  23.081  0.00  0.00    +0.077 A 
ATOM     28  C   UNL     1       2.158   0.368  22.619  0.00  0.00    +0.017 A 
ATOM     29  C   UNL     1       2.662  -0.134  22.202  0.00  0.00    +0.004 A 
ATOM     30  C   UNL     1       3.478  -0.029  22.246  0.00  0.00    +0.030 A 
ATOM     31  C   UNL     1       3.792   0.579  22.707  0.00  0.00    +0.141 A 
ATOM     32  F   UNL     1       4.609   0.684  22.752  0.00  0.00    -0.204 F 
ATOM     33  C   UNL     1       3.287   1.082  23.125  0.00  0.00    +0.046 A 
ENDBRANCH  26  27
ENDBRANCH  22  23
ENDBRANCH  21  22
TORSDOF 8
ENDMDL
MODEL 5
REMARK VINA RESULT:      -8.3      4.050      5.684
REMARK  Name = 
REMARK  8 active torsions:
REMARK  status: ('A' for Active; 'I' for Inactive)
REMARK    1  A    between atoms: C_2  and  C_4
REMARK    2  A    between atoms: C_6  and  C_7
REMARK    3  A    between atoms: C_7  and  C_8
REMARK    4  A    between atoms: N_10  and  C_11
REMARK    5  A    between atoms: C_11  and  C_12
REMARK    6  A    between atoms: C_21  and  C_22
REMARK    7  A    between atoms: C_22  and  N_23
REMARK    8  A    between atoms: N_26  and  C_27
REMARK                            x       y       z     vdW  Elec       q    Type
REMARK                         _______ _______ _______ _____ _____    ______ ____
ROOT
ATOM      4  C   UNL     1      -5.054   1.872  24.915  0.00  0.00    +0.006 C 
ATOM      5  C   UNL     1      -4.894   2.663  24.744  0.00  0.00    +0.005 C 
ATOM      6  C   UNL     1      -4.341   2.855  24.163  0.00  0.00    +0.027 C 
ATOM     18  C   UNL     1      -3.949   2.257  23.752  0.00  0.00    -0.048 C 
ATOM     19  C   UNL     1      -3.396   2.450  23.170  0.00  0.00    +0.026 C 
ATOM     20  C   UNL     1      -4.109   1.466  23.923  0.00  0.00    -0.033 C 
ATOM     21  C   UNL     1      -4.662   1.273  24.504  0.00  0.00    +0.043 C 
ENDROOT
BRANCH   4   2
ATOM      1  C   UNL     1      -5.369   1.608  26.284  0.00  0.00    +0.000 C 
ATOM      2  C   UNL     1      -5.606   1.680  25.496  0.00  0.00    +0.000 C 
ATOM      3  C   UNL     1      -6.396   1.559  25.291  0.00  0.00    +0.000 C 
ENDBRANCH   4   2
BRANCH   6   7
ATOM      7  C   UNL     1      -4.181   3.646  23.992  0.00  0.00    +0.091 C 
BRANCH   7   8
ATOM      8  C   UNL     1      -3.790   4.117  24.547  0.00  0.00    +0.242 C 
ATOM      9  O   UNL     1      -4.223   4.572  25.079  0.00  0.00    -0.273 OA
ATOM     10  N   UNL     1      -2.965   4.131  24.567  0.00  0.00    -0.200 NA
BRANCH  10  11
ATOM     11  C   UNL     1      -2.574   4.601  25.121  0.00  0.00    +0.143 C 
BRANCH  11  12
ATOM     12  C   UNL     1      -1.750   4.624  25.135  0.00  0.00    +0.019 A 
ATOM     13  C   UNL     1      -1.324   3.971  25.408  0.00  0.00    +0.001 A 
ATOM     14  C   UNL     1      -0.499   3.994  25.422  0.00  0.00    +0.020 A 
ATOM     15  C   UNL     1      -0.101   4.668  25.164  0.00  0.00    +0.099 A 
ATOM     16  N   UNL     1      -0.526   5.320  24.892  0.00  0.00    -0.243 NA
ATOM     17  C   UNL     1      -1.351   5.297  24.877  0.00  0.00    +0.096 A 
ENDBRANCH  11  12
ENDBRANCH  10  11
ENDBRANCH   7   8
ENDBRANCH   6   7
BRANCH  21  22
ATOM     22  C   UNL     1      -4.823   0.482  24.675  0.00  0.00    +0.121 C 
BRANCH  22  23
ATOM     23  N   UNL     1      -4.591  -0.109  24.147  0.00  0.00    -0.187 NA
ATOM     24  C   UNL     1      -4.181  -0.769  24.423  0.00  0.00    +0.344 C 
ATOM     25  O   UNL     1      -4.002  -0.838  25.224  0.00  0.00    -0.249 OA
ATOM     26  N   UNL     1      -3.949  -1.360  23.895  0.00  0.00    -0.161 NA
BRANCH  26  27
ATOM     27  C   UNL     1      -3.539  -2.020  24.171  0.00  0.00    +0.077 A 
ATOM     28  C   UNL     1      -3.945  -2.720  24.333  0.00  0.00    +0.017 A 
ATOM     29  C   UNL     1      -3.535  -3.380  24.609  0.00  0.00    +0.004 A 
ATOM     30  C   UNL     1      -2.719  -3.342  24.722  0.00  0.00    +0.030 A 
ATOM     31  C   UNL     1      -2.313  -2.643  24.560  0.00  0.00    +0.141 A 
ATOM     32  F   UNL     1      -1.496  -2.604  24.673  0.00  0.00    -0.204 F 
ATOM     33  C   UNL     1      -2.723  -1.981  24.284  0.00  0.00    +0.046 A 
ENDBRANCH  26  27
ENDBRANCH  22  23
ENDBRANCH  21  22
TORSDOF 8
ENDMDL
