MODEL 1
REMARK VINA RESULT:     -12.0      0.000      0.000
REMARK  Name = 
REMARK  6 active torsions:
REMARK  status: ('A' for Active; 'I' for Inactive)
REMARK    1  A    between atoms: C_2  and  C_4
REMARK    2  A    between atoms: C_4  and  C_5
REMARK    3  A    between atoms: C_7  and  C_25
REMARK    4  A    between atoms: N_11  and  C_12
REMARK    5  A    between atoms: C_12  and  C_13
REMARK    6  A    between atoms: N_27  and  C_28
REMARK                            x       y       z     vdW  Elec       q    Type
REMARK                         _______ _______ _______ _____ _____    ______ ____
ROOT
ATOM      5  C   UNL     1      -3.264   2.762  24.841  0.00  0.00    +0.095 C 
ATOM      6  N   UNL     1      -2.481   2.687  24.592  0.00  0.00    -0.207 NA
ATOM      7  C   UNL     1      -2.088   2.010  24.329  0.00  0.00    +0.155 C 
ATOM      8  C   UNL     1      -2.380   1.243  24.251  0.00  0.00    +0.055 C 
ATOM      9  C   UNL     1      -3.138   0.962  24.416  0.00  0.00    -0.002 A 
ATOM     10  C   UNL     1      -3.364   0.175  24.314  0.00  0.00    +0.072 A 
ATOM     11  N   UNL     1      -4.156   0.106  24.535  0.00  0.00    -0.321 N 
ATOM     19  C   UNL     1      -4.420   0.850  24.774  0.00  0.00    +0.060 A 
ATOM     20  C   UNL     1      -3.791   1.380  24.700  0.00  0.00    +0.011 A 
ATOM     21  C   UNL     1      -3.846   2.181  24.889  0.00  0.00    -0.005 A 
ATOM     22  C   UNL     1      -4.625   2.437  25.176  0.00  0.00    -0.003 A 
ATOM     23  C   UNL     1      -5.255   1.909  25.249  0.00  0.00    +0.001 A 
ATOM     24  C   UNL     1      -5.152   1.115  25.048  0.00  0.00    +0.017 A 
ENDROOT
BRANCH   7  25
ATOM     25  C   UNL     1      -1.297   2.116  24.117  0.00  0.00    +0.257 C 
ATOM     26  O   UNL     1      -1.108   2.488  23.405  0.00  0.00    -0.272 OA
ATOM     27  N   UNL     1      -0.697   1.850  24.616  0.00  0.00    -0.206 NA
BRANCH  27  28
ATOM     28  C   UNL     1       0.093   1.956  24.403  0.00  0.00    +0.095 C 
ATOM     29  C   UNL     1       0.785   1.666  24.061  0.00  0.00    +0.023 C 
ATOM     30  C   UNL     1       0.769   2.429  24.376  0.00  0.00    +0.023 C 
ENDBRANCH  27  28
ENDBRANCH   7  25
BRANCH   5   4
ATOM      4  C   UNL     1      -3.494   3.520  25.072  0.00  0.00    +0.022 C 
BRANCH   4   2
ATOM      1  C   UNL     1      -2.823   3.883  26.281  0.00  0.00    +0.000 C 
ATOM      2  C   UNL     1      -2.963   4.006  25.477  0.00  0.00    +0.002 C 
ATOM      3  C   UNL     1      -2.574   4.615  25.078  0.00  0.00    +0.000 C 
ENDBRANCH   4   2
ENDBRANCH   5   4
BRANCH  11  12
ATOM     12  C   UNL     1      -4.606  -0.585  24.520  0.00  0.00    +0.152 C 
BRANCH  12  13
ATOM     13  C   UNL     1      -4.232  -1.321  24.528  0.00  0.00    +0.082 A 
ATOM     14  N   UNL     1      -3.856  -1.584  25.213  0.00  0.00    -0.246 NA
ATOM     15  C   UNL     1      -3.482  -2.320  25.221  0.00  0.00    +0.099 A 
ATOM     16  C   UNL     1      -3.486  -2.792  24.544  0.00  0.00    +0.021 A 
ATOM     17  C   UNL     1      -3.864  -2.528  23.859  0.00  0.00    +0.003 A 
ATOM     18  C   UNL     1      -4.237  -1.792  23.851  0.00  0.00    +0.017 A 
ENDBRANCH  12  13
ENDBRANCH  11  12
TORSDOF 6
ENDMDL
MODEL 2
REMARK VINA RESULT:     -11.6      1.412      4.233
REMARK  Name = 
REMARK  6 active torsions:
REMARK  status: ('A' for Active; 'I' for Inactive)
REMARK    1  A    between atoms: C_2  and  C_4
REMARK    2  A    between atoms: C_4  and  C_5
REMARK    3  A    between atoms: C_7  and  C_25
REMARK    4  A    between atoms: N_11  and  C_12
REMARK    5  A    between atoms: C_12  and  C_13
REMARK    6  A    between atoms: N_27  and  C_28
REMARK                            x       y       z     vdW  Elec       q    Type
REMARK                         _______ _______ _______ _____ _____    ______ ____
ROOT
ATOM      5  C   UNL     1      -3.622  -0.305  24.907  0.00  0.00    +0.095 C 
ATOM      6  N   UNL     1      -2.818  -0.490  24.881  0.00  0.00    -0.207 NA
ATOM      7  C   UNL     1      -2.172   0.024  24.860  0.00  0.00    +0.155 C 
ATOM      8  C   UNL     1      -2.172   0.849  24.861  0.00  0.00    +0.055 C 
ATOM      9  C   UNL     1      -2.816   1.364  24.883  0.00  0.00    -0.002 A 
ATOM     10  C   UNL     1      -2.741   2.186  24.882  0.00  0.00    +0.072 A 
ATOM     11  N   UNL     1      -3.499   2.511  24.908  0.00  0.00    -0.321 N 
ATOM     19  C   UNL     1      -4.043   1.890  24.925  0.00  0.00    +0.060 A 
ATOM     20  C   UNL     1      -3.620   1.181  24.910  0.00  0.00    +0.011 A 
ATOM     21  C   UNL     1      -3.978   0.438  24.920  0.00  0.00    -0.005 A 
ATOM     22  C   UNL     1      -4.846   0.450  24.949  0.00  0.00    -0.003 A 
ATOM     23  C   UNL     1      -5.269   1.158  24.964  0.00  0.00    +0.001 A 
ATOM     24  C   UNL     1      -4.867   1.878  24.952  0.00  0.00    +0.017 A 
ENDROOT
BRANCH   7  25
ATOM     25  C   UNL     1      -1.430  -0.335  24.835  0.00  0.00    +0.257 C 
ATOM     26  O   UNL     1      -1.101  -0.650  25.523  0.00  0.00    -0.272 OA
ATOM     27  N   UNL     1      -1.017  -0.378  24.122  0.00  0.00    -0.206 NA
BRANCH  27  28
ATOM     28  C   UNL     1      -0.274  -0.738  24.098  0.00  0.00    +0.095 C 
ATOM     29  C   UNL     1       0.519  -0.723  23.873  0.00  0.00    +0.023 C 
ATOM     30  C   UNL     1       0.218  -1.374  24.281  0.00  0.00    +0.023 C 
ENDBRANCH  27  28
ENDBRANCH   7  25
BRANCH   5   4
ATOM      4  C   UNL     1      -4.136  -0.950  24.923  0.00  0.00    +0.022 C 
BRANCH   4   2
ATOM      1  C   UNL     1      -4.052  -1.705  23.713  0.00  0.00    +0.000 C 
ATOM      2  C   UNL     1      -3.936  -1.646  24.527  0.00  0.00    +0.002 C 
ATOM      3  C   UNL     1      -3.621  -2.284  24.947  0.00  0.00    +0.000 C 
ENDBRANCH   4   2
ENDBRANCH   5   4
BRANCH  11  12
ATOM     12  C   UNL     1      -3.683   3.315  24.915  0.00  0.00    +0.152 C 
BRANCH  12  13
ATOM     13  C   UNL     1      -3.102   3.869  25.106  0.00  0.00    +0.082 A 
ATOM     14  N   UNL     1      -2.624   4.185  24.513  0.00  0.00    -0.246 NA
ATOM     15  C   UNL     1      -2.043   4.740  24.703  0.00  0.00    +0.099 A 
ATOM     16  C   UNL     1      -1.942   4.978  25.487  0.00  0.00    +0.021 A 
ATOM     17  C   UNL     1      -2.421   4.662  26.079  0.00  0.00    +0.003 A 
ATOM     18  C   UNL     1      -3.001   4.108  25.889  0.00  0.00    +0.017 A 
ENDBRANCH  12  13
ENDBRANCH  11  12
TORSDOF 6
ENDMDL
MODEL 3
REMARK VINA RESULT:     -11.5      1.623      2.456
REMARK  Name = 
REMARK  6 active torsions:
REMARK  status: ('A' for Active; 'I' for Inactive)
REMARK    1  A    between atoms: C_2  and  C_4
REMARK    2  A    between atoms: C_4  and  C_5
REMARK    3  A    between atoms: C_7  and  C_25
REMARK    4  A    between atoms: N_11  and  C_12
REMARK    5  A    between atoms: C_12  and  C_13
REMARK    6  A    between atoms: N_27  and  C_28
REMARK                            x       y       z     vdW  Elec       q    Type
REMARK                         _______ _______ _______ _____ _____    ______ ____
ROOT
ATOM      5  C   UNL     1      -4.248   2.273  24.952  0.00  0.00    +0.095 C 
ATOM      6  N   UNL     1      -3.657   2.823  25.119  0.00  0.00    -0.207 NA
ATOM      7  C   UNL     1      -2.842   2.704  25.166  0.00  0.00    +0.155 C 
ATOM      8  C   UNL     1      -2.417   2.006  25.057  0.00  0.00    +0.055 C 
ATOM      9  C   UNL     1      -2.702   1.253  24.875  0.00  0.00    -0.002 A 
ATOM     10  C   UNL     1      -2.216   0.594  24.780  0.00  0.00    +0.072 A 
ATOM     11  N   UNL     1      -2.696  -0.054  24.602  0.00  0.00    -0.321 N 
ATOM     19  C   UNL     1      -3.479   0.206  24.588  0.00  0.00    +0.060 A 
ATOM     20  C   UNL     1      -3.483   1.014  24.756  0.00  0.00    +0.011 A 
ATOM     21  C   UNL     1      -4.171   1.468  24.790  0.00  0.00    -0.005 A 
ATOM     22  C   UNL     1      -4.906   1.032  24.635  0.00  0.00    -0.003 A 
ATOM     23  C   UNL     1      -4.902   0.225  24.466  0.00  0.00    +0.001 A 
ATOM     24  C   UNL     1      -4.188  -0.188  24.443  0.00  0.00    +0.017 A 
ENDROOT
BRANCH   7  25
ATOM     25  C   UNL     1      -2.392   3.373  25.345  0.00  0.00    +0.257 C 
ATOM     26  O   UNL     1      -2.204   3.545  26.130  0.00  0.00    -0.272 OA
ATOM     27  N   UNL     1      -2.131   3.869  24.740  0.00  0.00    -0.206 NA
BRANCH  27  28
ATOM     28  C   UNL     1      -1.682   4.537  24.920  0.00  0.00    +0.095 C 
ATOM     29  C   UNL     1      -1.638   5.321  25.171  0.00  0.00    +0.023 C 
ATOM     30  C   UNL     1      -0.949   4.910  24.981  0.00  0.00    +0.023 C 
ENDBRANCH  27  28
ENDBRANCH   7  25
BRANCH   5   4
ATOM      4  C   UNL     1      -5.019   2.567  24.945  0.00  0.00    +0.022 C 
BRANCH   4   2
ATOM      1  C   UNL     1      -5.302   3.918  25.314  0.00  0.00    +0.000 C 
ATOM      2  C   UNL     1      -5.254   3.119  25.512  0.00  0.00    +0.002 C 
ATOM      3  C   UNL     1      -5.441   2.871  26.277  0.00  0.00    +0.000 C 
ENDBRANCH   4   2
ENDBRANCH   5   4
BRANCH  11  12
ATOM     12  C   UNL     1      -2.439  -0.825  24.464  0.00  0.00    +0.152 C 
BRANCH  12  13
ATOM     13  C   UNL     1      -1.666  -1.043  24.652  0.00  0.00    +0.082 A 
ATOM     14  N   UNL     1      -1.059  -0.920  24.107  0.00  0.00    -0.246 NA
ATOM     15  C   UNL     1      -0.285  -1.138  24.295  0.00  0.00    +0.099 A 
ATOM     16  C   UNL     1      -0.120  -1.479  25.028  0.00  0.00    +0.021 A 
ATOM     17  C   UNL     1      -0.728  -1.602  25.573  0.00  0.00    +0.003 A 
ATOM     18  C   UNL     1      -1.501  -1.384  25.385  0.00  0.00    +0.017 A 
ENDBRANCH  12  13
ENDBRANCH  11  12
TORSDOF 6
ENDMDL
MODEL 4
REMARK VINA RESULT:     -11.5      1.321      3.088
REMARK  Name = 
REMARK  6 active torsions:
REMARK  status: ('A' for Active; 'I' for Inactive)
REMARK    1  A    between atoms: C_2  and  C_4
REMARK    2  A    between atoms: C_4  and  C_5
REMARK    3  A    between atoms: C_7  and  C_25
REMARK    4  A    between atoms: N_11  and  C_12
REMARK    5  A    between atoms: C_12  and  C_13
REMARK    6  A    between atoms: N_27  and  C_28
REMARK                            x       y       z     vdW  Elec       q    Type
REMARK                         _______ _______ _______ _____ _____    ______ ____
ROOT
ATOM      5  C   UNL     1      -1.697   2.480  24.742  0.00  0.00    +0.095 C 
ATOM      6  N   UNL     1      -2.486   2.721  24.765  0.00  0.00    -0.207 NA
ATOM      7  C   UNL     1      -3.167   2.254  24.751  0.00  0.00    +0.155 C 
ATOM      8  C   UNL     1      -3.226   1.433  24.711  0.00  0.00    +0.055 C 
ATOM      9  C   UNL     1      -2.620   0.874  24.675  0.00  0.00    -0.002 A 
ATOM     10  C   UNL     1      -2.753   0.061  24.636  0.00  0.00    +0.072 A 
ATOM     11  N   UNL     1      -2.020  -0.317  24.606  0.00  0.00    -0.321 N 
ATOM     19  C   UNL     1      -1.433   0.263  24.627  0.00  0.00    +0.060 A 
ATOM     20  C   UNL     1      -1.805   1.000  24.669  0.00  0.00    +0.011 A 
ATOM     21  C   UNL     1      -1.394   1.715  24.699  0.00  0.00    -0.005 A 
ATOM     22  C   UNL     1      -0.529   1.642  24.683  0.00  0.00    -0.003 A 
ATOM     23  C   UNL     1      -0.157   0.907  24.641  0.00  0.00    +0.001 A 
ATOM     24  C   UNL     1      -0.610   0.217  24.613  0.00  0.00    +0.017 A 
ENDROOT
BRANCH   7  25
ATOM     25  C   UNL     1      -3.882   2.664  24.782  0.00  0.00    +0.257 C 
ATOM     26  O   UNL     1      -4.195   3.001  24.096  0.00  0.00    -0.272 OA
ATOM     27  N   UNL     1      -4.285   2.738  25.498  0.00  0.00    -0.206 NA
BRANCH  27  28
ATOM     28  C   UNL     1      -5.001   3.148  25.528  0.00  0.00    +0.095 C 
ATOM     29  C   UNL     1      -5.819   3.149  25.630  0.00  0.00    +0.023 C 
ATOM     30  C   UNL     1      -5.421   3.856  25.477  0.00  0.00    +0.023 C 
ENDBRANCH  27  28
ENDBRANCH   7  25
BRANCH   5   4
ATOM      4  C   UNL     1      -1.139   3.086  24.764  0.00  0.00    +0.022 C 
BRANCH   4   2
ATOM      1  C   UNL     1      -1.402   4.483  24.917  0.00  0.00    +0.000 C 
ATOM      2  C   UNL     1      -1.260   3.742  25.251  0.00  0.00    +0.002 C 
ATOM      3  C   UNL     1      -1.240   3.655  26.072  0.00  0.00    +0.000 C 
ENDBRANCH   4   2
ENDBRANCH   5   4
BRANCH  11  12
ATOM     12  C   UNL     1      -1.894  -1.131  24.564  0.00  0.00    +0.152 C 
BRANCH  12  13
ATOM     13  C   UNL     1      -2.533  -1.650  24.611  0.00  0.00    +0.082 A 
ATOM     14  N   UNL     1      -2.958  -1.843  23.931  0.00  0.00    -0.246 NA
ATOM     15  C   UNL     1      -3.597  -2.364  23.979  0.00  0.00    +0.099 A 
ATOM     16  C   UNL     1      -3.810  -2.690  24.706  0.00  0.00    +0.021 A 
ATOM     17  C   UNL     1      -3.384  -2.496  25.386  0.00  0.00    +0.003 A 
ATOM     18  C   UNL     1      -2.745  -1.977  25.338  0.00  0.00    +0.017 A 
ENDBRANCH  12  13
ENDBRANCH  11  12
TORSDOF 6
ENDMDL
MODEL 5
REMARK VINA RESULT:     -11.4      1.286      4.279
REMARK  Name = 
REMARK  6 active torsions:
REMARK  status: ('A' for Active; 'I' for Inactive)
REMARK    1  A    between atoms: C_2  and  C_4
REMARK    2  A    between atoms: C_4  and  C_5
REMARK    3  A    between atoms: C_7  and  C_25
REMARK    4  A    between atoms: N_11  and  C_12
REMARK    5  A    between atoms: C_12  and  C_13
REMARK    6  A    between atoms: N_27  and  C_28
REMARK                            x       y       z     vdW  Elec       q    Type
REMARK                         _______ _______ _______ _____ _____    ______ ____
ROOT
ATOM      5  C   UNL     1      -4.791   1.903  24.712  0.00  0.00    +0.095 C 
ATOM      6  N   UNL     1      -4.687   1.084  24.717  0.00  0.00    -0.207 NA
ATOM      7  C   UNL     1      -3.982   0.656  24.720  0.00  0.00    +0.155 C 
ATOM      8  C   UNL     1      -3.207   0.940  24.718  0.00  0.00    +0.055 C 
ATOM      9  C   UNL     1      -2.946   1.722  24.714  0.00  0.00    -0.002 A 
ATOM     10  C   UNL     1      -2.149   1.936  24.713  0.00  0.00    +0.072 A 
ATOM     11  N   UNL     1      -2.106   2.760  24.708  0.00  0.00    -0.321 N 
ATOM     19  C   UNL     1      -2.876   3.056  24.706  0.00  0.00    +0.060 A 
ATOM     20  C   UNL     1      -3.396   2.414  24.710  0.00  0.00    +0.011 A 
ATOM     21  C   UNL     1      -4.217   2.494  24.709  0.00  0.00    -0.005 A 
ATOM     22  C   UNL     1      -4.506   3.313  24.704  0.00  0.00    -0.003 A 
ATOM     23  C   UNL     1      -3.987   3.955  24.701  0.00  0.00    +0.001 A 
ATOM     24  C   UNL     1      -3.172   3.825  24.702  0.00  0.00    +0.017 A 
ENDROOT
BRANCH   7  25
ATOM     25  C   UNL     1      -4.062  -0.166  24.725  0.00  0.00    +0.257 C 
ATOM     26  O   UNL     1      -4.170  -0.565  25.439  0.00  0.00    -0.272 OA
ATOM     27  N   UNL     1      -4.035  -0.587  24.016  0.00  0.00    -0.206 NA
BRANCH  27  28
ATOM     28  C   UNL     1      -4.116  -1.408  24.022  0.00  0.00    +0.095 C 
ATOM     29  C   UNL     1      -4.543  -2.085  23.822  0.00  0.00    +0.023 C 
ATOM     30  C   UNL     1      -3.829  -2.153  24.231  0.00  0.00    +0.023 C 
ENDBRANCH  27  28
ENDBRANCH   7  25
BRANCH   5   4
ATOM      4  C   UNL     1      -5.574   2.163  24.711  0.00  0.00    +0.022 C 
BRANCH   4   2
ATOM      1  C   UNL     1      -6.127   1.861  25.993  0.00  0.00    +0.000 C 
ATOM      2  C   UNL     1      -6.138   1.776  25.173  0.00  0.00    +0.002 C 
ATOM      3  C   UNL     1      -6.713   1.305  24.814  0.00  0.00    +0.000 C 
ENDBRANCH   4   2
ENDBRANCH   5   4
BRANCH  11  12
ATOM     12  C   UNL     1      -1.415   3.209  24.706  0.00  0.00    +0.152 C 
BRANCH  12  13
ATOM     13  C   UNL     1      -0.728   2.913  25.053  0.00  0.00    +0.082 A 
ATOM     14  N   UNL     1      -0.183   2.494  24.597  0.00  0.00    -0.246 NA
ATOM     15  C   UNL     1       0.504   2.197  24.944  0.00  0.00    +0.099 A 
ATOM     16  C   UNL     1       0.646   2.320  25.747  0.00  0.00    +0.021 A 
ATOM     17  C   UNL     1       0.101   2.740  26.203  0.00  0.00    +0.003 A 
ATOM     18  C   UNL     1      -0.586   3.036  25.856  0.00  0.00    +0.017 A 
ENDBRANCH  12  13
ENDBRANCH  11  12
TORSDOF 6
ENDMDL
MODEL 6
REMARK VINA RESULT:     -10.8      1.784      4.704
REMARK  Name = 
REMARK  6 active torsions:
REMARK  status: ('A' for Active; 'I' for Inactive)
REMARK    1  A    between atoms: C_2  and  C_4
REMARK    2  A    between atoms: C_4  and  C_5
REMARK    3  A    between atoms: C_7  and  C_25
REMARK    4  A    between atoms: N_11  and  C_12
REMARK    5  A    between atoms: C_12  and  C_13
REMARK    6  A    between atoms: N_27  and  C_28
REMARK                            x       y       z     vdW  Elec       q    Type
REMARK                         _______ _______ _______ _____ _____    ______ ____
ROOT
ATOM      5  C   UNL     1      -1.345  -0.052  25.177  0.00  0.00    +0.095 C 
ATOM      6  N   UNL     1      -1.957  -0.596  25.074  0.00  0.00    -0.207 NA
ATOM      7  C   UNL     1      -2.756  -0.449  24.929  0.00  0.00    +0.155 C 
ATOM      8  C   UNL     1      -3.139   0.278  24.851  0.00  0.00    +0.055 C 
ATOM      9  C   UNL     1      -2.819   1.036  24.899  0.00  0.00    -0.002 A 
ATOM     10  C   UNL     1      -3.265   1.725  24.810  0.00  0.00    +0.072 A 
ATOM     11  N   UNL     1      -2.757   2.370  24.893  0.00  0.00    -0.321 N 
ATOM     19  C   UNL     1      -1.997   2.081  25.032  0.00  0.00    +0.060 A 
ATOM     20  C   UNL     1      -2.035   1.256  25.036  0.00  0.00    +0.011 A 
ATOM     21  C   UNL     1      -1.379   0.771  25.160  0.00  0.00    -0.005 A 
ATOM     22  C   UNL     1      -0.631   1.192  25.288  0.00  0.00    -0.003 A 
ATOM     23  C   UNL     1      -0.592   2.016  25.284  0.00  0.00    +0.001 A 
ATOM     24  C   UNL     1      -1.276   2.460  25.156  0.00  0.00    +0.017 A 
ENDROOT
BRANCH   7  25
ATOM     25  C   UNL     1      -3.235  -1.117  24.852  0.00  0.00    +0.257 C 
ATOM     26  O   UNL     1      -3.576  -1.459  25.522  0.00  0.00    -0.272 OA
ATOM     27  N   UNL     1      -3.372  -1.442  24.107  0.00  0.00    -0.206 NA
BRANCH  27  28
ATOM     28  C   UNL     1      -3.851  -2.110  24.031  0.00  0.00    +0.095 C 
ATOM     29  C   UNL     1      -3.973  -2.917  24.146  0.00  0.00    +0.023 C 
ATOM     30  C   UNL     1      -4.557  -2.459  23.785  0.00  0.00    +0.023 C 
ENDBRANCH  27  28
ENDBRANCH   7  25
BRANCH   5   4
ATOM      4  C   UNL     1      -0.599  -0.377  25.314  0.00  0.00    +0.022 C 
BRANCH   4   2
ATOM      1  C   UNL     1      -0.373  -1.788  25.353  0.00  0.00    +0.000 C 
ATOM      2  C   UNL     1      -0.377  -1.076  24.935  0.00  0.00    +0.002 C 
ATOM      3  C   UNL     1      -0.160  -1.063  24.139  0.00  0.00    +0.000 C 
ENDBRANCH   4   2
ENDBRANCH   5   4
BRANCH  11  12
ATOM     12  C   UNL     1      -2.971   3.165  24.844  0.00  0.00    +0.152 C 
BRANCH  12  13
ATOM     13  C   UNL     1      -3.722   3.406  25.085  0.00  0.00    +0.082 A 
ATOM     14  N   UNL     1      -3.867   3.569  25.881  0.00  0.00    -0.246 NA
ATOM     15  C   UNL     1      -4.619   3.810  26.122  0.00  0.00    +0.099 A 
ATOM     16  C   UNL     1      -5.224   3.889  25.567  0.00  0.00    +0.021 A 
ATOM     17  C   UNL     1      -5.078   3.727  24.771  0.00  0.00    +0.003 A 
ATOM     18  C   UNL     1      -4.327   3.485  24.530  0.00  0.00    +0.017 A 
ENDBRANCH  12  13
ENDBRANCH  11  12
TORSDOF 6
ENDMDL
