MODEL 1
REMARK VINA RESULT:      -8.9      0.000      0.000
REMARK  Name = 
REMARK  6 active torsions:
REMARK  status: ('A' for Active; 'I' for Inactive)
REMARK    1  A    between atoms: N_4  and  C_5
REMARK    2  A    between atoms: C_8  and  C_9
REMARK    3  A    between atoms: C_9  and  N_10
REMARK    4  A    between atoms: C_14  and  C_15
REMARK    5  A    between atoms: C_17  and  C_20
REMARK    6  A    between atoms: C_23  and  N_26
REMARK                            x       y       z     vdW  Elec       q    Type
REMARK                         _______ _______ _______ _____ _____    ______ ____
ROOT
ATOM     10  N   UNL     1      -3.643  -0.177  24.658  0.00  0.00    -0.263 NA
ATOM     11  C   UNL     1      -4.401  -0.438  24.463  0.00  0.00    +0.073 C 
ATOM     12  C   UNL     1      -4.336  -1.203  24.160  0.00  0.00    +0.019 C 
ATOM     13  C   UNL     1      -3.538  -1.413  24.168  0.00  0.00    +0.027 C 
ATOM     14  C   UNL     1      -3.110  -0.778  24.476  0.00  0.00    +0.138 C 
ENDROOT
BRANCH  14  15
ATOM     15  C   UNL     1      -2.293  -0.751  24.583  0.00  0.00    +0.251 A 
ATOM     16  N   UNL     1      -1.738  -0.513  24.020  0.00  0.00    -0.190 NA
ATOM     17  C   UNL     1      -0.989  -0.571  24.360  0.00  0.00    +0.205 A 
ATOM     18  N   UNL     1      -1.081  -0.844  25.133  0.00  0.00    -0.056 NA
ATOM     19  O   UNL     1      -1.885  -0.955  25.270  0.00  0.00    -0.336 OA
BRANCH  17  20
ATOM     20  C   UNL     1      -0.273  -0.388  23.992  0.00  0.00    +0.058 A 
ATOM     21  C   UNL     1      -0.105   0.392  23.784  0.00  0.00    +0.008 A 
ATOM     22  C   UNL     1       0.611   0.575  23.415  0.00  0.00    +0.038 A 
ATOM     23  C   UNL     1       1.157  -0.022  23.256  0.00  0.00    +0.149 A 
ATOM     24  N   UNL     1       0.989  -0.802  23.464  0.00  0.00    -0.226 NA
ATOM     25  C   UNL     1       0.273  -0.985  23.832  0.00  0.00    +0.104 A 
BRANCH  23  26
ATOM     26  N   UNL     1       1.873   0.161  22.887  0.00  0.00    -0.271 N 
ATOM     27  C   UNL     1       2.468   0.642  23.196  0.00  0.00    +0.104 A 
ATOM     28  C   UNL     1       3.082   0.673  22.645  0.00  0.00    +0.120 A 
ATOM     29  N   UNL     1       2.866   0.211  21.996  0.00  0.00    -0.222 NA
ATOM     30  C   UNL     1       2.118  -0.105  22.146  0.00  0.00    +0.184 A 
ENDBRANCH  23  26
ENDBRANCH  17  20
ENDBRANCH  14  15
BRANCH  10   9
ATOM      9  C   UNL     1      -3.452   0.559  24.980  0.00  0.00    +0.099 C 
BRANCH   9   8
ATOM      5  C   UNL     1      -5.146   2.363  25.033  0.00  0.00    +0.073 A 
ATOM      6  C   UNL     1      -4.529   2.394  24.487  0.00  0.00    +0.016 A 
ATOM      7  C   UNL     1      -3.964   1.793  24.469  0.00  0.00    -0.002 A 
ATOM      8  C   UNL     1      -4.017   1.161  24.998  0.00  0.00    -0.006 A 
ATOM     31  C   UNL     1      -4.635   1.130  25.543  0.00  0.00    -0.002 A 
ATOM     32  C   UNL     1      -5.200   1.732  25.561  0.00  0.00    +0.016 A 
BRANCH   5   4
ATOM      1  C   UNL     1      -6.121   4.264  25.481  0.00  0.00    +0.097 C 
ATOM      2  C   UNL     1      -5.556   3.663  25.464  0.00  0.00    +0.246 C 
ATOM      3  O   UNL     1      -4.839   3.759  25.858  0.00  0.00    -0.273 OA
ATOM      4  N   UNL     1      -5.710   2.964  25.051  0.00  0.00    -0.179 NA
ENDBRANCH   5   4
ENDBRANCH   9   8
ENDBRANCH  10   9
TORSDOF 6
ENDMDL
MODEL 2
REMARK VINA RESULT:      -8.4      2.992      4.584
REMARK  Name = 
REMARK  6 active torsions:
REMARK  status: ('A' for Active; 'I' for Inactive)
REMARK    1  A    between atoms: N_4  and  C_5
REMARK    2  A    between atoms: C_8  and  C_9
REMARK    3  A    between atoms: C_9  and  N_10
REMARK    4  A    between atoms: C_14  and  C_15
REMARK    5  A    between atoms: C_17  and  C_20
REMARK    6  A    between atoms: C_23  and  N_26
REMARK                            x       y       z     vdW  Elec       q    Type
REMARK                         _______ _______ _______ _____ _____    ______ ____
ROOT
ATOM     10  N   UNL     1      -4.636   3.091  25.531  0.00  0.00    -0.263 NA
ATOM     11  C   UNL     1      -4.919   3.836  25.745  0.00  0.00    +0.073 C 
ATOM     12  C   UNL     1      -5.743   3.803  25.747  0.00  0.00    +0.019 C 
ATOM     13  C   UNL     1      -5.969   3.039  25.534  0.00  0.00    +0.027 C 
ATOM     14  C   UNL     1      -5.284   2.599  25.401  0.00  0.00    +0.138 C 
ENDROOT
BRANCH  14  15
ATOM     15  C   UNL     1      -5.253   1.806  25.176  0.00  0.00    +0.251 A 
ATOM     16  N   UNL     1      -4.578   1.330  25.167  0.00  0.00    -0.190 NA
ATOM     17  C   UNL     1      -4.799   0.579  24.907  0.00  0.00    +0.205 A 
ATOM     18  N   UNL     1      -5.610   0.591  24.755  0.00  0.00    -0.056 NA
ATOM     19  O   UNL     1      -5.890   1.348  24.922  0.00  0.00    -0.336 OA
BRANCH  17  20
ATOM     20  C   UNL     1      -4.298  -0.069  24.815  0.00  0.00    +0.058 A 
ATOM     21  C   UNL     1      -4.013  -0.467  25.479  0.00  0.00    +0.008 A 
ATOM     22  C   UNL     1      -3.511  -1.116  25.386  0.00  0.00    +0.038 A 
ATOM     23  C   UNL     1      -3.294  -1.366  24.630  0.00  0.00    +0.149 A 
ATOM     24  N   UNL     1      -3.579  -0.968  23.966  0.00  0.00    -0.226 NA
ATOM     25  C   UNL     1      -4.081  -0.319  24.059  0.00  0.00    +0.104 A 
BRANCH  23  26
ATOM     26  N   UNL     1      -2.792  -2.015  24.538  0.00  0.00    -0.271 N 
ATOM     27  C   UNL     1      -1.968  -2.000  24.578  0.00  0.00    +0.104 A 
ATOM     28  C   UNL     1      -1.693  -2.767  24.454  0.00  0.00    +0.120 A 
ATOM     29  N   UNL     1      -2.347  -3.257  24.338  0.00  0.00    -0.222 NA
ATOM     30  C   UNL     1      -3.026  -2.791  24.389  0.00  0.00    +0.184 A 
ENDBRANCH  23  26
ENDBRANCH  17  20
ENDBRANCH  14  15
BRANCH  10   9
ATOM      9  C   UNL     1      -3.842   2.876  25.460  0.00  0.00    +0.099 C 
BRANCH   9   8
ATOM      5  C   UNL     1      -2.108   4.621  25.180  0.00  0.00    +0.073 A 
ATOM      6  C   UNL     1      -2.251   4.298  25.925  0.00  0.00    +0.016 A 
ATOM      7  C   UNL     1      -2.829   3.716  26.019  0.00  0.00    -0.002 A 
ATOM      8  C   UNL     1      -3.264   3.458  25.367  0.00  0.00    -0.006 A 
ATOM     31  C   UNL     1      -3.121   3.781  24.621  0.00  0.00    -0.002 A 
ATOM     32  C   UNL     1      -2.543   4.363  24.528  0.00  0.00    +0.016 A 
BRANCH   5   4
ATOM      1  C   UNL     1      -0.199   5.577  24.728  0.00  0.00    +0.097 C 
ATOM      2  C   UNL     1      -0.776   4.995  24.821  0.00  0.00    +0.246 C 
ATOM      3  O   UNL     1      -0.601   4.208  24.650  0.00  0.00    -0.273 OA
ATOM      4  N   UNL     1      -1.531   5.202  25.087  0.00  0.00    -0.179 NA
ENDBRANCH   5   4
ENDBRANCH   9   8
ENDBRANCH  10   9
TORSDOF 6
ENDMDL
MODEL 3
REMARK VINA RESULT:      -8.4      1.330      6.286
REMARK  Name = 
REMARK  6 active torsions:
REMARK  status: ('A' for Active; 'I' for Inactive)
REMARK    1  A    between atoms: N_4  and  C_5
REMARK    2  A    between atoms: C_8  and  C_9
REMARK    3  A    between atoms: C_9  and  N_10
REMARK    4  A    between atoms: C_14  and  C_15
REMARK    5  A    between atoms: C_17  and  C_20
REMARK    6  A    between atoms: C_23  and  N_26
REMARK                            x       y       z     vdW  Elec       q    Type
REMARK                         _______ _______ _______ _____ _____    ______ ____
ROOT
ATOM     10  N   UNL     1      -0.623  -0.692  24.326  0.00  0.00    -0.263 NA
ATOM     11  C   UNL     1      -0.019  -1.165  24.629  0.00  0.00    +0.073 C 
ATOM     12  C   UNL     1      -0.349  -1.666  25.196  0.00  0.00    +0.019 C 
ATOM     13  C   UNL     1      -1.156  -1.503  25.242  0.00  0.00    +0.027 C 
ATOM     14  C   UNL     1      -1.326  -0.900  24.704  0.00  0.00    +0.138 C 
ENDROOT
BRANCH  14  15
ATOM     15  C   UNL     1      -2.067  -0.565  24.568  0.00  0.00    +0.251 A 
ATOM     16  N   UNL     1      -2.353   0.132  24.904  0.00  0.00    -0.190 NA
ATOM     17  C   UNL     1      -3.115   0.260  24.616  0.00  0.00    +0.205 A 
ATOM     18  N   UNL     1      -3.300  -0.358  24.103  0.00  0.00    -0.056 NA
ATOM     19  O   UNL     1      -2.653  -0.867  24.073  0.00  0.00    -0.336 OA
BRANCH  17  20
ATOM     20  C   UNL     1      -3.606   0.895  24.809  0.00  0.00    +0.058 A 
ATOM     21  C   UNL     1      -4.391   0.758  25.024  0.00  0.00    +0.008 A 
ATOM     22  C   UNL     1      -4.882   1.393  25.216  0.00  0.00    +0.038 A 
ATOM     23  C   UNL     1      -4.588   2.163  25.194  0.00  0.00    +0.149 A 
ATOM     24  N   UNL     1      -3.803   2.300  24.979  0.00  0.00    -0.226 NA
ATOM     25  C   UNL     1      -3.312   1.665  24.786  0.00  0.00    +0.104 A 
BRANCH  23  26
ATOM     26  N   UNL     1      -5.079   2.798  25.386  0.00  0.00    -0.271 N 
ATOM     27  C   UNL     1      -4.885   3.598  25.323  0.00  0.00    +0.104 A 
ATOM     28  C   UNL     1      -5.536   4.038  25.573  0.00  0.00    +0.120 A 
ATOM     29  N   UNL     1      -6.133   3.511  25.792  0.00  0.00    -0.222 NA
ATOM     30  C   UNL     1      -5.850   2.744  25.676  0.00  0.00    +0.184 A 
ENDBRANCH  23  26
ENDBRANCH  17  20
ENDBRANCH  14  15
BRANCH  10   9
ATOM      9  C   UNL     1      -0.539  -0.112  23.745  0.00  0.00    +0.099 C 
BRANCH   9   8
ATOM      5  C   UNL     1       1.720   0.586  23.012  0.00  0.00    +0.073 A 
ATOM      6  C   UNL     1       1.348   0.980  23.634  0.00  0.00    +0.016 A 
ATOM      7  C   UNL     1       0.595   0.748  23.879  0.00  0.00    -0.002 A 
ATOM      8  C   UNL     1       0.215   0.120  23.500  0.00  0.00    -0.006 A 
ATOM     31  C   UNL     1       0.587  -0.273  22.878  0.00  0.00    -0.002 A 
ATOM     32  C   UNL     1       1.340  -0.040  22.634  0.00  0.00    +0.016 A 
BRANCH   5   4
ATOM      1  C   UNL     1       3.863   0.534  22.600  0.00  0.00    +0.097 C 
ATOM      2  C   UNL     1       3.110   0.300  22.844  0.00  0.00    +0.246 C 
ATOM      3  O   UNL     1       2.994  -0.451  23.165  0.00  0.00    -0.273 OA
ATOM      4  N   UNL     1       2.472   0.819  22.768  0.00  0.00    -0.179 NA
ENDBRANCH   5   4
ENDBRANCH   9   8
ENDBRANCH  10   9
TORSDOF 6
ENDMDL
MODEL 4
REMARK VINA RESULT:      -8.0      2.484      3.793
REMARK  Name = 
REMARK  6 active torsions:
REMARK  status: ('A' for Active; 'I' for Inactive)
REMARK    1  A    between atoms: N_4  and  C_5
REMARK    2  A    between atoms: C_8  and  C_9
REMARK    3  A    between atoms: C_9  and  N_10
REMARK    4  A    between atoms: C_14  and  C_15
REMARK    5  A    between atoms: C_17  and  C_20
REMARK    6  A    between atoms: C_23  and  N_26
REMARK                            x       y       z     vdW  Elec       q    Type
REMARK                         _______ _______ _______ _____ _____    ______ ____
ROOT
ATOM     10  N   UNL     1      -1.399   4.091  25.427  0.00  0.00    -0.263 NA
ATOM     11  C   UNL     1      -1.478   4.878  25.194  0.00  0.00    +0.073 C 
ATOM     12  C   UNL     1      -0.842   5.062  24.701  0.00  0.00    +0.019 C 
ATOM     13  C   UNL     1      -0.371   4.388  24.630  0.00  0.00    +0.027 C 
ATOM     14  C   UNL     1      -0.716   3.788  25.079  0.00  0.00    +0.138 C 
ENDROOT
BRANCH  14  15
ATOM     15  C   UNL     1      -0.428   3.020  25.165  0.00  0.00    +0.251 A 
ATOM     16  N   UNL     1      -0.838   2.326  24.986  0.00  0.00    -0.190 NA
ATOM     17  C   UNL     1      -0.343   1.688  25.155  0.00  0.00    +0.205 A 
ATOM     18  N   UNL     1       0.371   1.987  25.437  0.00  0.00    -0.056 NA
ATOM     19  O   UNL     1       0.319   2.809  25.444  0.00  0.00    -0.336 OA
BRANCH  17  20
ATOM     20  C   UNL     1      -0.530   0.890  25.057  0.00  0.00    +0.058 A 
ATOM     21  C   UNL     1      -0.892   0.474  25.671  0.00  0.00    +0.008 A 
ATOM     22  C   UNL     1      -1.079  -0.324  25.574  0.00  0.00    +0.038 A 
ATOM     23  C   UNL     1      -0.905  -0.705  24.863  0.00  0.00    +0.149 A 
ATOM     24  N   UNL     1      -0.543  -0.289  24.250  0.00  0.00    -0.226 NA
ATOM     25  C   UNL     1      -0.356   0.509  24.347  0.00  0.00    +0.104 A 
BRANCH  23  26
ATOM     26  N   UNL     1      -1.092  -1.503  24.766  0.00  0.00    -0.271 N 
ATOM     27  C   UNL     1      -1.747  -1.802  24.361  0.00  0.00    +0.104 A 
ATOM     28  C   UNL     1      -1.717  -2.625  24.401  0.00  0.00    +0.120 A 
ATOM     29  N   UNL     1      -1.044  -2.836  24.831  0.00  0.00    -0.222 NA
ATOM     30  C   UNL     1      -0.658  -2.142  25.056  0.00  0.00    +0.184 A 
ENDBRANCH  23  26
ENDBRANCH  17  20
ENDBRANCH  14  15
BRANCH  10   9
ATOM      9  C   UNL     1      -1.915   3.679  25.922  0.00  0.00    +0.099 C 
BRANCH   9   8
ATOM      5  C   UNL     1      -4.361   3.845  25.578  0.00  0.00    +0.073 A 
ATOM      6  C   UNL     1      -3.890   3.464  25.017  0.00  0.00    +0.016 A 
ATOM      7  C   UNL     1      -3.075   3.409  25.131  0.00  0.00    -0.002 A 
ATOM      8  C   UNL     1      -2.730   3.734  25.807  0.00  0.00    -0.006 A 
ATOM     31  C   UNL     1      -3.201   4.115  26.368  0.00  0.00    -0.002 A 
ATOM     32  C   UNL     1      -4.016   4.170  26.252  0.00  0.00    +0.016 A 
BRANCH   5   4
ATOM      1  C   UNL     1      -6.479   3.320  25.543  0.00  0.00    +0.097 C 
ATOM      2  C   UNL     1      -5.664   3.264  25.658  0.00  0.00    +0.246 C 
ATOM      3  O   UNL     1      -5.337   2.573  25.968  0.00  0.00    -0.273 OA
ATOM      4  N   UNL     1      -5.175   3.900  25.463  0.00  0.00    -0.179 NA
ENDBRANCH   5   4
ENDBRANCH   9   8
ENDBRANCH  10   9
TORSDOF 6
ENDMDL
MODEL 5
REMARK VINA RESULT:      -8.0      2.318      3.180
REMARK  Name = 
REMARK  6 active torsions:
REMARK  status: ('A' for Active; 'I' for Inactive)
REMARK    1  A    between atoms: N_4  and  C_5
REMARK    2  A    between atoms: C_8  and  C_9
REMARK    3  A    between atoms: C_9  and  N_10
REMARK    4  A    between atoms: C_14  and  C_15
REMARK    5  A    between atoms: C_17  and  C_20
REMARK    6  A    between atoms: C_23  and  N_26
REMARK                            x       y       z     vdW  Elec       q    Type
REMARK                         _______ _______ _______ _____ _____    ______ ____
ROOT
ATOM     10  N   UNL     1      -2.140   3.985  25.553  0.00  0.00    -0.263 NA
ATOM     11  C   UNL     1      -2.483   4.732  25.491  0.00  0.00    +0.073 C 
ATOM     12  C   UNL     1      -1.903   5.257  25.228  0.00  0.00    +0.019 C 
ATOM     13  C   UNL     1      -1.203   4.833  25.127  0.00  0.00    +0.027 C 
ATOM     14  C   UNL     1      -1.350   4.046  25.328  0.00  0.00    +0.138 C 
ENDROOT
BRANCH  14  15
ATOM     15  C   UNL     1      -0.802   3.430  25.308  0.00  0.00    +0.251 A 
ATOM     16  N   UNL     1      -0.564   3.015  24.636  0.00  0.00    -0.190 NA
ATOM     17  C   UNL     1      -0.011   2.449  24.868  0.00  0.00    +0.205 A 
ATOM     18  N   UNL     1       0.093   2.514  25.684  0.00  0.00    -0.056 NA
ATOM     19  O   UNL     1      -0.395   3.120  25.955  0.00  0.00    -0.336 OA
BRANCH  17  20
ATOM     20  C   UNL     1       0.372   1.911  24.372  0.00  0.00    +0.058 A 
ATOM     21  C   UNL     1      -0.009   1.215  24.148  0.00  0.00    +0.008 A 
ATOM     22  C   UNL     1       0.373   0.677  23.651  0.00  0.00    +0.038 A 
ATOM     23  C   UNL     1       1.136   0.837  23.380  0.00  0.00    +0.149 A 
ATOM     24  N   UNL     1       1.516   1.534  23.604  0.00  0.00    -0.226 NA
ATOM     25  C   UNL     1       1.134   2.071  24.101  0.00  0.00    +0.104 A 
BRANCH  23  26
ATOM     26  N   UNL     1       1.518   0.300  22.884  0.00  0.00    -0.271 N 
ATOM     27  C   UNL     1       2.334   0.193  22.821  0.00  0.00    +0.104 A 
ATOM     28  C   UNL     1       2.472  -0.397  22.262  0.00  0.00    +0.120 A 
ATOM     29  N   UNL     1       1.741  -0.656  21.979  0.00  0.00    -0.222 NA
ATOM     30  C   UNL     1       1.151  -0.225  22.364  0.00  0.00    +0.184 A 
ENDBRANCH  23  26
ENDBRANCH  17  20
ENDBRANCH  14  15
BRANCH  10   9
ATOM      9  C   UNL     1      -2.522   3.295  25.797  0.00  0.00    +0.099 C 
BRANCH   9   8
ATOM      5  C   UNL     1      -4.860   2.865  25.107  0.00  0.00    +0.073 A 
ATOM      6  C   UNL     1      -4.705   3.293  25.795  0.00  0.00    +0.016 A 
ATOM      7  C   UNL     1      -3.927   3.436  26.026  0.00  0.00    -0.002 A 
ATOM      8  C   UNL     1      -3.302   3.152  25.567  0.00  0.00    -0.006 A 
ATOM     31  C   UNL     1      -3.457   2.724  24.879  0.00  0.00    -0.002 A 
ATOM     32  C   UNL     1      -4.236   2.581  24.649  0.00  0.00    +0.016 A 
BRANCH   5   4
ATOM      1  C   UNL     1      -6.770   1.849  24.812  0.00  0.00    +0.097 C 
ATOM      2  C   UNL     1      -5.990   1.992  25.042  0.00  0.00    +0.246 C 
ATOM      3  O   UNL     1      -5.562   1.408  25.435  0.00  0.00    -0.273 OA
ATOM      4  N   UNL     1      -5.639   2.721  24.877  0.00  0.00    -0.179 NA
ENDBRANCH   5   4
ENDBRANCH   9   8
ENDBRANCH  10   9
TORSDOF 6
ENDMDL
MODEL 6
REMARK VINA RESULT:      -7.3      1.937      5.836
REMARK  Name = 
REMARK  6 active torsions:
REMARK  status: ('A' for Active; 'I' for Inactive)
REMARK    1  A    between atoms: N_4  and  C_5
REMARK    2  A    between atoms: C_8  and  C_9
REMARK    3  A    between atoms: C_9  and  N_10
REMARK    4  A    between atoms: C_14  and  C_15
REMARK    5  A    between atoms: C_17  and  C_20
REMARK    6  A    between atoms: C_23  and  N_26
REMARK                            x       y       z     vdW  Elec       q    Type
REMARK                         _______ _______ _______ _____ _____    ______ ____
ROOT
ATOM     10  N   UNL     1      -0.350   0.415  24.506  0.00  0.00    -0.263 NA
ATOM     11  C   UNL     1       0.176   0.015  24.012  0.00  0.00    +0.073 C 
ATOM     12  C   UNL     1       0.546   0.573  23.530  0.00  0.00    +0.019 C 
ATOM     13  C   UNL     1       0.248   1.317  23.727  0.00  0.00    +0.027 C 
ATOM     14  C   UNL     1      -0.306   1.218  24.330  0.00  0.00    +0.138 C 
ENDROOT
BRANCH  14  15
ATOM     15  C   UNL     1      -0.739   1.819  24.694  0.00  0.00    +0.251 A 
ATOM     16  N   UNL     1      -1.554   1.934  24.633  0.00  0.00    -0.190 NA
ATOM     17  C   UNL     1      -1.752   2.596  25.083  0.00  0.00    +0.205 A 
ATOM     18  N   UNL     1      -1.060   2.890  25.422  0.00  0.00    -0.056 NA
ATOM     19  O   UNL     1      -0.435   2.410  25.182  0.00  0.00    -0.336 OA
BRANCH  17  20
ATOM     20  C   UNL     1      -2.510   2.909  25.178  0.00  0.00    +0.058 A 
ATOM     21  C   UNL     1      -3.094   2.752  24.617  0.00  0.00    +0.008 A 
ATOM     22  C   UNL     1      -3.851   3.065  24.712  0.00  0.00    +0.038 A 
ATOM     23  C   UNL     1      -4.025   3.535  25.367  0.00  0.00    +0.149 A 
ATOM     24  N   UNL     1      -3.441   3.692  25.928  0.00  0.00    -0.226 NA
ATOM     25  C   UNL     1      -2.683   3.379  25.834  0.00  0.00    +0.104 A 
BRANCH  23  26
ATOM     26  N   UNL     1      -4.783   3.848  25.462  0.00  0.00    -0.271 N 
ATOM     27  C   UNL     1      -5.009   4.625  25.304  0.00  0.00    +0.104 A 
ATOM     28  C   UNL     1      -5.813   4.696  25.475  0.00  0.00    +0.120 A 
ATOM     29  N   UNL     1      -6.083   3.962  25.739  0.00  0.00    -0.222 NA
ATOM     30  C   UNL     1      -5.446   3.438  25.731  0.00  0.00    +0.184 A 
ENDBRANCH  23  26
ENDBRANCH  17  20
ENDBRANCH  14  15
BRANCH  10   9
ATOM      9  C   UNL     1      -0.836   0.069  25.077  0.00  0.00    +0.099 C 
BRANCH   9   8
ATOM      5  C   UNL     1      -2.058  -2.021  24.562  0.00  0.00    +0.073 A 
ATOM      6  C   UNL     1      -1.340  -2.052  24.967  0.00  0.00    +0.016 A 
ATOM      7  C   UNL     1      -0.933  -1.356  25.139  0.00  0.00    -0.002 A 
ATOM      8  C   UNL     1      -1.244  -0.628  24.905  0.00  0.00    -0.006 A 
ATOM     31  C   UNL     1      -1.962  -0.597  24.499  0.00  0.00    -0.002 A 
ATOM     32  C   UNL     1      -2.368  -1.294  24.328  0.00  0.00    +0.016 A 
BRANCH   5   4
ATOM      1  C   UNL     1      -3.616  -3.550  24.550  0.00  0.00    +0.097 C 
ATOM      2  C   UNL     1      -3.210  -2.853  24.721  0.00  0.00    +0.246 C 
ATOM      3  O   UNL     1      -3.546  -2.292  25.223  0.00  0.00    -0.273 OA
ATOM      4  N   UNL     1      -2.465  -2.718  24.390  0.00  0.00    -0.179 NA
ENDBRANCH   5   4
ENDBRANCH   9   8
ENDBRANCH  10   9
TORSDOF 6
ENDMDL
MODEL 7
REMARK VINA RESULT:      -7.2      1.597      3.250
REMARK  Name = 
REMARK  6 active torsions:
REMARK  status: ('A' for Active; 'I' for Inactive)
REMARK    1  A    between atoms: N_4  and  C_5
REMARK    2  A    between atoms: C_8  and  C_9
REMARK    3  A    between atoms: C_9  and  N_10
REMARK    4  A    between atoms: C_14  and  C_15
REMARK    5  A    between atoms: C_17  and  C_20
REMARK    6  A    between atoms: C_23  and  N_26
REMARK                            x       y       z     vdW  Elec       q    Type
REMARK                         _______ _______ _______ _____ _____    ______ ____
ROOT
ATOM     10  N   UNL     1      -3.313   1.621  24.808  0.00  0.00    -0.263 NA
ATOM     11  C   UNL     1      -4.057   1.911  24.601  0.00  0.00    +0.073 C 
ATOM     12  C   UNL     1      -3.950   2.639  24.226  0.00  0.00    +0.019 C 
ATOM     13  C   UNL     1      -3.141   2.798  24.203  0.00  0.00    +0.027 C 
ATOM     14  C   UNL     1      -2.747   2.168  24.563  0.00  0.00    +0.138 C 
ENDROOT
BRANCH  14  15
ATOM     15  C   UNL     1      -1.932   2.098  24.661  0.00  0.00    +0.251 A 
ATOM     16  N   UNL     1      -1.407   1.749  24.127  0.00  0.00    -0.190 NA
ATOM     17  C   UNL     1      -0.648   1.801  24.445  0.00  0.00    +0.205 A 
ATOM     18  N   UNL     1      -0.703   2.181  25.175  0.00  0.00    -0.056 NA
ATOM     19  O   UNL     1      -1.495   2.365  25.308  0.00  0.00    -0.336 OA
BRANCH  17  20
ATOM     20  C   UNL     1       0.044   1.521  24.095  0.00  0.00    +0.058 A 
ATOM     21  C   UNL     1       0.063   0.765  23.766  0.00  0.00    +0.008 A 
ATOM     22  C   UNL     1       0.756   0.484  23.415  0.00  0.00    +0.038 A 
ATOM     23  C   UNL     1       1.429   0.960  23.394  0.00  0.00    +0.149 A 
ATOM     24  N   UNL     1       1.411   1.716  23.724  0.00  0.00    -0.226 NA
ATOM     25  C   UNL     1       0.718   1.997  24.074  0.00  0.00    +0.104 A 
BRANCH  23  26
ATOM     26  N   UNL     1       2.122   0.680  23.044  0.00  0.00    -0.271 N 
ATOM     27  C   UNL     1       2.881   0.984  23.159  0.00  0.00    +0.104 A 
ATOM     28  C   UNL     1       3.405   0.539  22.703  0.00  0.00    +0.120 A 
ATOM     29  N   UNL     1       2.970  -0.040  22.306  0.00  0.00    -0.222 NA
ATOM     30  C   UNL     1       2.177   0.048  22.517  0.00  0.00    +0.184 A 
ENDBRANCH  23  26
ENDBRANCH  17  20
ENDBRANCH  14  15
BRANCH  10   9
ATOM      9  C   UNL     1      -3.162   0.908  25.195  0.00  0.00    +0.099 C 
BRANCH   9   8
ATOM      5  C   UNL     1      -4.163  -1.193  24.350  0.00  0.00    +0.073 A 
ATOM      6  C   UNL     1      -4.021  -1.099  25.158  0.00  0.00    +0.016 A 
ATOM      7  C   UNL     1      -3.688  -0.399  25.439  0.00  0.00    -0.002 A 
ATOM      8  C   UNL     1      -3.496   0.207  24.913  0.00  0.00    -0.006 A 
ATOM     31  C   UNL     1      -3.638   0.113  24.106  0.00  0.00    -0.002 A 
ATOM     32  C   UNL     1      -3.971  -0.588  23.825  0.00  0.00    +0.016 A 
BRANCH   5   4
ATOM      1  C   UNL     1      -4.362  -3.270  23.707  0.00  0.00    +0.097 C 
ATOM      2  C   UNL     1      -4.029  -2.569  23.988  0.00  0.00    +0.246 C 
ATOM      3  O   UNL     1      -3.229  -2.544  24.188  0.00  0.00    -0.273 OA
ATOM      4  N   UNL     1      -4.496  -1.893  24.069  0.00  0.00    -0.179 NA
ENDBRANCH   5   4
ENDBRANCH   9   8
ENDBRANCH  10   9
TORSDOF 6
ENDMDL
