MODEL 1
REMARK VINA RESULT:     -10.0      0.000      0.000
REMARK  Name = 
REMARK  9 active torsions:
REMARK  status: ('A' for Active; 'I' for Inactive)
REMARK    1  A    between atoms: O_2  and  C_3
REMARK    2  A    between atoms: C_3  and  C_4
REMARK    3  A    between atoms: C_4  and  N_5
REMARK    4  A    between atoms: N_5  and  C_6
REMARK    5  A    between atoms: C_7  and  C_12
REMARK    6  A    between atoms: C_15  and  C_17
REMARK    7  A    between atoms: N_21  and  C_22
REMARK    8  A    between atoms: C_22  and  C_23
REMARK    9  A    between atoms: C_26  and  C_27
REMARK                            x       y       z     vdW  Elec       q    Type
REMARK                         _______ _______ _______ _____ _____    ______ ____
ROOT
ATOM     12  C   UNL     1      -2.860   3.292  24.553  0.00  0.00    +0.206 A 
ATOM     13  N   UNL     1      -3.215   3.274  23.809  0.00  0.00    -0.056 NA
ATOM     14  O   UNL     1      -3.874   2.779  23.853  0.00  0.00    -0.336 OA
ATOM     15  C   UNL     1      -3.926   2.492  24.625  0.00  0.00    +0.251 A 
ATOM     16  N   UNL     1      -3.299   2.809  25.058  0.00  0.00    -0.190 NA
ENDROOT
BRANCH  12   7
ATOM      6  C   UNL     1      -1.439   3.373  24.676  0.00  0.00    +0.151 A 
ATOM      7  C   UNL     1      -2.184   3.718  24.757  0.00  0.00    +0.072 A 
ATOM      8  C   UNL     1      -2.253   4.489  25.043  0.00  0.00    +0.008 A 
ATOM      9  C   UNL     1      -1.576   4.916  25.247  0.00  0.00    +0.021 A 
ATOM     10  C   UNL     1      -0.831   4.570  25.166  0.00  0.00    +0.100 A 
ATOM     11  N   UNL     1      -0.762   3.800  24.881  0.00  0.00    -0.228 NA
BRANCH   6   5
ATOM      5  N   UNL     1      -1.370   2.602  24.391  0.00  0.00    -0.218 NA
BRANCH   5   4
ATOM      4  C   UNL     1      -0.648   2.207  24.442  0.00  0.00    +0.146 C 
BRANCH   4   3
ATOM      3  C   UNL     1      -0.530   1.507  24.019  0.00  0.00    +0.166 C 
BRANCH   3   2
ATOM      1  C   UNL     1      -0.180   0.122  23.991  0.00  0.00    +0.174 C 
ATOM      2  O   UNL     1      -0.301   0.820  24.415  0.00  0.00    -0.349 OA
ENDBRANCH   3   2
ENDBRANCH   4   3
ENDBRANCH   5   4
ENDBRANCH   6   5
ENDBRANCH  12   7
BRANCH  15  17
ATOM     17  C   UNL     1      -4.505   1.978  24.913  0.00  0.00    +0.138 C 
ATOM     18  C   UNL     1      -5.147   2.188  25.385  0.00  0.00    +0.027 C 
ATOM     19  C   UNL     1      -5.581   1.504  25.543  0.00  0.00    +0.019 C 
ATOM     20  C   UNL     1      -5.205   0.872  25.168  0.00  0.00    +0.073 C 
ATOM     21  N   UNL     1      -4.540   1.165  24.779  0.00  0.00    -0.260 NA
BRANCH  21  22
ATOM     22  C   UNL     1      -4.004   0.723  24.334  0.00  0.00    +0.138 C 
BRANCH  22  23
ATOM     23  C   UNL     1      -3.947  -0.092  24.448  0.00  0.00    +0.139 A 
ATOM     24  C   UNL     1      -4.323  -0.673  23.997  0.00  0.00    +0.037 A 
ATOM     25  C   UNL     1      -4.112  -1.408  24.303  0.00  0.00    +0.038 A 
ATOM     26  C   UNL     1      -3.606  -1.284  24.943  0.00  0.00    +0.156 A 
ATOM     29  O   UNL     1      -3.504  -0.470  25.032  0.00  0.00    -0.458 OA
BRANCH  26  27
ATOM     27  C   UNL     1      -3.263  -1.869  25.412  0.00  0.00    +0.246 C 
ATOM     28  O   UNL     1      -3.547  -2.644  25.378  0.00  0.00    -0.212 OA
ENDBRANCH  26  27
ENDBRANCH  22  23
ENDBRANCH  21  22
ENDBRANCH  15  17
TORSDOF 9
ENDMDL
MODEL 2
REMARK VINA RESULT:      -9.7      1.540      4.429
REMARK  Name = 
REMARK  9 active torsions:
REMARK  status: ('A' for Active; 'I' for Inactive)
REMARK    1  A    between atoms: O_2  and  C_3
REMARK    2  A    between atoms: C_3  and  C_4
REMARK    3  A    between atoms: C_4  and  N_5
REMARK    4  A    between atoms: N_5  and  C_6
REMARK    5  A    between atoms: C_7  and  C_12
REMARK    6  A    between atoms: C_15  and  C_17
REMARK    7  A    between atoms: N_21  and  C_22
REMARK    8  A    between atoms: C_22  and  C_23
REMARK    9  A    between atoms: C_26  and  C_27
REMARK                            x       y       z     vdW  Elec       q    Type
REMARK                         _______ _______ _______ _____ _____    ______ ____
ROOT
ATOM     12  C   UNL     1      -3.651  -0.203  24.220  0.00  0.00    +0.206 A 
ATOM     13  N   UNL     1      -3.592   0.208  23.508  0.00  0.00    -0.056 NA
ATOM     14  O   UNL     1      -3.777   0.999  23.655  0.00  0.00    -0.336 OA
ATOM     15  C   UNL     1      -3.951   1.076  24.458  0.00  0.00    +0.251 A 
ATOM     16  N   UNL     1      -3.872   0.332  24.808  0.00  0.00    -0.190 NA
ENDROOT
BRANCH  12   7
ATOM      6  C   UNL     1      -2.751  -1.279  24.495  0.00  0.00    +0.151 A 
ATOM      7  C   UNL     1      -3.512  -1.009  24.327  0.00  0.00    +0.072 A 
ATOM      8  C   UNL     1      -4.135  -1.547  24.266  0.00  0.00    +0.008 A 
ATOM      9  C   UNL     1      -3.997  -2.353  24.373  0.00  0.00    +0.021 A 
ATOM     10  C   UNL     1      -3.235  -2.622  24.541  0.00  0.00    +0.100 A 
ATOM     11  N   UNL     1      -2.612  -2.085  24.602  0.00  0.00    -0.228 NA
BRANCH   6   5
ATOM      5  N   UNL     1      -2.127  -0.741  24.556  0.00  0.00    -0.218 NA
BRANCH   5   4
ATOM      4  C   UNL     1      -1.348  -1.012  24.561  0.00  0.00    +0.146 C 
BRANCH   4   3
ATOM      3  C   UNL     1      -0.727  -0.479  24.667  0.00  0.00    +0.166 C 
BRANCH   3   2
ATOM      1  C   UNL     1       0.228   0.230  23.875  0.00  0.00    +0.174 C 
ATOM      2  O   UNL     1      -0.087  -0.483  24.146  0.00  0.00    -0.349 OA
ENDBRANCH   3   2
ENDBRANCH   4   3
ENDBRANCH   5   4
ENDBRANCH   6   5
ENDBRANCH  12   7
BRANCH  15  17
ATOM     17  C   UNL     1      -4.165   1.773  24.843  0.00  0.00    +0.138 C 
ATOM     18  C   UNL     1      -4.902   1.937  25.175  0.00  0.00    +0.027 C 
ATOM     19  C   UNL     1      -4.872   2.694  25.501  0.00  0.00    +0.019 C 
ATOM     20  C   UNL     1      -4.116   2.998  25.371  0.00  0.00    +0.073 C 
ATOM     21  N   UNL     1      -3.679   2.429  24.964  0.00  0.00    -0.260 NA
BRANCH  21  22
ATOM     22  C   UNL     1      -2.894   2.502  24.721  0.00  0.00    +0.138 C 
BRANCH  22  23
ATOM     23  C   UNL     1      -2.423   3.106  25.026  0.00  0.00    +0.139 A 
ATOM     24  C   UNL     1      -1.929   3.051  25.685  0.00  0.00    +0.037 A 
ATOM     25  C   UNL     1      -1.564   3.782  25.791  0.00  0.00    +0.038 A 
ATOM     26  C   UNL     1      -1.830   4.290  25.199  0.00  0.00    +0.156 A 
ATOM     29  O   UNL     1      -2.361   3.872  24.725  0.00  0.00    -0.458 OA
BRANCH  26  27
ATOM     27  C   UNL     1      -1.606   5.077  25.096  0.00  0.00    +0.246 C 
ATOM     28  O   UNL     1      -0.810   5.269  24.991  0.00  0.00    -0.212 OA
ENDBRANCH  26  27
ENDBRANCH  22  23
ENDBRANCH  21  22
ENDBRANCH  15  17
TORSDOF 9
ENDMDL
MODEL 3
REMARK VINA RESULT:      -9.7      1.211      2.958
REMARK  Name = 
REMARK  9 active torsions:
REMARK  status: ('A' for Active; 'I' for Inactive)
REMARK    1  A    between atoms: O_2  and  C_3
REMARK    2  A    between atoms: C_3  and  C_4
REMARK    3  A    between atoms: C_4  and  N_5
REMARK    4  A    between atoms: N_5  and  C_6
REMARK    5  A    between atoms: C_7  and  C_12
REMARK    6  A    between atoms: C_15  and  C_17
REMARK    7  A    between atoms: N_21  and  C_22
REMARK    8  A    between atoms: C_22  and  C_23
REMARK    9  A    between atoms: C_26  and  C_27
REMARK                            x       y       z     vdW  Elec       q    Type
REMARK                         _______ _______ _______ _____ _____    ______ ____
ROOT
ATOM     12  C   UNL     1      -1.520   2.635  24.393  0.00  0.00    +0.206 A 
ATOM     13  N   UNL     1      -1.780   2.414  23.643  0.00  0.00    -0.056 NA
ATOM     14  O   UNL     1      -1.652   1.603  23.558  0.00  0.00    -0.336 OA
ATOM     15  C   UNL     1      -1.312   1.324  24.256  0.00  0.00    +0.251 A 
ATOM     16  N   UNL     1      -1.231   1.963  24.773  0.00  0.00    -0.190 NA
ENDROOT
BRANCH  12   7
ATOM      6  C   UNL     1      -2.250   3.693  25.018  0.00  0.00    +0.151 A 
ATOM      7  C   UNL     1      -1.545   3.397  24.709  0.00  0.00    +0.072 A 
ATOM      8  C   UNL     1      -0.864   3.863  24.717  0.00  0.00    +0.008 A 
ATOM      9  C   UNL     1      -0.889   4.625  25.033  0.00  0.00    +0.021 A 
ATOM     10  C   UNL     1      -1.595   4.920  25.342  0.00  0.00    +0.100 A 
ATOM     11  N   UNL     1      -2.275   4.454  25.335  0.00  0.00    -0.228 NA
BRANCH   6   5
ATOM      5  N   UNL     1      -2.932   3.226  25.010  0.00  0.00    -0.218 NA
BRANCH   5   4
ATOM      4  C   UNL     1      -3.615   3.490  25.389  0.00  0.00    +0.146 C 
BRANCH   4   3
ATOM      3  C   UNL     1      -4.329   3.090  25.276  0.00  0.00    +0.166 C 
BRANCH   3   2
ATOM      1  C   UNL     1      -5.593   2.656  25.783  0.00  0.00    +0.174 C 
ATOM      2  O   UNL     1      -4.914   3.120  25.857  0.00  0.00    -0.349 OA
ENDBRANCH   3   2
ENDBRANCH   4   3
ENDBRANCH   5   4
ENDBRANCH   6   5
ENDBRANCH  12   7
BRANCH  15  17
ATOM     17  C   UNL     1      -1.092   0.544  24.410  0.00  0.00    +0.138 C 
ATOM     18  C   UNL     1      -0.332   0.232  24.344  0.00  0.00    +0.027 C 
ATOM     19  C   UNL     1      -0.364  -0.566  24.551  0.00  0.00    +0.019 C 
ATOM     20  C   UNL     1      -1.146  -0.747  24.744  0.00  0.00    +0.073 C 
ATOM     21  N   UNL     1      -1.595  -0.062  24.657  0.00  0.00    -0.260 NA
BRANCH  21  22
ATOM     22  C   UNL     1      -2.407   0.007  24.794  0.00  0.00    +0.138 C 
BRANCH  22  23
ATOM     23  C   UNL     1      -2.870  -0.670  24.877  0.00  0.00    +0.139 A 
ATOM     24  C   UNL     1      -3.096  -1.018  25.590  0.00  0.00    +0.037 A 
ATOM     25  C   UNL     1      -3.554  -1.681  25.416  0.00  0.00    +0.038 A 
ATOM     26  C   UNL     1      -3.611  -1.744  24.596  0.00  0.00    +0.156 A 
ATOM     29  O   UNL     1      -3.188  -1.119  24.262  0.00  0.00    -0.458 OA
BRANCH  26  27
ATOM     27  C   UNL     1      -4.019  -2.328  24.180  0.00  0.00    +0.246 C 
ATOM     28  O   UNL     1      -3.764  -3.113  24.215  0.00  0.00    -0.212 OA
ENDBRANCH  26  27
ENDBRANCH  22  23
ENDBRANCH  21  22
ENDBRANCH  15  17
TORSDOF 9
ENDMDL
MODEL 4
REMARK VINA RESULT:      -9.5      1.395      3.306
REMARK  Name = 
REMARK  9 active torsions:
REMARK  status: ('A' for Active; 'I' for Inactive)
REMARK    1  A    between atoms: O_2  and  C_3
REMARK    2  A    between atoms: C_3  and  C_4
REMARK    3  A    between atoms: C_4  and  N_5
REMARK    4  A    between atoms: N_5  and  C_6
REMARK    5  A    between atoms: C_7  and  C_12
REMARK    6  A    between atoms: C_15  and  C_17
REMARK    7  A    between atoms: N_21  and  C_22
REMARK    8  A    between atoms: C_22  and  C_23
REMARK    9  A    between atoms: C_26  and  C_27
REMARK                            x       y       z     vdW  Elec       q    Type
REMARK                         _______ _______ _______ _____ _____    ______ ____
ROOT
ATOM     12  C   UNL     1      -4.387   1.568  24.618  0.00  0.00    +0.206 A 
ATOM     13  N   UNL     1      -4.050   1.579  23.866  0.00  0.00    -0.056 NA
ATOM     14  O   UNL     1      -3.767   0.821  23.702  0.00  0.00    -0.336 OA
ATOM     15  C   UNL     1      -3.930   0.342  24.354  0.00  0.00    +0.251 A 
ATOM     16  N   UNL     1      -4.314   0.804  24.920  0.00  0.00    -0.190 NA
ENDROOT
BRANCH  12   7
ATOM      6  C   UNL     1      -4.275   2.844  25.250  0.00  0.00    +0.151 A 
ATOM      7  C   UNL     1      -4.738   2.208  25.001  0.00  0.00    +0.072 A 
ATOM      8  C   UNL     1      -5.552   2.214  25.136  0.00  0.00    +0.008 A 
ATOM      9  C   UNL     1      -5.903   2.855  25.520  0.00  0.00    +0.021 A 
ATOM     10  C   UNL     1      -5.439   3.490  25.768  0.00  0.00    +0.100 A 
ATOM     11  N   UNL     1      -4.625   3.485  25.634  0.00  0.00    -0.228 NA
BRANCH   6   5
ATOM      5  N   UNL     1      -3.460   2.838  25.116  0.00  0.00    -0.218 NA
BRANCH   5   4
ATOM      4  C   UNL     1      -2.996   3.469  25.374  0.00  0.00    +0.146 C 
BRANCH   4   3
ATOM      3  C   UNL     1      -2.177   3.448  25.270  0.00  0.00    +0.166 C 
BRANCH   3   2
ATOM      1  C   UNL     1      -0.965   4.187  25.107  0.00  0.00    +0.174 C 
ATOM      2  O   UNL     1      -1.725   4.121  25.422  0.00  0.00    -0.349 OA
ENDBRANCH   3   2
ENDBRANCH   4   3
ENDBRANCH   5   4
ENDBRANCH   6   5
ENDBRANCH  12   7
BRANCH  15  17
ATOM     17  C   UNL     1      -3.742  -0.459  24.426  0.00  0.00    +0.138 C 
ATOM     18  C   UNL     1      -4.217  -1.091  24.194  0.00  0.00    +0.027 C 
ATOM     19  C   UNL     1      -3.815  -1.790  24.368  0.00  0.00    +0.019 C 
ATOM     20  C   UNL     1      -3.090  -1.589  24.709  0.00  0.00    +0.073 C 
ATOM     21  N   UNL     1      -3.046  -0.766  24.745  0.00  0.00    -0.260 NA
BRANCH  21  22
ATOM     22  C   UNL     1      -2.415  -0.327  25.046  0.00  0.00    +0.138 C 
BRANCH  22  23
ATOM     23  C   UNL     1      -1.641  -0.583  24.927  0.00  0.00    +0.139 A 
ATOM     24  C   UNL     1      -1.198  -1.047  25.447  0.00  0.00    +0.037 A 
ATOM     25  C   UNL     1      -0.456  -1.171  25.109  0.00  0.00    +0.038 A 
ATOM     26  C   UNL     1      -0.439  -0.785  24.381  0.00  0.00    +0.156 A 
ATOM     29  O   UNL     1      -1.172  -0.421  24.268  0.00  0.00    -0.458 OA
BRANCH  26  27
ATOM     27  C   UNL     1       0.197  -0.764  23.856  0.00  0.00    +0.246 C 
ATOM     28  O   UNL     1       0.449  -0.043  23.542  0.00  0.00    -0.212 OA
ENDBRANCH  26  27
ENDBRANCH  22  23
ENDBRANCH  21  22
ENDBRANCH  15  17
TORSDOF 9
ENDMDL
MODEL 5
REMARK VINA RESULT:      -9.4      1.150      3.620
REMARK  Name = 
REMARK  9 active torsions:
REMARK  status: ('A' for Active; 'I' for Inactive)
REMARK    1  A    between atoms: O_2  and  C_3
REMARK    2  A    between atoms: C_3  and  C_4
REMARK    3  A    between atoms: C_4  and  N_5
REMARK    4  A    between atoms: N_5  and  C_6
REMARK    5  A    between atoms: C_7  and  C_12
REMARK    6  A    between atoms: C_15  and  C_17
REMARK    7  A    between atoms: N_21  and  C_22
REMARK    8  A    between atoms: C_22  and  C_23
REMARK    9  A    between atoms: C_26  and  C_27
REMARK                            x       y       z     vdW  Elec       q    Type
REMARK                         _______ _______ _______ _____ _____    ______ ____
ROOT
ATOM     12  C   UNL     1      -3.459   2.577  24.795  0.00  0.00    +0.206 A 
ATOM     13  N   UNL     1      -3.203   2.833  24.055  0.00  0.00    -0.056 NA
ATOM     14  O   UNL     1      -2.378   2.815  24.052  0.00  0.00    -0.336 OA
ATOM     15  C   UNL     1      -2.125   2.549  24.791  0.00  0.00    +0.251 A 
ATOM     16  N   UNL     1      -2.794   2.401  25.251  0.00  0.00    -0.190 NA
ENDROOT
BRANCH  12   7
ATOM      6  C   UNL     1      -4.642   1.790  24.956  0.00  0.00    +0.151 A 
ATOM      7  C   UNL     1      -4.245   2.508  25.039  0.00  0.00    +0.072 A 
ATOM      8  C   UNL     1      -4.634   3.159  25.366  0.00  0.00    +0.008 A 
ATOM      9  C   UNL     1      -5.419   3.091  25.609  0.00  0.00    +0.021 A 
ATOM     10  C   UNL     1      -5.815   2.371  25.526  0.00  0.00    +0.100 A 
ATOM     11  N   UNL     1      -5.427   1.722  25.200  0.00  0.00    -0.228 NA
BRANCH   6   5
ATOM      5  N   UNL     1      -4.252   1.139  24.630  0.00  0.00    -0.218 NA
BRANCH   5   4
ATOM      4  C   UNL     1      -4.589   0.388  24.684  0.00  0.00    +0.146 C 
BRANCH   4   3
ATOM      3  C   UNL     1      -4.311  -0.224  24.205  0.00  0.00    +0.166 C 
BRANCH   3   2
ATOM      1  C   UNL     1      -4.218  -1.631  23.974  0.00  0.00    +0.174 C 
ATOM      2  O   UNL     1      -4.282  -0.995  24.496  0.00  0.00    -0.349 OA
ENDBRANCH   3   2
ENDBRANCH   4   3
ENDBRANCH   5   4
ENDBRANCH   6   5
ENDBRANCH  12   7
BRANCH  15  17
ATOM     17  C   UNL     1      -1.341   2.448  25.028  0.00  0.00    +0.138 C 
ATOM     18  C   UNL     1      -0.937   2.911  25.577  0.00  0.00    +0.027 C 
ATOM     19  C   UNL     1      -0.171   2.615  25.646  0.00  0.00    +0.019 C 
ATOM     20  C   UNL     1      -0.101   1.968  25.138  0.00  0.00    +0.073 C 
ATOM     21  N   UNL     1      -0.824   1.865  24.756  0.00  0.00    -0.260 NA
BRANCH  21  22
ATOM     22  C   UNL     1      -1.000   1.281  24.200  0.00  0.00    +0.138 C 
BRANCH  22  23
ATOM     23  C   UNL     1      -0.714   0.515  24.302  0.00  0.00    +0.139 A 
ATOM     24  C   UNL     1      -0.108   0.161  23.865  0.00  0.00    +0.037 A 
ATOM     25  C   UNL     1      -0.003  -0.605  24.152  0.00  0.00    +0.038 A 
ATOM     26  C   UNL     1      -0.541  -0.726  24.764  0.00  0.00    +0.156 A 
ATOM     29  O   UNL     1      -0.981  -0.033  24.857  0.00  0.00    -0.458 OA
BRANCH  26  27
ATOM     27  C   UNL     1      -0.626  -1.416  25.207  0.00  0.00    +0.246 C 
ATOM     28  O   UNL     1      -1.043  -2.057  24.895  0.00  0.00    -0.212 OA
ENDBRANCH  26  27
ENDBRANCH  22  23
ENDBRANCH  21  22
ENDBRANCH  15  17
TORSDOF 9
ENDMDL
MODEL 6
REMARK VINA RESULT:      -9.4      1.624      5.314
REMARK  Name = 
REMARK  9 active torsions:
REMARK  status: ('A' for Active; 'I' for Inactive)
REMARK    1  A    between atoms: O_2  and  C_3
REMARK    2  A    between atoms: C_3  and  C_4
REMARK    3  A    between atoms: C_4  and  N_5
REMARK    4  A    between atoms: N_5  and  C_6
REMARK    5  A    between atoms: C_7  and  C_12
REMARK    6  A    between atoms: C_15  and  C_17
REMARK    7  A    between atoms: N_21  and  C_22
REMARK    8  A    between atoms: C_22  and  C_23
REMARK    9  A    between atoms: C_26  and  C_27
REMARK                            x       y       z     vdW  Elec       q    Type
REMARK                         _______ _______ _______ _____ _____    ______ ____
ROOT
ATOM     12  C   UNL     1      -2.289  -0.946  24.835  0.00  0.00    +0.206 A 
ATOM     13  N   UNL     1      -1.955  -0.945  25.588  0.00  0.00    -0.056 NA
ATOM     14  O   UNL     1      -1.299  -0.445  25.575  0.00  0.00    -0.336 OA
ATOM     15  C   UNL     1      -1.228  -0.136  24.813  0.00  0.00    +0.251 A 
ATOM     16  N   UNL     1      -1.841  -0.446  24.355  0.00  0.00    -0.190 NA
ENDROOT
BRANCH  12   7
ATOM      6  C   UNL     1      -3.692  -1.000  24.568  0.00  0.00    +0.151 A 
ATOM      7  C   UNL     1      -2.956  -1.371  24.601  0.00  0.00    +0.072 A 
ATOM      8  C   UNL     1      -2.887  -2.169  24.401  0.00  0.00    +0.008 A 
ATOM      9  C   UNL     1      -3.554  -2.595  24.167  0.00  0.00    +0.021 A 
ATOM     10  C   UNL     1      -4.290  -2.223  24.134  0.00  0.00    +0.100 A 
ATOM     11  N   UNL     1      -4.359  -1.426  24.334  0.00  0.00    -0.228 NA
BRANCH   6   5
ATOM      5  N   UNL     1      -3.761  -0.202  24.769  0.00  0.00    -0.218 NA
BRANCH   5   4
ATOM      4  C   UNL     1      -4.476   0.191  24.651  0.00  0.00    +0.146 C 
BRANCH   4   3
ATOM      3  C   UNL     1      -4.612   0.918  25.019  0.00  0.00    +0.166 C 
BRANCH   3   2
ATOM      1  C   UNL     1      -5.190   2.222  24.941  0.00  0.00    +0.174 C 
ATOM      2  O   UNL     1      -4.844   1.570  24.571  0.00  0.00    -0.349 OA
ENDBRANCH   3   2
ENDBRANCH   4   3
ENDBRANCH   5   4
ENDBRANCH   6   5
ENDBRANCH  12   7
BRANCH  15  17
ATOM     17  C   UNL     1      -0.647   0.389  24.555  0.00  0.00    +0.138 C 
ATOM     18  C   UNL     1      -0.095   0.247  23.959  0.00  0.00    +0.027 C 
ATOM     19  C   UNL     1       0.377   0.919  23.883  0.00  0.00    +0.019 C 
ATOM     20  C   UNL     1       0.117   1.477  24.433  0.00  0.00    +0.073 C 
ATOM     21  N   UNL     1      -0.516   1.149  24.848  0.00  0.00    -0.260 NA
BRANCH  21  22
ATOM     22  C   UNL     1      -0.943   1.517  25.451  0.00  0.00    +0.138 C 
BRANCH  22  23
ATOM     23  C   UNL     1      -1.008   2.339  25.468  0.00  0.00    +0.139 A 
ATOM     24  C   UNL     1      -0.460   2.862  25.795  0.00  0.00    +0.037 A 
ATOM     25  C   UNL     1      -0.745   3.628  25.690  0.00  0.00    +0.038 A 
ATOM     26  C   UNL     1      -1.469   3.580  25.298  0.00  0.00    +0.156 A 
ATOM     29  O   UNL     1      -1.632   2.783  25.160  0.00  0.00    -0.458 OA
BRANCH  26  27
ATOM     27  C   UNL     1      -1.948   4.216  25.081  0.00  0.00    +0.246 C 
ATOM     28  O   UNL     1      -1.795   4.969  25.385  0.00  0.00    -0.212 OA
ENDBRANCH  26  27
ENDBRANCH  22  23
ENDBRANCH  21  22
ENDBRANCH  15  17
TORSDOF 9
ENDMDL
MODEL 7
REMARK VINA RESULT:      -8.9      1.504      4.099
REMARK  Name = 
REMARK  9 active torsions:
REMARK  status: ('A' for Active; 'I' for Inactive)
REMARK    1  A    between atoms: O_2  and  C_3
REMARK    2  A    between atoms: C_3  and  C_4
REMARK    3  A    between atoms: C_4  and  N_5
REMARK    4  A    between atoms: N_5  and  C_6
REMARK    5  A    between atoms: C_7  and  C_12
REMARK    6  A    between atoms: C_15  and  C_17
REMARK    7  A    between atoms: N_21  and  C_22
REMARK    8  A    between atoms: C_22  and  C_23
REMARK    9  A    between atoms: C_26  and  C_27
REMARK                            x       y       z     vdW  Elec       q    Type
REMARK                         _______ _______ _______ _____ _____    ______ ____
ROOT
ATOM     12  C   UNL     1      -0.147   1.901  24.790  0.00  0.00    +0.206 A 
ATOM     13  N   UNL     1       0.022   1.997  25.591  0.00  0.00    -0.056 NA
ATOM     14  O   UNL     1      -0.296   2.719  25.833  0.00  0.00    -0.336 OA
ATOM     15  C   UNL     1      -0.662   3.069  25.182  0.00  0.00    +0.251 A 
ATOM     16  N   UNL     1      -0.569   2.563  24.536  0.00  0.00    -0.190 NA
ENDROOT
BRANCH  12   7
ATOM      6  C   UNL     1      -0.380   0.564  24.342  0.00  0.00    +0.151 A 
ATOM      7  C   UNL     1       0.068   1.256  24.323  0.00  0.00    +0.072 A 
ATOM      8  C   UNL     1       0.734   1.303  23.836  0.00  0.00    +0.008 A 
ATOM      9  C   UNL     1       0.949   0.657  23.369  0.00  0.00    +0.021 A 
ATOM     10  C   UNL     1       0.500  -0.034  23.389  0.00  0.00    +0.100 A 
ATOM     11  N   UNL     1      -0.165  -0.081  23.875  0.00  0.00    -0.228 NA
BRANCH   6   5
ATOM      5  N   UNL     1      -1.045   0.518  24.829  0.00  0.00    -0.218 NA
BRANCH   5   4
ATOM      4  C   UNL     1      -1.574  -0.110  24.744  0.00  0.00    +0.146 C 
BRANCH   4   3
ATOM      3  C   UNL     1      -2.150  -0.244  25.321  0.00  0.00    +0.166 C 
BRANCH   3   2
ATOM      1  C   UNL     1      -3.427  -0.843  25.551  0.00  0.00    +0.174 C 
ATOM      2  O   UNL     1      -2.937  -0.356  25.099  0.00  0.00    -0.349 OA
ENDBRANCH   3   2
ENDBRANCH   4   3
ENDBRANCH   5   4
ENDBRANCH   6   5
ENDBRANCH  12   7
BRANCH  15  17
ATOM     17  C   UNL     1      -1.051   3.796  25.176  0.00  0.00    +0.138 C 
ATOM     18  C   UNL     1      -0.745   4.507  24.892  0.00  0.00    +0.027 C 
ATOM     19  C   UNL     1      -1.319   5.091  24.995  0.00  0.00    +0.019 C 
ATOM     20  C   UNL     1      -1.980   4.740  25.343  0.00  0.00    +0.073 C 
ATOM     21  N   UNL     1      -1.814   3.940  25.455  0.00  0.00    -0.260 NA
BRANCH  21  22
ATOM     22  C   UNL     1      -2.322   3.381  25.787  0.00  0.00    +0.138 C 
BRANCH  22  23
ATOM     23  C   UNL     1      -3.125   3.391  25.601  0.00  0.00    +0.139 A 
ATOM     24  C   UNL     1      -3.706   3.841  25.979  0.00  0.00    +0.037 A 
ATOM     25  C   UNL     1      -4.428   3.681  25.616  0.00  0.00    +0.038 A 
ATOM     26  C   UNL     1      -4.296   3.134  25.013  0.00  0.00    +0.156 A 
ATOM     29  O   UNL     1      -3.491   2.955  25.003  0.00  0.00    -0.458 OA
BRANCH  26  27
ATOM     27  C   UNL     1      -4.868   2.821  24.507  0.00  0.00    +0.246 C 
ATOM     28  O   UNL     1      -5.245   2.112  24.701  0.00  0.00    -0.212 OA
ENDBRANCH  26  27
ENDBRANCH  22  23
ENDBRANCH  21  22
ENDBRANCH  15  17
TORSDOF 9
ENDMDL
MODEL 8
REMARK VINA RESULT:      -8.8      1.428      2.987
REMARK  Name = 
REMARK  9 active torsions:
REMARK  status: ('A' for Active; 'I' for Inactive)
REMARK    1  A    between atoms: O_2  and  C_3
REMARK    2  A    between atoms: C_3  and  C_4
REMARK    3  A    between atoms: C_4  and  N_5
REMARK    4  A    between atoms: N_5  and  C_6
REMARK    5  A    between atoms: C_7  and  C_12
REMARK    6  A    between atoms: C_15  and  C_17
REMARK    7  A    between atoms: N_21  and  C_22
REMARK    8  A    between atoms: C_22  and  C_23
REMARK    9  A    between atoms: C_26  and  C_27
REMARK                            x       y       z     vdW  Elec       q    Type
REMARK                         _______ _______ _______ _____ _____    ______ ____
ROOT
ATOM     12  C   UNL     1      -3.566   2.076  24.561  0.00  0.00    +0.206 A 
ATOM     13  N   UNL     1      -3.446   1.960  23.754  0.00  0.00    -0.056 NA
ATOM     14  O   UNL     1      -2.883   1.364  23.664  0.00  0.00    -0.336 OA
ATOM     15  C   UNL     1      -2.656   1.112  24.416  0.00  0.00    +0.251 A 
ATOM     16  N   UNL     1      -3.078   1.552  24.971  0.00  0.00    -0.190 NA
ENDROOT
BRANCH  12   7
ATOM      6  C   UNL     1      -3.805   3.355  25.152  0.00  0.00    +0.151 A 
ATOM      7  C   UNL     1      -4.085   2.621  24.901  0.00  0.00    +0.072 A 
ATOM      8  C   UNL     1      -4.883   2.432  24.989  0.00  0.00    +0.008 A 
ATOM      9  C   UNL     1      -5.402   2.977  25.328  0.00  0.00    +0.021 A 
ATOM     10  C   UNL     1      -5.121   3.711  25.580  0.00  0.00    +0.100 A 
ATOM     11  N   UNL     1      -4.323   3.900  25.492  0.00  0.00    -0.228 NA
BRANCH   6   5
ATOM      5  N   UNL     1      -3.006   3.545  25.064  0.00  0.00    -0.218 NA
BRANCH   5   4
ATOM      4  C   UNL     1      -2.725   4.275  25.325  0.00  0.00    +0.146 C 
BRANCH   4   3
ATOM      3  C   UNL     1      -1.912   4.418  25.352  0.00  0.00    +0.166 C 
BRANCH   3   2
ATOM      1  C   UNL     1      -0.852   5.277  24.927  0.00  0.00    +0.174 C 
ATOM      2  O   UNL     1      -1.623   5.176  25.207  0.00  0.00    -0.349 OA
ENDBRANCH   3   2
ENDBRANCH   4   3
ENDBRANCH   5   4
ENDBRANCH   6   5
ENDBRANCH  12   7
BRANCH  15  17
ATOM     17  C   UNL     1      -2.103   0.522  24.583  0.00  0.00    +0.138 C 
ATOM     18  C   UNL     1      -1.291   0.567  24.447  0.00  0.00    +0.027 C 
ATOM     19  C   UNL     1      -0.951  -0.143  24.695  0.00  0.00    +0.019 C 
ATOM     20  C   UNL     1      -1.554  -0.626  24.985  0.00  0.00    +0.073 C 
ATOM     21  N   UNL     1      -2.265  -0.215  24.916  0.00  0.00    -0.260 NA
BRANCH  21  22
ATOM     22  C   UNL     1      -3.010  -0.492  25.140  0.00  0.00    +0.138 C 
BRANCH  22  23
ATOM     23  C   UNL     1      -3.192  -1.292  25.062  0.00  0.00    +0.139 A 
ATOM     24  C   UNL     1      -3.134  -1.863  25.656  0.00  0.00    +0.037 A 
ATOM     25  C   UNL     1      -3.371  -2.586  25.338  0.00  0.00    +0.038 A 
ATOM     26  C   UNL     1      -3.575  -2.464  24.549  0.00  0.00    +0.156 A 
ATOM     29  O   UNL     1      -3.465  -1.664  24.378  0.00  0.00    -0.458 OA
BRANCH  26  27
ATOM     27  C   UNL     1      -3.843  -3.039  24.021  0.00  0.00    +0.246 C 
ATOM     28  O   UNL     1      -4.479  -2.876  23.522  0.00  0.00    -0.212 OA
ENDBRANCH  26  27
ENDBRANCH  22  23
ENDBRANCH  21  22
ENDBRANCH  15  17
TORSDOF 9
ENDMDL
