REMARK  Name = 
REMARK  6 active torsions:
REMARK  status: ('A' for Active; 'I' for Inactive)
REMARK    1  A    between atoms: C_2  and  C_22
REMARK    2  A    between atoms: C_9  and  N_10
REMARK    3  A    between atoms: N_13  and  C_14
REMARK    4  A    between atoms: C_22  and  C_24
REMARK    5  A    between atoms: N_26  and  C_27
REMARK    6  A    between atoms: C_27  and  C_28
REMARK                            x       y       z     vdW  Elec       q    Type
REMARK                         _______ _______ _______ _____ _____    ______ ____
ROOT
ATOM      1  C   UNL     1       2.143  -1.238   0.000  0.00  0.00    +0.052 C 
ATOM      2  C   UNL     1       1.429  -1.650   0.000  0.00  0.00    -0.001 C 
ATOM      3  C   UNL     1       0.715  -1.238   0.000  0.00  0.00    -0.000 C 
ATOM      4  C   UNL     1       0.715  -0.412   0.000  0.00  0.00    -0.001 C 
ATOM      5  C   UNL     1       0.000  -0.825   0.000  0.00  0.00    -0.000 C 
ATOM      6  C   UNL     1       0.000   0.000   0.000  0.00  0.00    +0.002 C 
ATOM      7  C   UNL     1       0.000   0.825   0.000  0.00  0.00    +0.022 C 
ATOM      8  C   UNL     1       0.715   1.238   0.000  0.00  0.00    +0.097 C 
ATOM     15  C   UNL     1       1.429   0.825   0.000  0.00  0.00    +0.019 C 
ATOM     16  C   UNL     1       2.143   1.238   0.000  0.00  0.00    +0.002 C 
ATOM     17  C   UNL     1       1.429   0.000   0.000  0.00  0.00    +0.045 C 
ATOM     18  C   UNL     1       2.143  -0.412   0.000  0.00  0.00    +0.145 C 
ATOM     19  O   UNL     1       2.858   0.000   0.000  0.00  0.00    -0.224 OA
ENDROOT
BRANCH   8   9
ATOM      9  N   UNL     1       0.715   2.062   0.000  0.00  0.00    -0.189 NA
ATOM     10  C   UNL     1       0.000   2.475   0.000  0.00  0.00    +0.339 C 
ATOM     11  O   UNL     1      -0.715   2.062   0.000  0.00  0.00    -0.249 OA
ATOM     12  N   UNL     1       0.000   3.300   0.000  0.00  0.00    -0.187 NA
BRANCH  12  13
ATOM     13  C   UNL     1      -0.715   3.712   0.000  0.00  0.00    +0.117 C 
ATOM     14  C   UNL     1      -0.715   4.537   0.000  0.00  0.00    +0.025 C 
ENDBRANCH  12  13
ENDBRANCH   8   9
BRANCH   1  20
ATOM     20  C   UNL     1       2.858  -1.650   0.000  0.00  0.00    +0.077 C 
ATOM     21  C   UNL     1       2.858  -2.475   0.000  0.00  0.00    +0.009 C 
BRANCH  20  22
ATOM     22  C   UNL     1       3.572  -1.238   0.000  0.00  0.00    +0.241 C 
ATOM     23  O   UNL     1       3.572  -0.412   0.000  0.00  0.00    -0.273 OA
ATOM     24  N   UNL     1       4.287  -1.650   0.000  0.00  0.00    -0.201 NA
BRANCH  24  25
ATOM     25  C   UNL     1       5.001  -1.238   0.000  0.00  0.00    +0.141 C 
BRANCH  25  26
ATOM     26  C   UNL     1       5.716  -1.650   0.000  0.00  0.00    -0.001 A 
ATOM     27  C   UNL     1       6.430  -1.238   0.000  0.00  0.00    -0.003 A 
ATOM     28  C   UNL     1       7.145  -1.650   0.000  0.00  0.00    -0.000 A 
ATOM     29  C   UNL     1       7.145  -2.475   0.000  0.00  0.00    -0.000 A 
ATOM     30  C   UNL     1       6.430  -2.888   0.000  0.00  0.00    -0.000 A 
ATOM     31  C   UNL     1       5.716  -2.475   0.000  0.00  0.00    -0.003 A 
ENDBRANCH  25  26
ENDBRANCH  24  25
ENDBRANCH  20  22
ENDBRANCH   1  20
TORSDOF 6
