REMARK  Name = 
REMARK  6 active torsions:
REMARK  status: ('A' for Active; 'I' for Inactive)
REMARK    1  A    between atoms: C_2  and  N_4
REMARK    2  A    between atoms: N_7  and  C_8
REMARK    3  A    between atoms: C_10  and  C_11
REMARK    4  A    between atoms: C_11  and  C_12
REMARK    5  A    between atoms: C_15  and  C_16
REMARK    6  A    between atoms: C_16  and  N_17
REMARK                            x       y       z     vdW  Elec       q    Type
REMARK                         _______ _______ _______ _____ _____    ______ ____
ROOT
ATOM      8  C   UNL     1       8.660  -5.114   0.000  0.00  0.00    +0.097 C 
ATOM      9  C   UNL     1       9.457  -4.900   0.000  0.00  0.00    +0.022 C 
ATOM     10  C   UNL     1       9.670  -5.697   0.000  0.00  0.00    +0.009 C 
ATOM     24  C   UNL     1       8.873  -5.911   0.000  0.00  0.00    +0.019 C 
ATOM     25  C   UNL     1       8.895  -6.735   0.000  0.00  0.00    +0.002 C 
ATOM     26  C   UNL     1       8.148  -6.304   0.000  0.00  0.00    +0.002 C 
ENDROOT
BRANCH   8   7
ATOM      4  N   UNL     1       6.516  -4.701   0.000  0.00  0.00    -0.189 NA
ATOM      5  C   UNL     1       7.231  -5.114   0.000  0.00  0.00    +0.339 C 
ATOM      6  O   UNL     1       7.231  -5.939   0.000  0.00  0.00    -0.249 OA
ATOM      7  N   UNL     1       7.945  -4.701   0.000  0.00  0.00    -0.189 NA
BRANCH   4   2
ATOM      1  C   UNL     1       5.087  -4.701   0.000  0.00  0.00    +0.023 C 
ATOM      2  C   UNL     1       5.802  -5.114   0.000  0.00  0.00    +0.097 C 
ATOM      3  C   UNL     1       5.802  -5.939   0.000  0.00  0.00    +0.023 C 
ENDBRANCH   4   2
ENDBRANCH   8   7
BRANCH  10  11
ATOM     11  C   UNL     1      10.384  -6.110   0.000  0.00  0.00    +0.049 C 
BRANCH  11  12
ATOM     12  C   UNL     1      11.099  -5.697   0.000  0.00  0.00    +0.100 A 
ATOM     13  N   UNL     1      11.185  -4.877   0.000  0.00  0.00    -0.082 NA
ATOM     14  O   UNL     1      11.992  -4.705   0.000  0.00  0.00    -0.357 OA
ATOM     15  C   UNL     1      12.405  -5.420   0.000  0.00  0.00    +0.170 A 
ATOM     23  C   UNL     1      11.853  -6.033   0.000  0.00  0.00    +0.055 A 
BRANCH  15  16
ATOM     16  C   UNL     1      13.225  -5.506   0.000  0.00  0.00    +0.141 C 
BRANCH  16  17
ATOM     17  N   UNL     1      13.561  -6.260   0.000  0.00  0.00    -0.262 NA
ATOM     18  C   UNL     1      14.381  -6.346   0.000  0.00  0.00    +0.105 C 
ATOM     19  C   UNL     1      14.717  -7.099   0.000  0.00  0.00    +0.159 C 
ATOM     20  O   UNL     1      14.232  -7.767   0.000  0.00  0.00    -0.351 OA
ATOM     21  C   UNL     1      13.411  -7.681   0.000  0.00  0.00    +0.159 C 
ATOM     22  C   UNL     1      13.076  -6.927   0.000  0.00  0.00    +0.105 C 
ENDBRANCH  16  17
ENDBRANCH  15  16
ENDBRANCH  11  12
ENDBRANCH  10  11
TORSDOF 6
