MODEL 1
REMARK VINA RESULT:     -11.3      0.000      0.000
REMARK  Name = 
REMARK  7 active torsions:
REMARK  status: ('A' for Active; 'I' for Inactive)
REMARK    1  A    between atoms: C_2  and  C_4
REMARK    2  A    between atoms: C_4  and  C_5
REMARK    3  A    between atoms: C_5  and  N_6
REMARK    4  A    between atoms: N_6  and  C_7
REMARK    5  A    between atoms: C_7  and  C_8
REMARK    6  A    between atoms: C_8  and  C_9
REMARK    7  A    between atoms: C_12  and  C_14
REMARK                            x       y       z     vdW  Elec       q    Type
REMARK                         _______ _______ _______ _____ _____    ______ ____
ROOT
ATOM      9  C   UNL     1      -4.093   1.450  24.753  0.00  0.00    +0.102 A 
ATOM     10  N   UNL     1      -4.673   1.258  25.307  0.00  0.00    -0.081 NA
ATOM     11  O   UNL     1      -4.709   0.436  25.365  0.00  0.00    -0.354 OA
ATOM     12  C   UNL     1      -4.151   0.119  24.847  0.00  0.00    +0.177 A 
ATOM     13  C   UNL     1      -3.771   0.745  24.468  0.00  0.00    +0.058 A 
ENDROOT
BRANCH  12  14
ATOM     14  C   UNL     1      -3.999  -0.683  24.728  0.00  0.00    +0.037 A 
ATOM     15  C   UNL     1      -4.288  -1.061  24.053  0.00  0.00    +0.005 A 
ATOM     16  C   UNL     1      -4.137  -1.863  23.933  0.00  0.00    +0.030 A 
ATOM     17  C   UNL     1      -3.697  -2.287  24.488  0.00  0.00    +0.140 A 
ATOM     18  F   UNL     1      -3.546  -3.089  24.367  0.00  0.00    -0.204 F 
ATOM     19  C   UNL     1      -3.409  -1.909  25.162  0.00  0.00    +0.030 A 
ATOM     20  C   UNL     1      -3.560  -1.107  25.282  0.00  0.00    +0.005 A 
ENDBRANCH  12  14
BRANCH   9   8
ATOM      8  C   UNL     1      -3.875   2.211  24.523  0.00  0.00    +0.070 C 
BRANCH   8   7
ATOM      7  C   UNL     1      -4.083   2.858  24.990  0.00  0.00    +0.119 C 
ATOM     21  C   UNL     1      -4.291   3.506  25.457  0.00  0.00    +0.161 C 
ATOM     22  O   UNL     1      -5.054   3.488  25.143  0.00  0.00    -0.351 OA
ATOM     23  C   UNL     1      -4.846   2.840  24.676  0.00  0.00    +0.161 C 
BRANCH   7   6
ATOM      6  N   UNL     1      -3.320   2.877  25.304  0.00  0.00    -0.215 NA
BRANCH   6   5
ATOM      5  C   UNL     1      -2.825   3.519  25.149  0.00  0.00    +0.089 C 
BRANCH   5   4
ATOM      4  C   UNL     1      -2.130   3.617  25.582  0.00  0.00    +0.019 C 
BRANCH   4   2
ATOM      1  C   UNL     1      -1.618   4.909  25.251  0.00  0.00    +0.000 C 
ATOM      2  C   UNL     1      -1.523   4.091  25.285  0.00  0.00    +0.001 C 
ATOM      3  C   UNL     1      -0.821   3.746  25.023  0.00  0.00    +0.000 C 
ENDBRANCH   4   2
ENDBRANCH   5   4
ENDBRANCH   6   5
ENDBRANCH   7   6
ENDBRANCH   8   7
ENDBRANCH   9   8
TORSDOF 7
ENDMDL
MODEL 2
REMARK VINA RESULT:     -10.6      2.842      5.515
REMARK  Name = 
REMARK  7 active torsions:
REMARK  status: ('A' for Active; 'I' for Inactive)
REMARK    1  A    between atoms: C_2  and  C_4
REMARK    2  A    between atoms: C_4  and  C_5
REMARK    3  A    between atoms: C_5  and  N_6
REMARK    4  A    between atoms: N_6  and  C_7
REMARK    5  A    between atoms: C_7  and  C_8
REMARK    6  A    between atoms: C_8  and  C_9
REMARK    7  A    between atoms: C_12  and  C_14
REMARK                            x       y       z     vdW  Elec       q    Type
REMARK                         _______ _______ _______ _____ _____    ______ ____
ROOT
ATOM      9  C   UNL     1      -1.344   1.078  24.885  0.00  0.00    +0.102 A 
ATOM     10  N   UNL     1      -0.979   1.108  25.625  0.00  0.00    -0.081 NA
ATOM     11  O   UNL     1      -0.935   1.899  25.856  0.00  0.00    -0.354 OA
ATOM     12  C   UNL     1      -1.273   2.358  25.261  0.00  0.00    +0.177 A 
ATOM     13  C   UNL     1      -1.525   1.852  24.660  0.00  0.00    +0.058 A 
ENDROOT
BRANCH  12  14
ATOM     14  C   UNL     1      -1.345   3.180  25.263  0.00  0.00    +0.037 A 
ATOM     15  C   UNL     1      -2.018   3.533  25.586  0.00  0.00    +0.005 A 
ATOM     16  C   UNL     1      -2.091   4.355  25.589  0.00  0.00    +0.030 A 
ATOM     17  C   UNL     1      -1.492   4.823  25.269  0.00  0.00    +0.140 A 
ATOM     18  F   UNL     1      -1.565   5.645  25.272  0.00  0.00    -0.204 F 
ATOM     19  C   UNL     1      -0.820   4.470  24.947  0.00  0.00    +0.030 A 
ATOM     20  C   UNL     1      -0.746   3.648  24.944  0.00  0.00    +0.005 A 
ENDBRANCH  12  14
BRANCH   9   8
ATOM      8  C   UNL     1      -1.500   0.397  24.448  0.00  0.00    +0.070 C 
BRANCH   8   7
ATOM      7  C   UNL     1      -1.225  -0.334  24.713  0.00  0.00    +0.119 C 
ATOM     21  C   UNL     1      -0.951  -1.066  24.978  0.00  0.00    +0.161 C 
ATOM     22  O   UNL     1      -0.199  -0.890  24.686  0.00  0.00    -0.351 OA
ATOM     23  C   UNL     1      -0.474  -0.158  24.421  0.00  0.00    +0.161 C 
BRANCH   7   6
ATOM      6  N   UNL     1      -1.976  -0.511  25.005  0.00  0.00    -0.215 NA
BRANCH   6   5
ATOM      5  C   UNL     1      -2.421  -1.117  24.663  0.00  0.00    +0.089 C 
BRANCH   5   4
ATOM      4  C   UNL     1      -3.170  -1.295  24.958  0.00  0.00    +0.019 C 
BRANCH   4   2
ATOM      1  C   UNL     1      -4.224  -1.539  24.025  0.00  0.00    +0.000 C 
ATOM      2  C   UNL     1      -3.658  -1.824  24.553  0.00  0.00    +0.001 C 
ATOM      3  C   UNL     1      -3.578  -2.636  24.675  0.00  0.00    +0.000 C 
ENDBRANCH   4   2
ENDBRANCH   5   4
ENDBRANCH   6   5
ENDBRANCH   7   6
ENDBRANCH   8   7
ENDBRANCH   9   8
TORSDOF 7
ENDMDL
MODEL 3
REMARK VINA RESULT:     -10.5      2.062      4.838
REMARK  Name = 
REMARK  7 active torsions:
REMARK  status: ('A' for Active; 'I' for Inactive)
REMARK    1  A    between atoms: C_2  and  C_4
REMARK    2  A    between atoms: C_4  and  C_5
REMARK    3  A    between atoms: C_5  and  N_6
REMARK    4  A    between atoms: N_6  and  C_7
REMARK    5  A    between atoms: C_7  and  C_8
REMARK    6  A    between atoms: C_8  and  C_9
REMARK    7  A    between atoms: C_12  and  C_14
REMARK                            x       y       z     vdW  Elec       q    Type
REMARK                         _______ _______ _______ _____ _____    ______ ____
ROOT
ATOM      9  C   UNL     1      -3.967   2.755  24.893  0.00  0.00    +0.102 A 
ATOM     10  N   UNL     1      -4.153   3.139  25.599  0.00  0.00    -0.081 NA
ATOM     11  O   UNL     1      -3.545   3.672  25.768  0.00  0.00    -0.354 OA
ATOM     12  C   UNL     1      -2.984   3.617  25.166  0.00  0.00    +0.177 A 
ATOM     13  C   UNL     1      -3.244   3.051  24.626  0.00  0.00    +0.058 A 
ENDROOT
BRANCH  12  14
ATOM     14  C   UNL     1      -2.285   4.052  25.114  0.00  0.00    +0.037 A 
ATOM     15  C   UNL     1      -2.306   4.875  25.173  0.00  0.00    +0.005 A 
ATOM     16  C   UNL     1      -1.607   5.310  25.121  0.00  0.00    +0.030 A 
ATOM     17  C   UNL     1      -0.887   4.922  25.009  0.00  0.00    +0.140 A 
ATOM     18  F   UNL     1      -0.188   5.358  24.957  0.00  0.00    -0.204 F 
ATOM     19  C   UNL     1      -0.866   4.100  24.950  0.00  0.00    +0.030 A 
ATOM     20  C   UNL     1      -1.565   3.664  25.003  0.00  0.00    +0.005 A 
ENDBRANCH  12  14
BRANCH   9   8
ATOM      8  C   UNL     1      -4.422   2.178  24.520  0.00  0.00    +0.070 C 
BRANCH   8   7
ATOM      7  C   UNL     1      -4.905   1.681  24.968  0.00  0.00    +0.119 C 
ATOM     21  C   UNL     1      -5.388   1.184  25.415  0.00  0.00    +0.161 C 
ATOM     22  O   UNL     1      -5.998   1.738  25.371  0.00  0.00    -0.351 OA
ATOM     23  C   UNL     1      -5.515   2.235  24.924  0.00  0.00    +0.161 C 
BRANCH   7   6
ATOM      6  N   UNL     1      -4.295   1.128  25.011  0.00  0.00    -0.215 NA
BRANCH   6   5
ATOM      5  C   UNL     1      -4.434   0.342  24.796  0.00  0.00    +0.089 C 
BRANCH   5   4
ATOM      4  C   UNL     1      -3.798  -0.159  24.635  0.00  0.00    +0.019 C 
BRANCH   4   2
ATOM      1  C   UNL     1      -3.684  -1.428  25.282  0.00  0.00    +0.000 C 
ATOM      2  C   UNL     1      -3.910  -0.977  24.629  0.00  0.00    +0.001 C 
ATOM      3  C   UNL     1      -4.247  -1.342  23.971  0.00  0.00    +0.000 C 
ENDBRANCH   4   2
ENDBRANCH   5   4
ENDBRANCH   6   5
ENDBRANCH   7   6
ENDBRANCH   8   7
ENDBRANCH   9   8
TORSDOF 7
ENDMDL
MODEL 4
REMARK VINA RESULT:     -10.1      1.971      2.498
REMARK  Name = 
REMARK  7 active torsions:
REMARK  status: ('A' for Active; 'I' for Inactive)
REMARK    1  A    between atoms: C_2  and  C_4
REMARK    2  A    between atoms: C_4  and  C_5
REMARK    3  A    between atoms: C_5  and  N_6
REMARK    4  A    between atoms: N_6  and  C_7
REMARK    5  A    between atoms: C_7  and  C_8
REMARK    6  A    between atoms: C_8  and  C_9
REMARK    7  A    between atoms: C_12  and  C_14
REMARK                            x       y       z     vdW  Elec       q    Type
REMARK                         _______ _______ _______ _____ _____    ______ ____
ROOT
ATOM      9  C   UNL     1      -1.822   0.754  24.641  0.00  0.00    +0.102 A 
ATOM     10  N   UNL     1      -1.660   0.407  25.372  0.00  0.00    -0.081 NA
ATOM     11  O   UNL     1      -2.080  -0.301  25.418  0.00  0.00    -0.354 OA
ATOM     12  C   UNL     1      -2.502  -0.393  24.716  0.00  0.00    +0.177 A 
ATOM     13  C   UNL     1      -2.344   0.259  24.236  0.00  0.00    +0.058 A 
ENDROOT
BRANCH  12  14
ATOM     14  C   UNL     1      -2.997  -1.025  24.526  0.00  0.00    +0.037 A 
ATOM     15  C   UNL     1      -3.747  -0.881  24.212  0.00  0.00    +0.005 A 
ATOM     16  C   UNL     1      -4.242  -1.514  24.022  0.00  0.00    +0.030 A 
ATOM     17  C   UNL     1      -3.988  -2.288  24.146  0.00  0.00    +0.140 A 
ATOM     18  F   UNL     1      -4.484  -2.920  23.956  0.00  0.00    -0.204 F 
ATOM     19  C   UNL     1      -3.239  -2.432  24.461  0.00  0.00    +0.030 A 
ATOM     20  C   UNL     1      -2.743  -1.800  24.651  0.00  0.00    +0.005 A 
ENDBRANCH  12  14
BRANCH   9   8
ATOM      8  C   UNL     1      -1.518   1.468  24.365  0.00  0.00    +0.070 C 
BRANCH   8   7
ATOM      7  C   UNL     1      -0.756   1.703  24.579  0.00  0.00    +0.119 C 
ATOM     21  C   UNL     1       0.005   1.937  24.793  0.00  0.00    +0.161 C 
ATOM     22  O   UNL     1       0.322   1.397  24.255  0.00  0.00    -0.351 OA
ATOM     23  C   UNL     1      -0.440   1.163  24.041  0.00  0.00    +0.161 C 
BRANCH   7   6
ATOM      6  N   UNL     1      -1.073   2.242  25.117  0.00  0.00    -0.215 NA
BRANCH   6   5
ATOM      5  C   UNL     1      -1.059   3.050  24.948  0.00  0.00    +0.089 C 
BRANCH   5   4
ATOM      4  C   UNL     1      -1.240   3.597  25.539  0.00  0.00    +0.019 C 
BRANCH   4   2
ATOM      1  C   UNL     1      -0.988   4.888  24.979  0.00  0.00    +0.000 C 
ATOM      2  C   UNL     1      -1.505   4.352  25.334  0.00  0.00    +0.001 C 
ATOM      3  C   UNL     1      -2.286   4.570  25.485  0.00  0.00    +0.000 C 
ENDBRANCH   4   2
ENDBRANCH   5   4
ENDBRANCH   6   5
ENDBRANCH   7   6
ENDBRANCH   8   7
ENDBRANCH   9   8
TORSDOF 7
ENDMDL
