REMARK  Name = 
REMARK  8 active torsions:
REMARK  status: ('A' for Active; 'I' for Inactive)
REMARK    1  A    between atoms: O_2  and  C_3
REMARK    2  A    between atoms: C_3  and  C_4
REMARK    3  A    between atoms: C_6  and  C_7
REMARK    4  A    between atoms: C_7  and  C_8
REMARK    5  A    between atoms: C_13  and  C_14
REMARK    6  A    between atoms: C_14  and  N_15
REMARK    7  A    between atoms: N_15  and  C_16
REMARK    8  A    between atoms: C_16  and  C_17
REMARK                            x       y       z     vdW  Elec       q    Type
REMARK                         _______ _______ _______ _____ _____    ______ ____
ROOT
ATOM      8  C   UNL     1      -1.748  -5.625   0.000  0.00  0.00    +0.121 C 
ATOM      9  C   UNL     1      -1.412  -4.871   0.000  0.00  0.00    +0.033 C 
ATOM     10  C   UNL     1      -0.592  -4.785   0.000  0.00  0.00    +0.038 C 
ATOM     11  C   UNL     1      -0.107  -5.452   0.000  0.00  0.00    +0.180 C 
ATOM     12  O   UNL     1       0.714  -5.366   0.000  0.00  0.00    -0.220 OA
ATOM     13  C   UNL     1      -0.442  -6.206   0.000  0.00  0.00    +0.163 C 
ATOM     24  O   UNL     1      -1.263  -6.292   0.000  0.00  0.00    -0.354 OA
ENDROOT
BRANCH   8   7
ATOM      7  C   UNL     1      -2.568  -5.711   0.000  0.00  0.00    +0.079 C 
BRANCH   7   6
ATOM      4  C   UNL     1      -3.466  -3.774   0.000  0.00  0.00    +0.184 A 
ATOM      5  C   UNL     1      -2.798  -4.259   0.000  0.00  0.00    +0.056 A 
ATOM      6  C   UNL     1      -3.053  -5.044   0.000  0.00  0.00    +0.103 A 
ATOM     25  N   UNL     1      -3.878  -5.044   0.000  0.00  0.00    -0.082 NA
ATOM     26  O   UNL     1      -4.133  -4.259   0.000  0.00  0.00    -0.356 OA
BRANCH   4   3
ATOM      3  C   UNL     1      -3.466  -2.949   0.000  0.00  0.00    +0.209 C 
BRANCH   3   2
ATOM      1  C   UNL     1      -4.180  -1.712   0.000  0.00  0.00    +0.175 C 
ATOM      2  O   UNL     1      -4.180  -2.537   0.000  0.00  0.00    -0.343 OA
ENDBRANCH   3   2
ENDBRANCH   4   3
ENDBRANCH   7   6
ENDBRANCH   8   7
BRANCH  13  14
ATOM     14  C   UNL     1       0.043  -6.873   0.000  0.00  0.00    +0.121 C 
BRANCH  14  15
ATOM     15  N   UNL     1      -0.293  -7.627   0.000  0.00  0.00    -0.211 NA
BRANCH  15  16
ATOM     16  C   UNL     1       0.192  -8.295   0.000  0.00  0.00    +0.115 C 
BRANCH  16  17
ATOM     17  C   UNL     1       1.012  -8.208   0.000  0.00  0.00    -0.005 A 
ATOM     18  C   UNL     1       1.348  -7.455   0.000  0.00  0.00    -0.002 A 
ATOM     19  C   UNL     1       2.168  -7.369   0.000  0.00  0.00    +0.011 A 
ATOM     20  C   UNL     1       2.653  -8.036   0.000  0.00  0.00    +0.058 A 
ATOM     21 CL   UNL     1       3.474  -7.950   0.000  0.00  0.00    -0.082 Cl
ATOM     22  C   UNL     1       2.318  -8.790   0.000  0.00  0.00    +0.011 A 
ATOM     23  C   UNL     1       1.497  -8.876   0.000  0.00  0.00    -0.002 A 
ENDBRANCH  16  17
ENDBRANCH  15  16
ENDBRANCH  14  15
ENDBRANCH  13  14
TORSDOF 8
