MODEL 1
REMARK VINA RESULT:     -12.4      0.000      0.000
REMARK  Name = 
REMARK  4 active torsions:
REMARK  status: ('A' for Active; 'I' for Inactive)
REMARK    1  A    between atoms: C_5  and  C_6
REMARK    2  A    between atoms: C_6  and  N_7
REMARK    3  A    between atoms: N_11  and  C_12
REMARK    4  A    between atoms: C_12  and  C_13
REMARK                            x       y       z     vdW  Elec       q    Type
REMARK                         _______ _______ _______ _____ _____    ______ ____
ROOT
ATOM      7  N   UNL     1      -2.451  -0.356  25.439  0.00  0.00    -0.258 N 
ATOM      8  C   UNL     1      -2.703   0.266  24.959  0.00  0.00    +0.116 C 
ATOM      9  C   UNL     1      -2.083   0.806  24.896  0.00  0.00    +0.113 C 
ATOM     10  C   UNL     1      -2.014   1.523  24.494  0.00  0.00    +0.094 C 
ATOM     11  N   UNL     1      -1.311   1.952  24.532  0.00  0.00    -0.266 NA
ATOM     19  C   UNL     1      -0.676   1.664  24.972  0.00  0.00    +0.094 C 
ATOM     20  C   UNL     1      -0.743   0.947  25.374  0.00  0.00    +0.112 C 
ATOM     21  N   UNL     1      -1.448   0.517  25.336  0.00  0.00    -0.261 N 
ATOM     22  C   UNL     1      -1.675  -0.201  25.671  0.00  0.00    +0.308 C 
ATOM     23  O   UNL     1      -1.208  -0.680  26.155  0.00  0.00    -0.252 OA
ENDROOT
BRANCH   7   6
ATOM      6  C   UNL     1      -2.896  -1.018  25.649  0.00  0.00    +0.122 C 
BRANCH   6   5
ATOM      1  F   UNL     1      -4.530  -2.712  23.335  0.00  0.00    -0.204 F 
ATOM      2  C   UNL     1      -4.122  -2.288  23.914  0.00  0.00    +0.140 A 
ATOM      3  C   UNL     1      -4.406  -1.557  24.167  0.00  0.00    +0.029 A 
ATOM      4  C   UNL     1      -3.998  -1.132  24.745  0.00  0.00    -0.000 A 
ATOM      5  C   UNL     1      -3.305  -1.441  25.070  0.00  0.00    -0.002 A 
ATOM     24  C   UNL     1      -3.021  -2.174  24.817  0.00  0.00    -0.000 A 
ATOM     25  C   UNL     1      -3.429  -2.597  24.239  0.00  0.00    +0.029 A 
ENDBRANCH   6   5
ENDBRANCH   7   6
BRANCH  11  12
ATOM     12  C   UNL     1      -1.242   2.670  24.130  0.00  0.00    +0.099 C 
BRANCH  12  13
ATOM     13  C   UNL     1      -1.374   3.380  24.528  0.00  0.00    -0.006 A 
ATOM     14  C   UNL     1      -2.143   3.612  24.715  0.00  0.00    -0.003 A 
ATOM     15  C   UNL     1      -2.275   4.322  25.112  0.00  0.00    -0.000 A 
ATOM     16  C   UNL     1      -1.638   4.801  25.323  0.00  0.00    -0.000 A 
ATOM     17  C   UNL     1      -0.868   4.570  25.137  0.00  0.00    -0.000 A 
ATOM     18  C   UNL     1      -0.736   3.859  24.739  0.00  0.00    -0.003 A 
ENDBRANCH  12  13
ENDBRANCH  11  12
TORSDOF 4
ENDMDL
MODEL 2
REMARK VINA RESULT:     -12.3      1.860      5.116
REMARK  Name = 
REMARK  4 active torsions:
REMARK  status: ('A' for Active; 'I' for Inactive)
REMARK    1  A    between atoms: C_5  and  C_6
REMARK    2  A    between atoms: C_6  and  N_7
REMARK    3  A    between atoms: N_11  and  C_12
REMARK    4  A    between atoms: C_12  and  C_13
REMARK                            x       y       z     vdW  Elec       q    Type
REMARK                         _______ _______ _______ _____ _____    ______ ____
ROOT
ATOM      7  N   UNL     1      -1.168   1.702  24.485  0.00  0.00    -0.258 N 
ATOM      8  C   UNL     1      -1.948   1.506  24.671  0.00  0.00    +0.116 C 
ATOM      9  C   UNL     1      -1.965   0.711  24.889  0.00  0.00    +0.113 C 
ATOM     10  C   UNL     1      -2.581   0.217  25.127  0.00  0.00    +0.094 C 
ATOM     11  N   UNL     1      -2.430  -0.572  25.314  0.00  0.00    -0.266 NA
ATOM     19  C   UNL     1      -1.661  -0.867  25.263  0.00  0.00    +0.094 C 
ATOM     20  C   UNL     1      -1.044  -0.374  25.025  0.00  0.00    +0.112 C 
ATOM     21  N   UNL     1      -1.196   0.416  24.838  0.00  0.00    -0.261 N 
ATOM     22  C   UNL     1      -0.704   1.028  24.589  0.00  0.00    +0.308 C 
ATOM     23  O   UNL     1       0.110   0.976  24.464  0.00  0.00    -0.252 OA
ENDROOT
BRANCH   7   6
ATOM      6  C   UNL     1      -0.899   2.442  24.239  0.00  0.00    +0.122 C 
BRANCH   6   5
ATOM      1  F   UNL     1      -1.990   5.175  25.735  0.00  0.00    -0.204 F 
ATOM      2  C   UNL     1      -1.717   4.492  25.360  0.00  0.00    +0.140 A 
ATOM      3  C   UNL     1      -2.155   4.154  24.748  0.00  0.00    +0.029 A 
ATOM      4  C   UNL     1      -1.882   3.471  24.374  0.00  0.00    -0.000 A 
ATOM      5  C   UNL     1      -1.172   3.125  24.613  0.00  0.00    -0.002 A 
ATOM     24  C   UNL     1      -0.734   3.463  25.226  0.00  0.00    -0.000 A 
ATOM     25  C   UNL     1      -1.007   4.146  25.599  0.00  0.00    +0.029 A 
ENDBRANCH   6   5
ENDBRANCH   7   6
BRANCH  11  12
ATOM     12  C   UNL     1      -3.046  -1.066  25.552  0.00  0.00    +0.099 C 
BRANCH  12  13
ATOM     13  C   UNL     1      -3.413  -1.561  25.005  0.00  0.00    -0.006 A 
ATOM     14  C   UNL     1      -3.979  -1.257  24.487  0.00  0.00    -0.003 A 
ATOM     15  C   UNL     1      -4.347  -1.752  23.940  0.00  0.00    -0.000 A 
ATOM     16  C   UNL     1      -4.149  -2.552  23.910  0.00  0.00    -0.000 A 
ATOM     17  C   UNL     1      -3.583  -2.858  24.427  0.00  0.00    -0.000 A 
ATOM     18  C   UNL     1      -3.216  -2.361  24.975  0.00  0.00    -0.003 A 
ENDBRANCH  12  13
ENDBRANCH  11  12
TORSDOF 4
ENDMDL
MODEL 3
REMARK VINA RESULT:     -12.2      2.480      5.363
REMARK  Name = 
REMARK  4 active torsions:
REMARK  status: ('A' for Active; 'I' for Inactive)
REMARK    1  A    between atoms: C_5  and  C_6
REMARK    2  A    between atoms: C_6  and  N_7
REMARK    3  A    between atoms: N_11  and  C_12
REMARK    4  A    between atoms: C_12  and  C_13
REMARK                            x       y       z     vdW  Elec       q    Type
REMARK                         _______ _______ _______ _____ _____    ______ ____
ROOT
ATOM      7  N   UNL     1      -3.326   2.913  25.457  0.00  0.00    -0.258 N 
ATOM      8  C   UNL     1      -2.852   2.378  25.043  0.00  0.00    +0.116 C 
ATOM      9  C   UNL     1      -3.334   1.764  24.779  0.00  0.00    +0.113 C 
ATOM     10  C   UNL     1      -3.171   1.083  24.342  0.00  0.00    +0.094 C 
ATOM     11  N   UNL     1      -3.778   0.556  24.156  0.00  0.00    -0.266 NA
ATOM     19  C   UNL     1      -4.549   0.711  24.407  0.00  0.00    +0.094 C 
ATOM     20  C   UNL     1      -4.713   1.391  24.843  0.00  0.00    +0.112 C 
ATOM     21  N   UNL     1      -4.105   1.918  25.029  0.00  0.00    -0.261 N 
ATOM     22  C   UNL     1      -4.099   2.628  25.448  0.00  0.00    +0.308 C 
ATOM     23  O   UNL     1      -4.754   2.990  25.798  0.00  0.00    -0.252 OA
ENDROOT
BRANCH   7   6
ATOM      6  C   UNL     1      -3.069   3.610  25.817  0.00  0.00    +0.122 C 
BRANCH   6   5
ATOM      1  F   UNL     1      -0.326   5.105  24.753  0.00  0.00    -0.204 F 
ATOM      2  C   UNL     1      -1.013   4.732  25.019  0.00  0.00    +0.140 A 
ATOM      3  C   UNL     1      -1.752   5.022  24.799  0.00  0.00    +0.029 A 
ATOM      4  C   UNL     1      -2.439   4.648  25.064  0.00  0.00    -0.000 A 
ATOM      5  C   UNL     1      -2.384   3.984  25.551  0.00  0.00    -0.002 A 
ATOM     24  C   UNL     1      -1.644   3.693  25.772  0.00  0.00    -0.000 A 
ATOM     25  C   UNL     1      -0.958   4.068  25.505  0.00  0.00    +0.029 A 
ENDBRANCH   6   5
ENDBRANCH   7   6
BRANCH  11  12
ATOM     12  C   UNL     1      -3.615  -0.125  23.719  0.00  0.00    +0.099 C 
BRANCH  12  13
ATOM     13  C   UNL     1      -3.580  -0.857  24.095  0.00  0.00    -0.006 A 
ATOM     14  C   UNL     1      -4.186  -1.407  23.988  0.00  0.00    -0.003 A 
ATOM     15  C   UNL     1      -4.151  -2.139  24.363  0.00  0.00    -0.000 A 
ATOM     16  C   UNL     1      -3.509  -2.324  24.847  0.00  0.00    -0.000 A 
ATOM     17  C   UNL     1      -2.902  -1.776  24.956  0.00  0.00    -0.000 A 
ATOM     18  C   UNL     1      -2.938  -1.042  24.579  0.00  0.00    -0.003 A 
ENDBRANCH  12  13
ENDBRANCH  11  12
TORSDOF 4
ENDMDL
MODEL 4
REMARK VINA RESULT:     -12.2      1.500      1.886
REMARK  Name = 
REMARK  4 active torsions:
REMARK  status: ('A' for Active; 'I' for Inactive)
REMARK    1  A    between atoms: C_5  and  C_6
REMARK    2  A    between atoms: C_6  and  N_7
REMARK    3  A    between atoms: N_11  and  C_12
REMARK    4  A    between atoms: C_12  and  C_13
REMARK                            x       y       z     vdW  Elec       q    Type
REMARK                         _______ _______ _______ _____ _____    ______ ____
ROOT
ATOM      7  N   UNL     1      -4.072   0.364  25.042  0.00  0.00    -0.258 N 
ATOM      8  C   UNL     1      -3.293   0.555  24.845  0.00  0.00    +0.116 C 
ATOM      9  C   UNL     1      -3.279   1.342  24.599  0.00  0.00    +0.113 C 
ATOM     10  C   UNL     1      -2.666   1.829  24.340  0.00  0.00    +0.094 C 
ATOM     11  N   UNL     1      -2.821   2.610  24.126  0.00  0.00    -0.266 NA
ATOM     19  C   UNL     1      -3.590   2.905  24.171  0.00  0.00    +0.094 C 
ATOM     20  C   UNL     1      -4.204   2.419  24.429  0.00  0.00    +0.112 C 
ATOM     21  N   UNL     1      -4.049   1.637  24.644  0.00  0.00    -0.261 N 
ATOM     22  C   UNL     1      -4.538   1.032  24.917  0.00  0.00    +0.308 C 
ATOM     23  O   UNL     1      -5.352   1.087  25.044  0.00  0.00    -0.252 OA
ENDROOT
BRANCH   7   6
ATOM      6  C   UNL     1      -4.337  -0.368  25.315  0.00  0.00    +0.122 C 
BRANCH   6   5
ATOM      1  F   UNL     1      -3.086  -3.152  24.060  0.00  0.00    -0.204 F 
ATOM      2  C   UNL     1      -3.399  -2.456  24.373  0.00  0.00    +0.140 A 
ATOM      3  C   UNL     1      -3.974  -2.038  23.956  0.00  0.00    +0.029 A 
ATOM      4  C   UNL     1      -4.287  -1.341  24.269  0.00  0.00    -0.000 A 
ATOM      5  C   UNL     1      -4.024  -1.064  25.001  0.00  0.00    -0.002 A 
ATOM     24  C   UNL     1      -3.449  -1.483  25.419  0.00  0.00    -0.000 A 
ATOM     25  C   UNL     1      -3.137  -2.179  25.105  0.00  0.00    +0.029 A 
ENDBRANCH   6   5
ENDBRANCH   7   6
BRANCH  11  12
ATOM     12  C   UNL     1      -2.207   3.097  23.867  0.00  0.00    +0.099 C 
BRANCH  12  13
ATOM     13  C   UNL     1      -1.779   3.546  24.410  0.00  0.00    -0.006 A 
ATOM     14  C   UNL     1      -2.085   4.260  24.689  0.00  0.00    -0.003 A 
ATOM     15  C   UNL     1      -1.657   4.709  25.231  0.00  0.00    -0.000 A 
ATOM     16  C   UNL     1      -0.922   4.445  25.496  0.00  0.00    -0.000 A 
ATOM     17  C   UNL     1      -0.615   3.731  25.219  0.00  0.00    -0.000 A 
ATOM     18  C   UNL     1      -1.044   3.282  24.675  0.00  0.00    -0.003 A 
ENDBRANCH  12  13
ENDBRANCH  11  12
TORSDOF 4
ENDMDL
