MODEL 1
REMARK VINA RESULT:     -11.8      0.000      0.000
REMARK  Name = 
REMARK  5 active torsions:
REMARK  status: ('A' for Active; 'I' for Inactive)
REMARK    1  A    between atoms: C_2  and  C_4
REMARK    2  A    between atoms: C_4  and  C_5
REMARK    3  A    between atoms: CA_7  and  C_22
REMARK    4  A    between atoms: N_11  and  C_12
REMARK    5  A    between atoms: C_12  and  C_13
REMARK                            x       y       z     vdW  Elec       q    Type
REMARK                         _______ _______ _______ _____ _____    ______ ____
ROOT
ATOM      5  C   UNL     1      -3.400  -0.336  24.930  0.00  0.00    +0.096 C 
ATOM      6  N   UNL     1      -2.616  -0.590  24.939  0.00  0.00    -0.205 NA
ATOM      7  CA  UNL     1      -1.927  -0.135  24.922  0.00  0.00    +0.180 C 
ATOM      8  C   UNL     1      -1.855   0.686  24.891  0.00  0.00    +0.057 C 
ATOM      9  C   UNL     1      -2.452   1.255  24.870  0.00  0.00    -0.002 A 
ATOM     10  C   UNL     1      -2.306   2.067  24.839  0.00  0.00    +0.072 A 
ATOM     11  N   UNL     1      -3.033   2.457  24.825  0.00  0.00    -0.326 N 
ATOM     16  C   UNL     1      -3.629   1.886  24.847  0.00  0.00    +0.059 A 
ATOM     17  C   UNL     1      -3.270   1.143  24.874  0.00  0.00    +0.011 A 
ATOM     18  C   UNL     1      -3.691   0.434  24.901  0.00  0.00    -0.005 A 
ATOM     19  C   UNL     1      -4.555   0.522  24.898  0.00  0.00    -0.003 A 
ATOM     20  C   UNL     1      -4.915   1.264  24.870  0.00  0.00    +0.001 A 
ATOM     21  C   UNL     1      -4.451   1.946  24.844  0.00  0.00    +0.017 A 
ENDROOT
BRANCH   7  22
ATOM     22  C   UNL     1      -1.218  -0.557  24.938  0.00  0.00    +0.381 C 
ATOM     23  O   UNL     1      -0.923  -0.840  25.655  0.00  0.00    -0.244 OA
ATOM     24  OXT UNL     1      -0.806  -0.696  24.238  0.00  0.00    -0.244 OA
ENDBRANCH   7  22
BRANCH   5   4
ATOM      4  C   UNL     1      -3.969  -0.933  24.953  0.00  0.00    +0.022 C 
BRANCH   4   2
ATOM      1  C   UNL     1      -3.978  -1.688  23.739  0.00  0.00    +0.000 C 
ATOM      2  C   UNL     1      -3.840  -1.643  24.551  0.00  0.00    +0.002 C 
ATOM      3  C   UNL     1      -3.572  -2.306  24.962  0.00  0.00    +0.000 C 
ENDBRANCH   4   2
ENDBRANCH   5   4
BRANCH  11  12
ATOM     12  C   UNL     1      -3.146   3.273  24.794  0.00  0.00    +0.106 C 
BRANCH  12  13
ATOM     13  C   UNL     1      -2.606   3.778  25.159  0.00  0.00    +0.023 C 
ATOM     14  C   UNL     1      -1.924   4.243  25.122  0.00  0.00    +0.002 C 
ATOM     15  C   UNL     1      -2.351   4.190  25.827  0.00  0.00    +0.002 C 
ENDBRANCH  12  13
ENDBRANCH  11  12
TORSDOF 5
ENDMDL
MODEL 2
REMARK VINA RESULT:     -11.5      1.082      3.767
REMARK  Name = 
REMARK  5 active torsions:
REMARK  status: ('A' for Active; 'I' for Inactive)
REMARK    1  A    between atoms: C_2  and  C_4
REMARK    2  A    between atoms: C_4  and  C_5
REMARK    3  A    between atoms: CA_7  and  C_22
REMARK    4  A    between atoms: N_11  and  C_12
REMARK    5  A    between atoms: C_12  and  C_13
REMARK                            x       y       z     vdW  Elec       q    Type
REMARK                         _______ _______ _______ _____ _____    ______ ____
ROOT
ATOM      5  C   UNL     1      -2.624   2.865  24.891  0.00  0.00    +0.096 C 
ATOM      6  N   UNL     1      -1.838   2.635  24.987  0.00  0.00    -0.205 NA
ATOM      7  CA  UNL     1      -1.523   1.872  25.008  0.00  0.00    +0.180 C 
ATOM      8  C   UNL     1      -1.918   1.152  24.938  0.00  0.00    +0.057 C 
ATOM      9  C   UNL     1      -2.725   1.015  24.830  0.00  0.00    -0.002 A 
ATOM     10  C   UNL     1      -3.054   0.261  24.769  0.00  0.00    +0.072 A 
ATOM     11  N   UNL     1      -3.869   0.346  24.666  0.00  0.00    -0.326 N 
ATOM     16  C   UNL     1      -4.043   1.153  24.664  0.00  0.00    +0.059 A 
ATOM     17  C   UNL     1      -3.336   1.566  24.766  0.00  0.00    +0.011 A 
ATOM     18  C   UNL     1      -3.290   2.390  24.793  0.00  0.00    -0.005 A 
ATOM     19  C   UNL     1      -4.050   2.802  24.705  0.00  0.00    -0.003 A 
ATOM     20  C   UNL     1      -4.757   2.389  24.603  0.00  0.00    +0.001 A 
ATOM     21  C   UNL     1      -4.753   1.564  24.583  0.00  0.00    +0.017 A 
ENDROOT
BRANCH   7  22
ATOM     22  C   UNL     1      -0.706   1.825  25.112  0.00  0.00    +0.381 C 
ATOM     23  O   UNL     1      -0.394   1.696  25.865  0.00  0.00    -0.244 OA
ATOM     24  OXT UNL     1      -0.202   1.905  24.464  0.00  0.00    -0.244 OA
ENDBRANCH   7  22
BRANCH   5   4
ATOM      4  C   UNL     1      -2.761   3.678  24.894  0.00  0.00    +0.022 C 
BRANCH   4   2
ATOM      1  C   UNL     1      -2.566   4.174  26.221  0.00  0.00    +0.000 C 
ATOM      2  C   UNL     1      -2.355   4.164  25.423  0.00  0.00    +0.002 C 
ATOM      3  C   UNL     1      -1.737   4.640  25.154  0.00  0.00    +0.000 C 
ENDBRANCH   4   2
ENDBRANCH   5   4
BRANCH  11  12
ATOM     12  C   UNL     1      -4.413  -0.267  24.579  0.00  0.00    +0.106 C 
BRANCH  12  13
ATOM     13  C   UNL     1      -4.154  -1.026  24.386  0.00  0.00    +0.023 C 
ATOM     14  C   UNL     1      -4.031  -1.617  23.824  0.00  0.00    +0.002 C 
ATOM     15  C   UNL     1      -3.829  -1.749  24.614  0.00  0.00    +0.002 C 
ENDBRANCH  12  13
ENDBRANCH  11  12
TORSDOF 5
ENDMDL
MODEL 3
REMARK VINA RESULT:     -11.2      1.846      4.390
REMARK  Name = 
REMARK  5 active torsions:
REMARK  status: ('A' for Active; 'I' for Inactive)
REMARK    1  A    between atoms: C_2  and  C_4
REMARK    2  A    between atoms: C_4  and  C_5
REMARK    3  A    between atoms: CA_7  and  C_22
REMARK    4  A    between atoms: N_11  and  C_12
REMARK    5  A    between atoms: C_12  and  C_13
REMARK                            x       y       z     vdW  Elec       q    Type
REMARK                         _______ _______ _______ _____ _____    ______ ____
ROOT
ATOM      5  C   UNL     1      -3.632   2.206  24.600  0.00  0.00    +0.096 C 
ATOM      6  N   UNL     1      -4.420   2.219  24.842  0.00  0.00    -0.205 NA
ATOM      7  CA  UNL     1      -4.907   1.584  25.045  0.00  0.00    +0.180 C 
ATOM      8  C   UNL     1      -4.725   0.780  25.055  0.00  0.00    +0.057 C 
ATOM      9  C   UNL     1      -4.012   0.411  24.866  0.00  0.00    -0.002 A 
ATOM     10  C   UNL     1      -3.899  -0.406  24.898  0.00  0.00    +0.072 A 
ATOM     11  N   UNL     1      -3.122  -0.566  24.671  0.00  0.00    -0.326 N 
ATOM     16  C   UNL     1      -2.754   0.152  24.498  0.00  0.00    +0.059 A 
ATOM     17  C   UNL     1      -3.304   0.756  24.618  0.00  0.00    +0.011 A 
ATOM     18  C   UNL     1      -3.136   1.555  24.500  0.00  0.00    -0.005 A 
ATOM     19  C   UNL     1      -2.326   1.724  24.236  0.00  0.00    -0.003 A 
ATOM     20  C   UNL     1      -1.776   1.121  24.115  0.00  0.00    +0.001 A 
ATOM     21  C   UNL     1      -1.990   0.335  24.247  0.00  0.00    +0.017 A 
ENDROOT
BRANCH   7  22
ATOM     22  C   UNL     1      -5.677   1.780  25.267  0.00  0.00    +0.381 C 
ATOM     23  O   UNL     1      -6.261   1.874  24.691  0.00  0.00    -0.244 OA
ATOM     24  OXT UNL     1      -5.863   1.882  26.064  0.00  0.00    -0.244 OA
ENDBRANCH   7  22
BRANCH   5   4
ATOM      4  C   UNL     1      -3.296   2.941  24.435  0.00  0.00    +0.022 C 
BRANCH   4   2
ATOM      1  C   UNL     1      -3.298   3.747  25.615  0.00  0.00    +0.000 C 
ATOM      2  C   UNL     1      -3.552   3.612  24.842  0.00  0.00    +0.002 C 
ATOM      3  C   UNL     1      -4.060   4.148  24.475  0.00  0.00    +0.000 C 
ENDBRANCH   4   2
ENDBRANCH   5   4
BRANCH  11  12
ATOM     12  C   UNL     1      -2.774  -1.312  24.625  0.00  0.00    +0.106 C 
BRANCH  12  13
ATOM     13  C   UNL     1      -3.245  -1.989  24.628  0.00  0.00    +0.023 C 
ATOM     14  C   UNL     1      -3.563  -2.636  25.029  0.00  0.00    +0.002 C 
ATOM     15  C   UNL     1      -3.742  -2.514  24.233  0.00  0.00    +0.002 C 
ENDBRANCH  12  13
ENDBRANCH  11  12
TORSDOF 5
ENDMDL
MODEL 4
REMARK VINA RESULT:     -10.8      1.779      2.662
REMARK  Name = 
REMARK  5 active torsions:
REMARK  status: ('A' for Active; 'I' for Inactive)
REMARK    1  A    between atoms: C_2  and  C_4
REMARK    2  A    between atoms: C_4  and  C_5
REMARK    3  A    between atoms: CA_7  and  C_22
REMARK    4  A    between atoms: N_11  and  C_12
REMARK    5  A    between atoms: C_12  and  C_13
REMARK                            x       y       z     vdW  Elec       q    Type
REMARK                         _______ _______ _______ _____ _____    ______ ____
ROOT
ATOM      5  C   UNL     1      -3.213   0.667  24.628  0.00  0.00    +0.096 C 
ATOM      6  N   UNL     1      -3.974   0.971  24.725  0.00  0.00    -0.205 NA
ATOM      7  CA  UNL     1      -4.200   1.738  24.928  0.00  0.00    +0.180 C 
ATOM      8  C   UNL     1      -3.720   2.391  25.084  0.00  0.00    +0.057 C 
ATOM      9  C   UNL     1      -2.897   2.438  25.076  0.00  0.00    -0.002 A 
ATOM     10  C   UNL     1      -2.479   3.129  25.243  0.00  0.00    +0.072 A 
ATOM     11  N   UNL     1      -1.673   2.963  25.180  0.00  0.00    -0.326 N 
ATOM     16  C   UNL     1      -1.593   2.168  24.974  0.00  0.00    +0.059 A 
ATOM     17  C   UNL     1      -2.349   1.843  24.909  0.00  0.00    +0.011 A 
ATOM     18  C   UNL     1      -2.491   1.055  24.710  0.00  0.00    -0.005 A 
ATOM     19  C   UNL     1      -1.778   0.579  24.569  0.00  0.00    -0.003 A 
ATOM     20  C   UNL     1      -1.022   0.903  24.634  0.00  0.00    +0.001 A 
ATOM     21  C   UNL     1      -0.930   1.698  24.836  0.00  0.00    +0.017 A 
ENDROOT
BRANCH   7  22
ATOM     22  C   UNL     1      -5.013   1.869  24.982  0.00  0.00    +0.381 C 
ATOM     23  O   UNL     1      -5.443   2.074  24.308  0.00  0.00    -0.244 OA
ATOM     24  OXT UNL     1      -5.395   1.796  25.709  0.00  0.00    -0.244 OA
ENDBRANCH   7  22
BRANCH   5   4
ATOM      4  C   UNL     1      -3.170  -0.130  24.422  0.00  0.00    +0.022 C 
BRANCH   4   2
ATOM      1  C   UNL     1      -3.710  -0.890  25.505  0.00  0.00    +0.000 C 
ATOM      2  C   UNL     1      -3.730  -0.663  24.712  0.00  0.00    +0.002 C 
ATOM      3  C   UNL     1      -4.308  -0.968  24.209  0.00  0.00    +0.000 C 
ENDBRANCH   4   2
ENDBRANCH   5   4
BRANCH  11  12
ATOM     12  C   UNL     1      -1.056   3.496  25.302  0.00  0.00    +0.106 C 
BRANCH  12  13
ATOM     13  C   UNL     1      -1.167   4.298  25.145  0.00  0.00    +0.023 C 
ATOM     14  C   UNL     1      -1.561   5.008  25.295  0.00  0.00    +0.002 C 
ATOM     15  C   UNL     1      -0.964   4.978  24.725  0.00  0.00    +0.002 C 
ENDBRANCH  12  13
ENDBRANCH  11  12
TORSDOF 5
ENDMDL
