MODEL 1
REMARK VINA RESULT:     -14.7      0.000      0.000
REMARK  Name = 
REMARK  4 active torsions:
REMARK  status: ('A' for Active; 'I' for Inactive)
REMARK    1  A    between atoms: S_2  and  C_3
REMARK    2  A    between atoms: C_6  and  C_9
REMARK    3  A    between atoms: N_17  and  S_19
REMARK    4  A    between atoms: S_19  and  C_22
REMARK                            x       y       z     vdW  Elec       q    Type
REMARK                         _______ _______ _______ _____ _____    ______ ____
ROOT
ATOM      9  C   UNL     1      -4.452   0.795  24.997  0.00  0.00    +0.056 A 
ATOM     10  C   UNL     1      -5.235   0.890  25.241  0.00  0.00    +0.006 A 
ATOM     11  C   UNL     1      -5.536   1.645  25.378  0.00  0.00    +0.013 A 
ATOM     12  C   UNL     1      -5.054   2.306  25.271  0.00  0.00    +0.041 A 
ATOM     13  C   UNL     1      -5.077   3.223  25.333  0.00  0.00    +0.056 C 
ATOM     14  C   UNL     1      -5.507   3.753  25.496  0.00  0.00    +0.011 C 
ATOM     15  C   UNL     1      -4.735   3.656  25.255  0.00  0.00    +0.041 C 
ATOM     16  C   UNL     1      -3.792   3.744  24.974  0.00  0.00    +0.098 C 
ATOM     17  N   UNL     1      -3.601   2.938  24.867  0.00  0.00    -0.155 NA
ATOM     18  C   UNL     1      -4.167   3.325  25.062  0.00  0.00    +0.102 C 
ATOM     28  C   UNL     1      -4.702   2.699  25.188  0.00  0.00    +0.110 C 
ATOM     29  N   UNL     1      -4.272   2.212  25.028  0.00  0.00    -0.299 N 
ATOM     30  C   UNL     1      -3.971   1.456  24.891  0.00  0.00    +0.261 A 
ATOM     31  O   UNL     1      -3.188   1.361  24.647  0.00  0.00    -0.267 OA
ENDROOT
BRANCH   9   6
ATOM      3  C   UNL     1      -3.551  -1.473  24.589  0.00  0.00    +0.025 A 
ATOM      4  C   UNL     1      -3.902  -1.052  23.972  0.00  0.00    +0.006 A 
ATOM      5  C   UNL     1      -4.202  -0.295  24.108  0.00  0.00    +0.001 A 
ATOM      6  C   UNL     1      -4.152   0.039  24.861  0.00  0.00    +0.005 A 
ATOM      7  C   UNL     1      -3.801  -0.382  25.477  0.00  0.00    +0.001 A 
ATOM      8  C   UNL     1      -3.500  -1.138  25.341  0.00  0.00    +0.006 A 
BRANCH   3   2
ATOM      1  C   UNL     1      -3.763  -2.872  24.393  0.00  0.00    +0.074 C 
ATOM      2  S   UNL     1      -3.250  -2.230  24.452  0.00  0.00    -0.113 S 
ENDBRANCH   3   2
ENDBRANCH   9   6
BRANCH  17  19
ATOM     19  S   UNL     1      -3.149   2.271  24.689  0.00  0.00    +0.063 S 
ATOM     20  O   UNL     1      -2.902   2.229  25.476  0.00  0.00    -0.153 OA
ATOM     21  O   UNL     1      -3.396   2.313  23.903  0.00  0.00    -0.153 OA
BRANCH  19  22
ATOM     22  C   UNL     1      -2.697   1.604  24.512  0.00  0.00    +0.122 A 
ATOM     23  C   UNL     1      -2.680   1.310  23.741  0.00  0.00    +0.020 A 
ATOM     24  C   UNL     1      -2.228   0.643  23.564  0.00  0.00    +0.001 A 
ATOM     25  C   UNL     1      -1.793   0.270  24.157  0.00  0.00    +0.000 A 
ATOM     26  C   UNL     1      -1.809   0.564  24.927  0.00  0.00    +0.001 A 
ATOM     27  C   UNL     1      -2.262   1.231  25.105  0.00  0.00    +0.020 A 
ENDBRANCH  19  22
ENDBRANCH  17  19
TORSDOF 4
ENDMDL
MODEL 2
REMARK VINA RESULT:     -14.2      1.601      3.949
REMARK  Name = 
REMARK  4 active torsions:
REMARK  status: ('A' for Active; 'I' for Inactive)
REMARK    1  A    between atoms: S_2  and  C_3
REMARK    2  A    between atoms: C_6  and  C_9
REMARK    3  A    between atoms: N_17  and  S_19
REMARK    4  A    between atoms: S_19  and  C_22
REMARK                            x       y       z     vdW  Elec       q    Type
REMARK                         _______ _______ _______ _____ _____    ______ ____
ROOT
ATOM      9  C   UNL     1      -3.519   0.126  24.321  0.00  0.00    +0.056 A 
ATOM     10  C   UNL     1      -4.234  -0.257  24.169  0.00  0.00    +0.006 A 
ATOM     11  C   UNL     1      -4.276  -1.080  24.199  0.00  0.00    +0.013 A 
ATOM     12  C   UNL     1      -3.603  -1.520  24.381  0.00  0.00    +0.041 A 
ATOM     13  C   UNL     1      -3.327  -2.390  24.489  0.00  0.00    +0.056 C 
ATOM     14  C   UNL     1      -3.564  -3.050  24.464  0.00  0.00    +0.011 C 
ATOM     15  C   UNL     1      -2.860  -2.669  24.613  0.00  0.00    +0.041 C 
ATOM     16  C   UNL     1      -1.933  -2.397  24.821  0.00  0.00    +0.098 C 
ATOM     17  N   UNL     1      -2.013  -1.568  24.762  0.00  0.00    -0.155 NA
ATOM     18  C   UNL     1      -2.426  -2.144  24.691  0.00  0.00    +0.102 C 
ATOM     28  C   UNL     1      -3.139  -1.757  24.503  0.00  0.00    +0.110 C 
ATOM     29  N   UNL     1      -2.888  -1.137  24.533  0.00  0.00    -0.299 N 
ATOM     30  C   UNL     1      -2.846  -0.314  24.503  0.00  0.00    +0.261 A 
ATOM     31  O   UNL     1      -2.131   0.069  24.654  0.00  0.00    -0.267 OA
ENDROOT
BRANCH   9   6
ATOM      3  C   UNL     1      -3.397   2.596  24.232  0.00  0.00    +0.025 A 
ATOM      4  C   UNL     1      -3.239   2.152  23.556  0.00  0.00    +0.006 A 
ATOM      5  C   UNL     1      -3.279   1.327  23.585  0.00  0.00    +0.001 A 
ATOM      6  C   UNL     1      -3.478   0.949  24.291  0.00  0.00    +0.005 A 
ATOM      7  C   UNL     1      -3.637   1.395  24.967  0.00  0.00    +0.001 A 
ATOM      8  C   UNL     1      -3.597   2.218  24.938  0.00  0.00    +0.006 A 
BRANCH   3   2
ATOM      1  C   UNL     1      -3.951   3.874  24.549  0.00  0.00    +0.074 C 
ATOM      2  S   UNL     1      -3.357   3.421  24.203  0.00  0.00    -0.113 S 
ENDBRANCH   3   2
ENDBRANCH   9   6
BRANCH  17  19
ATOM     19  S   UNL     1      -1.799  -0.771  24.774  0.00  0.00    +0.063 S 
ATOM     20  O   UNL     1      -1.999  -0.730  25.574  0.00  0.00    -0.153 OA
ATOM     21  O   UNL     1      -1.599  -0.812  23.974  0.00  0.00    -0.153 OA
BRANCH  19  22
ATOM     22  C   UNL     1      -1.584   0.026  24.786  0.00  0.00    +0.122 A 
ATOM     23  C   UNL     1      -1.638   0.456  25.488  0.00  0.00    +0.020 A 
ATOM     24  C   UNL     1      -1.423   1.253  25.500  0.00  0.00    +0.001 A 
ATOM     25  C   UNL     1      -1.156   1.619  24.811  0.00  0.00    +0.000 A 
ATOM     26  C   UNL     1      -1.102   1.188  24.110  0.00  0.00    +0.001 A 
ATOM     27  C   UNL     1      -1.317   0.391  24.097  0.00  0.00    +0.020 A 
ENDBRANCH  19  22
ENDBRANCH  17  19
TORSDOF 4
ENDMDL
MODEL 3
REMARK VINA RESULT:     -14.0      1.441      2.669
REMARK  Name = 
REMARK  4 active torsions:
REMARK  status: ('A' for Active; 'I' for Inactive)
REMARK    1  A    between atoms: S_2  and  C_3
REMARK    2  A    between atoms: C_6  and  C_9
REMARK    3  A    between atoms: N_17  and  S_19
REMARK    4  A    between atoms: S_19  and  C_22
REMARK                            x       y       z     vdW  Elec       q    Type
REMARK                         _______ _______ _______ _____ _____    ______ ____
ROOT
ATOM      9  C   UNL     1      -2.371   1.846  24.685  0.00  0.00    +0.056 A 
ATOM     10  C   UNL     1      -1.549   1.775  24.654  0.00  0.00    +0.006 A 
ATOM     11  C   UNL     1      -1.073   2.438  24.773  0.00  0.00    +0.013 A 
ATOM     12  C   UNL     1      -1.418   3.172  24.923  0.00  0.00    +0.041 A 
ATOM     13  C   UNL     1      -1.191   4.047  25.088  0.00  0.00    +0.056 C 
ATOM     14  C   UNL     1      -0.633   4.467  25.158  0.00  0.00    +0.011 C 
ATOM     15  C   UNL     1      -1.444   4.533  25.188  0.00  0.00    +0.041 C 
ATOM     16  C   UNL     1      -2.389   4.813  25.262  0.00  0.00    +0.098 C 
ATOM     17  N   UNL     1      -2.764   4.078  25.127  0.00  0.00    -0.155 NA
ATOM     18  C   UNL     1      -2.099   4.333  25.163  0.00  0.00    +0.102 C 
ATOM     28  C   UNL     1      -1.691   3.622  25.016  0.00  0.00    +0.110 C 
ATOM     29  N   UNL     1      -2.240   3.243  24.954  0.00  0.00    -0.299 N 
ATOM     30  C   UNL     1      -2.716   2.580  24.835  0.00  0.00    +0.261 A 
ATOM     31  O   UNL     1      -3.537   2.651  24.866  0.00  0.00    -0.267 OA
ENDROOT
BRANCH   9   6
ATOM      3  C   UNL     1      -3.797  -0.144  24.326  0.00  0.00    +0.025 A 
ATOM      4  C   UNL     1      -3.545   0.050  25.087  0.00  0.00    +0.006 A 
ATOM      5  C   UNL     1      -3.069   0.714  25.207  0.00  0.00    +0.001 A 
ATOM      6  C   UNL     1      -2.846   1.183  24.566  0.00  0.00    +0.005 A 
ATOM      7  C   UNL     1      -3.099   0.988  23.805  0.00  0.00    +0.001 A 
ATOM      8  C   UNL     1      -3.575   0.325  23.685  0.00  0.00    +0.006 A 
BRANCH   3   2
ATOM      1  C   UNL     1      -3.936  -1.560  24.198  0.00  0.00    +0.074 C 
ATOM      2  S   UNL     1      -4.273  -0.808  24.207  0.00  0.00    -0.113 S 
ENDBRANCH   3   2
ENDBRANCH   9   6
BRANCH  17  19
ATOM     19  S   UNL     1      -3.375   3.532  25.034  0.00  0.00    +0.063 S 
ATOM     20  O   UNL     1      -3.361   3.378  25.845  0.00  0.00    -0.153 OA
ATOM     21  O   UNL     1      -3.389   3.685  24.223  0.00  0.00    -0.153 OA
BRANCH  19  22
ATOM     22  C   UNL     1      -3.986   2.985  24.940  0.00  0.00    +0.122 A 
ATOM     23  C   UNL     1      -4.294   2.835  24.190  0.00  0.00    +0.020 A 
ATOM     24  C   UNL     1      -4.905   2.288  24.097  0.00  0.00    +0.001 A 
ATOM     25  C   UNL     1      -5.207   1.892  24.754  0.00  0.00    +0.000 A 
ATOM     26  C   UNL     1      -4.899   2.041  25.504  0.00  0.00    +0.001 A 
ATOM     27  C   UNL     1      -4.288   2.588  25.598  0.00  0.00    +0.020 A 
ENDBRANCH  19  22
ENDBRANCH  17  19
TORSDOF 4
ENDMDL
MODEL 4
REMARK VINA RESULT:     -14.0      1.759      2.904
REMARK  Name = 
REMARK  4 active torsions:
REMARK  status: ('A' for Active; 'I' for Inactive)
REMARK    1  A    between atoms: S_2  and  C_3
REMARK    2  A    between atoms: C_6  and  C_9
REMARK    3  A    between atoms: N_17  and  S_19
REMARK    4  A    between atoms: S_19  and  C_22
REMARK                            x       y       z     vdW  Elec       q    Type
REMARK                         _______ _______ _______ _____ _____    ______ ____
ROOT
ATOM      9  C   UNL     1      -3.113   1.844  24.763  0.00  0.00    +0.056 A 
ATOM     10  C   UNL     1      -3.481   1.128  24.582  0.00  0.00    +0.006 A 
ATOM     11  C   UNL     1      -4.299   1.054  24.660  0.00  0.00    +0.013 A 
ATOM     12  C   UNL     1      -4.748   1.695  24.919  0.00  0.00    +0.041 A 
ATOM     13  C   UNL     1      -5.618   1.930  25.102  0.00  0.00    +0.056 C 
ATOM     14  C   UNL     1      -6.270   1.670  25.100  0.00  0.00    +0.011 C 
ATOM     15  C   UNL     1      -5.903   2.376  25.278  0.00  0.00    +0.041 C 
ATOM     16  C   UNL     1      -5.649   3.294  25.538  0.00  0.00    +0.098 C 
ATOM     17  N   UNL     1      -4.823   3.249  25.421  0.00  0.00    -0.155 NA
ATOM     18  C   UNL     1      -5.388   2.821  25.356  0.00  0.00    +0.102 C 
ATOM     28  C   UNL     1      -4.991   2.139  25.090  0.00  0.00    +0.110 C 
ATOM     29  N   UNL     1      -4.380   2.411  25.100  0.00  0.00    -0.299 N 
ATOM     30  C   UNL     1      -3.562   2.485  25.022  0.00  0.00    +0.261 A 
ATOM     31  O   UNL     1      -3.193   3.201  25.203  0.00  0.00    -0.267 OA
ENDROOT
BRANCH   9   6
ATOM      3  C   UNL     1      -0.659   2.063  24.530  0.00  0.00    +0.025 A 
ATOM      4  C   UNL     1      -1.151   2.244  23.893  0.00  0.00    +0.006 A 
ATOM      5  C   UNL     1      -1.970   2.171  23.971  0.00  0.00    +0.001 A 
ATOM      6  C   UNL     1      -2.295   1.917  24.685  0.00  0.00    +0.005 A 
ATOM      7  C   UNL     1      -1.802   1.736  25.322  0.00  0.00    +0.001 A 
ATOM      8  C   UNL     1      -0.984   1.809  25.244  0.00  0.00    +0.006 A 
BRANCH   3   2
ATOM      1  C   UNL     1       0.600   1.518  24.131  0.00  0.00    +0.074 C 
ATOM      2  S   UNL     1       0.160   2.136  24.452  0.00  0.00    -0.113 S 
ENDBRANCH   3   2
ENDBRANCH   9   6
BRANCH  17  19
ATOM     19  S   UNL     1      -4.034   3.492  25.400  0.00  0.00    +0.063 S 
ATOM     20  O   UNL     1      -4.129   3.733  24.616  0.00  0.00    -0.153 OA
ATOM     21  O   UNL     1      -3.939   3.251  26.184  0.00  0.00    -0.153 OA
BRANCH  19  22
ATOM     22  C   UNL     1      -3.245   3.734  25.379  0.00  0.00    +0.122 A 
ATOM     23  C   UNL     1      -2.934   4.064  24.690  0.00  0.00    +0.020 A 
ATOM     24  C   UNL     1      -2.145   4.307  24.669  0.00  0.00    +0.001 A 
ATOM     25  C   UNL     1      -1.669   4.218  25.337  0.00  0.00    +0.000 A 
ATOM     26  C   UNL     1      -1.980   3.888  26.025  0.00  0.00    +0.001 A 
ATOM     27  C   UNL     1      -2.769   3.646  26.046  0.00  0.00    +0.020 A 
ENDBRANCH  19  22
ENDBRANCH  17  19
TORSDOF 4
ENDMDL
MODEL 5
REMARK VINA RESULT:     -13.9      1.065      2.237
REMARK  Name = 
REMARK  4 active torsions:
REMARK  status: ('A' for Active; 'I' for Inactive)
REMARK    1  A    between atoms: S_2  and  C_3
REMARK    2  A    between atoms: C_6  and  C_9
REMARK    3  A    between atoms: N_17  and  S_19
REMARK    4  A    between atoms: S_19  and  C_22
REMARK                            x       y       z     vdW  Elec       q    Type
REMARK                         _______ _______ _______ _____ _____    ______ ____
ROOT
ATOM      9  C   UNL     1      -2.871   1.508  24.910  0.00  0.00    +0.056 A 
ATOM     10  C   UNL     1      -2.662   2.302  24.996  0.00  0.00    +0.006 A 
ATOM     11  C   UNL     1      -3.247   2.873  25.109  0.00  0.00    +0.013 A 
ATOM     12  C   UNL     1      -4.041   2.650  25.136  0.00  0.00    +0.041 A 
ATOM     13  C   UNL     1      -4.880   3.010  25.239  0.00  0.00    +0.056 C 
ATOM     14  C   UNL     1      -5.207   3.622  25.340  0.00  0.00    +0.011 C 
ATOM     15  C   UNL     1      -5.410   2.838  25.255  0.00  0.00    +0.041 C 
ATOM     16  C   UNL     1      -5.849   1.956  25.173  0.00  0.00    +0.098 C 
ATOM     17  N   UNL     1      -5.175   1.474  25.066  0.00  0.00    -0.155 NA
ATOM     18  C   UNL     1      -5.318   2.165  25.163  0.00  0.00    +0.102 C 
ATOM     28  C   UNL     1      -4.537   2.453  25.145  0.00  0.00    +0.110 C 
ATOM     29  N   UNL     1      -4.249   1.856  25.050  0.00  0.00    -0.299 N 
ATOM     30  C   UNL     1      -3.665   1.285  24.937  0.00  0.00    +0.261 A 
ATOM     31  O   UNL     1      -3.873   0.492  24.851  0.00  0.00    -0.267 OA
ENDROOT
BRANCH   9   6
ATOM      3  C   UNL     1      -1.115  -0.202  24.570  0.00  0.00    +0.025 A 
ATOM      4  C   UNL     1      -1.361  -0.011  25.334  0.00  0.00    +0.006 A 
ATOM      5  C   UNL     1      -1.947   0.560  25.447  0.00  0.00    +0.001 A 
ATOM      6  C   UNL     1      -2.286   0.938  24.797  0.00  0.00    +0.005 A 
ATOM      7  C   UNL     1      -2.039   0.747  24.034  0.00  0.00    +0.001 A 
ATOM      8  C   UNL     1      -1.453   0.177  23.920  0.00  0.00    +0.006 A 
BRANCH   3   2
ATOM      1  C   UNL     1       0.128  -0.600  23.989  0.00  0.00    +0.074 C 
ATOM      2  S   UNL     1      -0.529  -0.772  24.456  0.00  0.00    -0.113 S 
ENDBRANCH   3   2
ENDBRANCH   9   6
BRANCH  17  19
ATOM     19  S   UNL     1      -4.729   0.789  24.948  0.00  0.00    +0.063 S 
ATOM     20  O   UNL     1      -4.697   0.670  25.764  0.00  0.00    -0.153 OA
ATOM     21  O   UNL     1      -4.761   0.909  24.132  0.00  0.00    -0.153 OA
BRANCH  19  22
ATOM     22  C   UNL     1      -4.283   0.105  24.831  0.00  0.00    +0.122 A 
ATOM     23  C   UNL     1      -4.113  -0.150  24.065  0.00  0.00    +0.020 A 
ATOM     24  C   UNL     1      -3.668  -0.835  23.947  0.00  0.00    +0.001 A 
ATOM     25  C   UNL     1      -3.392  -1.263  24.596  0.00  0.00    +0.000 A 
ATOM     26  C   UNL     1      -3.562  -1.009  25.361  0.00  0.00    +0.001 A 
ATOM     27  C   UNL     1      -4.008  -0.324  25.479  0.00  0.00    +0.020 A 
ENDBRANCH  19  22
ENDBRANCH  17  19
TORSDOF 4
ENDMDL
MODEL 6
REMARK VINA RESULT:     -13.8      1.468      3.965
REMARK  Name = 
REMARK  4 active torsions:
REMARK  status: ('A' for Active; 'I' for Inactive)
REMARK    1  A    between atoms: S_2  and  C_3
REMARK    2  A    between atoms: C_6  and  C_9
REMARK    3  A    between atoms: N_17  and  S_19
REMARK    4  A    between atoms: S_19  and  C_22
REMARK                            x       y       z     vdW  Elec       q    Type
REMARK                         _______ _______ _______ _____ _____    ______ ____
ROOT
ATOM      9  C   UNL     1      -2.116   1.145  25.055  0.00  0.00    +0.056 A 
ATOM     10  C   UNL     1      -1.567   0.603  25.346  0.00  0.00    +0.006 A 
ATOM     11  C   UNL     1      -1.747  -0.202  25.357  0.00  0.00    +0.013 A 
ATOM     12  C   UNL     1      -2.477  -0.465  25.077  0.00  0.00    +0.041 A 
ATOM     13  C   UNL     1      -2.959  -1.238  24.957  0.00  0.00    +0.056 C 
ATOM     14  C   UNL     1      -2.918  -1.932  25.050  0.00  0.00    +0.011 C 
ATOM     15  C   UNL     1      -3.458  -1.394  24.763  0.00  0.00    +0.041 C 
ATOM     16  C   UNL     1      -4.230  -0.908  24.383  0.00  0.00    +0.098 C 
ATOM     17  N   UNL     1      -3.937  -0.127  24.422  0.00  0.00    -0.155 NA
ATOM     18  C   UNL     1      -3.714  -0.782  24.588  0.00  0.00    +0.102 C 
ATOM     28  C   UNL     1      -2.962  -0.581  24.884  0.00  0.00    +0.110 C 
ATOM     29  N   UNL     1      -3.026   0.078  24.785  0.00  0.00    -0.299 N 
ATOM     30  C   UNL     1      -2.846   0.883  24.774  0.00  0.00    +0.261 A 
ATOM     31  O   UNL     1      -3.395   1.425  24.483  0.00  0.00    -0.267 OA
ENDROOT
BRANCH   9   6
ATOM      3  C   UNL     1      -1.571   3.559  25.021  0.00  0.00    +0.025 A 
ATOM      4  C   UNL     1      -1.941   3.229  25.681  0.00  0.00    +0.006 A 
ATOM      5  C   UNL     1      -2.123   2.424  25.692  0.00  0.00    +0.001 A 
ATOM      6  C   UNL     1      -1.935   1.949  25.044  0.00  0.00    +0.005 A 
ATOM      7  C   UNL     1      -1.564   2.280  24.385  0.00  0.00    +0.001 A 
ATOM      8  C   UNL     1      -1.383   3.084  24.373  0.00  0.00    +0.006 A 
BRANCH   3   2
ATOM      1  C   UNL     1      -0.603   4.608  24.963  0.00  0.00    +0.074 C 
ATOM      2  S   UNL     1      -1.389   4.364  25.010  0.00  0.00    -0.113 S 
ENDBRANCH   3   2
ENDBRANCH   9   6
BRANCH  17  19
ATOM     19  S   UNL     1      -3.921   0.694  24.340  0.00  0.00    +0.063 S 
ATOM     20  O   UNL     1      -4.253   0.776  25.091  0.00  0.00    -0.153 OA
ATOM     21  O   UNL     1      -3.588   0.613  23.589  0.00  0.00    -0.153 OA
BRANCH  19  22
ATOM     22  C   UNL     1      -3.904   1.516  24.258  0.00  0.00    +0.122 A 
ATOM     23  C   UNL     1      -3.606   1.855  23.568  0.00  0.00    +0.020 A 
ATOM     24  C   UNL     1      -3.590   2.676  23.485  0.00  0.00    +0.001 A 
ATOM     25  C   UNL     1      -3.872   3.156  24.093  0.00  0.00    +0.000 A 
ATOM     26  C   UNL     1      -4.170   2.817  24.783  0.00  0.00    +0.001 A 
ATOM     27  C   UNL     1      -4.186   1.996  24.866  0.00  0.00    +0.020 A 
ENDBRANCH  19  22
ENDBRANCH  17  19
TORSDOF 4
ENDMDL
