MODEL 1
REMARK VINA RESULT:      -9.4      0.000      0.000
REMARK  Name = 
REMARK  10 active torsions:
REMARK  status: ('A' for Active; 'I' for Inactive)
REMARK    1  A    between atoms: O_2  and  C_3
REMARK    2  A    between atoms: C_3  and  C_4
REMARK    3  A    between atoms: C_4  and  O_5
REMARK    4  A    between atoms: O_5  and  C_6
REMARK    5  A    between atoms: C_9  and  C_12
REMARK    6  A    between atoms: C_15  and  C_17
REMARK    7  A    between atoms: N_21  and  C_22
REMARK    8  A    between atoms: C_22  and  C_23
REMARK    9  A    between atoms: C_26  and  O_27
REMARK   10  A    between atoms: O_27  and  C_28
REMARK                            x       y       z     vdW  Elec       q    Type
REMARK                         _______ _______ _______ _____ _____    ______ ____
ROOT
ATOM     17  C   UNL     1      -2.802  -1.121  24.523  0.00  0.00    +0.138 C 
ATOM     18  C   UNL     1      -3.162  -1.804  24.233  0.00  0.00    +0.027 C 
ATOM     19  C   UNL     1      -3.979  -1.697  24.267  0.00  0.00    +0.019 C 
ATOM     20  C   UNL     1      -4.124  -0.946  24.579  0.00  0.00    +0.073 C 
ATOM     21  N   UNL     1      -3.397  -0.591  24.737  0.00  0.00    -0.263 NA
ENDROOT
BRANCH  17  15
ATOM     12  C   UNL     1      -0.735  -0.633  24.306  0.00  0.00    +0.205 A 
ATOM     13  N   UNL     1      -0.745  -0.949  25.068  0.00  0.00    -0.056 NA
ATOM     14  O   UNL     1      -1.521  -1.171  25.242  0.00  0.00    -0.336 OA
ATOM     15  C   UNL     1      -1.990  -0.991  24.588  0.00  0.00    +0.251 A 
ATOM     16  N   UNL     1      -1.504  -0.659  24.009  0.00  0.00    -0.190 NA
BRANCH  12   9
ATOM      6  C   UNL     1       1.254   0.241  23.119  0.00  0.00    +0.225 A 
ATOM      7  C   UNL     1       0.759   0.756  23.532  0.00  0.00    +0.058 A 
ATOM      8  C   UNL     1       0.096   0.465  23.927  0.00  0.00    +0.010 A 
ATOM      9  C   UNL     1      -0.072  -0.342  23.910  0.00  0.00    +0.058 A 
ATOM     10  C   UNL     1       0.421  -0.858  23.498  0.00  0.00    +0.105 A 
ATOM     11  N   UNL     1       1.084  -0.567  23.103  0.00  0.00    -0.210 NA
BRANCH   6   5
ATOM      5  O   UNL     1       1.917   0.532  22.724  0.00  0.00    -0.457 OA
BRANCH   5   4
ATOM      4  C   UNL     1       2.665   0.455  23.063  0.00  0.00    +0.239 C 
BRANCH   4   3
ATOM      3  C   UNL     1       3.332   0.713  22.651  0.00  0.00    +0.189 C 
BRANCH   3   2
ATOM      1  C   UNL     1       4.691   0.545  23.059  0.00  0.00    +0.174 C 
ATOM      2  O   UNL     1       3.993   0.984  23.064  0.00  0.00    -0.347 OA
ENDBRANCH   3   2
ENDBRANCH   4   3
ENDBRANCH   5   4
ENDBRANCH   6   5
ENDBRANCH  12   9
ENDBRANCH  17  15
BRANCH  21  22
ATOM     22  C   UNL     1      -3.284   0.163  25.054  0.00  0.00    +0.099 C 
BRANCH  22  23
ATOM     23  C   UNL     1      -3.886   0.724  25.007  0.00  0.00    -0.006 A 
ATOM     24  C   UNL     1      -3.830   1.346  24.467  0.00  0.00    +0.000 A 
ATOM     25  C   UNL     1      -4.432   1.908  24.420  0.00  0.00    +0.037 A 
ATOM     26  C   UNL     1      -5.091   1.848  24.913  0.00  0.00    +0.147 A 
ATOM     32  C   UNL     1      -5.147   1.226  25.453  0.00  0.00    +0.037 A 
ATOM     33  C   UNL     1      -4.545   0.665  25.500  0.00  0.00    +0.000 A 
BRANCH  26  27
ATOM     27  O   UNL     1      -5.693   2.410  24.866  0.00  0.00    -0.404 OA
BRANCH  27  28
ATOM     28  C   UNL     1      -5.684   3.066  25.366  0.00  0.00    +0.575 C 
ATOM     29  F   UNL     1      -5.674   3.723  25.865  0.00  0.00    -0.133 F 
ATOM     30  F   UNL     1      -6.132   2.651  25.920  0.00  0.00    -0.133 F 
ATOM     31  F   UNL     1      -5.236   3.481  24.811  0.00  0.00    -0.133 F 
ENDBRANCH  27  28
ENDBRANCH  26  27
ENDBRANCH  22  23
ENDBRANCH  21  22
TORSDOF 10
ENDMDL
MODEL 2
REMARK VINA RESULT:      -8.9      2.443      4.161
REMARK  Name = 
REMARK  10 active torsions:
REMARK  status: ('A' for Active; 'I' for Inactive)
REMARK    1  A    between atoms: O_2  and  C_3
REMARK    2  A    between atoms: C_3  and  C_4
REMARK    3  A    between atoms: C_4  and  O_5
REMARK    4  A    between atoms: O_5  and  C_6
REMARK    5  A    between atoms: C_9  and  C_12
REMARK    6  A    between atoms: C_15  and  C_17
REMARK    7  A    between atoms: N_21  and  C_22
REMARK    8  A    between atoms: C_22  and  C_23
REMARK    9  A    between atoms: C_26  and  O_27
REMARK   10  A    between atoms: O_27  and  C_28
REMARK                            x       y       z     vdW  Elec       q    Type
REMARK                         _______ _______ _______ _____ _____    ______ ____
ROOT
ATOM     17  C   UNL     1      -0.825   3.775  25.118  0.00  0.00    +0.138 C 
ATOM     18  C   UNL     1      -0.497   4.412  24.709  0.00  0.00    +0.027 C 
ATOM     19  C   UNL     1      -1.008   5.055  24.784  0.00  0.00    +0.019 C 
ATOM     20  C   UNL     1      -1.653   4.816  25.241  0.00  0.00    +0.073 C 
ATOM     21  N   UNL     1      -1.540   4.025  25.447  0.00  0.00    -0.263 NA
ENDROOT
BRANCH  17  15
ATOM     12  C   UNL     1      -0.333   1.698  25.125  0.00  0.00    +0.205 A 
ATOM     13  N   UNL     1       0.349   2.025  25.457  0.00  0.00    -0.056 NA
ATOM     14  O   UNL     1       0.247   2.843  25.494  0.00  0.00    -0.336 OA
ATOM     15  C   UNL     1      -0.497   3.022  25.186  0.00  0.00    +0.251 A 
ATOM     16  N   UNL     1      -0.856   2.314  24.958  0.00  0.00    -0.190 NA
BRANCH  12   9
ATOM      6  C   UNL     1      -0.739  -0.707  24.707  0.00  0.00    +0.225 A 
ATOM      7  C   UNL     1      -0.940  -0.375  25.435  0.00  0.00    +0.058 A 
ATOM      8  C   UNL     1      -0.805   0.427  25.574  0.00  0.00    +0.010 A 
ATOM      9  C   UNL     1      -0.468   0.897  24.986  0.00  0.00    +0.058 A 
ATOM     10  C   UNL     1      -0.266   0.565  24.258  0.00  0.00    +0.105 A 
ATOM     11  N   UNL     1      -0.401  -0.237  24.118  0.00  0.00    -0.210 NA
BRANCH   6   5
ATOM      5  O   UNL     1      -0.874  -1.509  24.568  0.00  0.00    -0.457 OA
BRANCH   5   4
ATOM      4  C   UNL     1      -1.602  -1.844  24.762  0.00  0.00    +0.239 C 
BRANCH   4   3
ATOM      3  C   UNL     1      -1.893  -2.480  24.324  0.00  0.00    +0.189 C 
BRANCH   3   2
ATOM      1  C   UNL     1      -3.277  -2.836  24.307  0.00  0.00    +0.174 C 
ATOM      2  O   UNL     1      -2.518  -2.931  24.617  0.00  0.00    -0.347 OA
ENDBRANCH   3   2
ENDBRANCH   4   3
ENDBRANCH   5   4
ENDBRANCH   6   5
ENDBRANCH  12   9
ENDBRANCH  17  15
BRANCH  21  22
ATOM     22  C   UNL     1      -2.051   3.565  25.902  0.00  0.00    +0.099 C 
BRANCH  22  23
ATOM     23  C   UNL     1      -2.865   3.603  25.773  0.00  0.00    -0.006 A 
ATOM     24  C   UNL     1      -3.351   3.989  26.316  0.00  0.00    +0.000 A 
ATOM     25  C   UNL     1      -4.166   4.026  26.187  0.00  0.00    +0.037 A 
ATOM     26  C   UNL     1      -4.493   3.678  25.515  0.00  0.00    +0.147 A 
ATOM     32  C   UNL     1      -4.006   3.292  24.972  0.00  0.00    +0.037 A 
ATOM     33  C   UNL     1      -3.193   3.254  25.101  0.00  0.00    +0.000 A 
BRANCH  26  27
ATOM     27  O   UNL     1      -5.307   3.715  25.386  0.00  0.00    -0.404 OA
BRANCH  27  28
ATOM     28  C   UNL     1      -5.771   3.039  25.480  0.00  0.00    +0.575 C 
ATOM     29  F   UNL     1      -6.234   2.363  25.571  0.00  0.00    -0.133 F 
ATOM     30  F   UNL     1      -5.859   3.210  26.281  0.00  0.00    -0.133 F 
ATOM     31  F   UNL     1      -5.681   2.868  24.677  0.00  0.00    -0.133 F 
ENDBRANCH  27  28
ENDBRANCH  26  27
ENDBRANCH  22  23
ENDBRANCH  21  22
TORSDOF 10
ENDMDL
MODEL 3
REMARK VINA RESULT:      -8.7      3.135      4.796
REMARK  Name = 
REMARK  10 active torsions:
REMARK  status: ('A' for Active; 'I' for Inactive)
REMARK    1  A    between atoms: O_2  and  C_3
REMARK    2  A    between atoms: C_3  and  C_4
REMARK    3  A    between atoms: C_4  and  O_5
REMARK    4  A    between atoms: O_5  and  C_6
REMARK    5  A    between atoms: C_9  and  C_12
REMARK    6  A    between atoms: C_15  and  C_17
REMARK    7  A    between atoms: N_21  and  C_22
REMARK    8  A    between atoms: C_22  and  C_23
REMARK    9  A    between atoms: C_26  and  O_27
REMARK   10  A    between atoms: O_27  and  C_28
REMARK                            x       y       z     vdW  Elec       q    Type
REMARK                         _______ _______ _______ _____ _____    ______ ____
ROOT
ATOM     17  C   UNL     1      -5.241   2.405  25.306  0.00  0.00    +0.138 C 
ATOM     18  C   UNL     1      -5.886   2.736  25.700  0.00  0.00    +0.027 C 
ATOM     19  C   UNL     1      -5.711   3.526  25.859  0.00  0.00    +0.019 C 
ATOM     20  C   UNL     1      -4.957   3.684  25.563  0.00  0.00    +0.073 C 
ATOM     21  N   UNL     1      -4.666   2.991  25.222  0.00  0.00    -0.263 NA
ENDROOT
BRANCH  17  15
ATOM     12  C   UNL     1      -4.726   0.388  24.835  0.00  0.00    +0.205 A 
ATOM     13  N   UNL     1      -5.449   0.463  24.443  0.00  0.00    -0.056 NA
ATOM     14  O   UNL     1      -5.729   1.229  24.572  0.00  0.00    -0.336 OA
ATOM     15  C   UNL     1      -5.181   1.626  25.044  0.00  0.00    +0.251 A 
ATOM     16  N   UNL     1      -4.561   1.105  25.206  0.00  0.00    -0.190 NA
BRANCH  12   9
ATOM      6  C   UNL     1      -3.307  -1.639  24.889  0.00  0.00    +0.225 A 
ATOM      7  C   UNL     1      -3.606  -1.363  24.171  0.00  0.00    +0.058 A 
ATOM      8  C   UNL     1      -4.079  -0.688  24.154  0.00  0.00    +0.010 A 
ATOM      9  C   UNL     1      -4.253  -0.288  24.853  0.00  0.00    +0.058 A 
ATOM     10  C   UNL     1      -3.954  -0.563  25.572  0.00  0.00    +0.105 A 
ATOM     11  N   UNL     1      -3.481  -1.239  25.589  0.00  0.00    -0.210 NA
BRANCH   6   5
ATOM      5  O   UNL     1      -2.833  -2.315  24.906  0.00  0.00    -0.457 OA
BRANCH   5   4
ATOM      4  C   UNL     1      -2.075  -2.295  24.581  0.00  0.00    +0.239 C 
BRANCH   4   3
ATOM      3  C   UNL     1      -1.441  -2.621  24.996  0.00  0.00    +0.189 C 
BRANCH   3   2
ATOM      1  C   UNL     1      -0.109  -2.177  25.267  0.00  0.00    +0.174 C 
ATOM      2  O   UNL     1      -0.668  -2.484  24.743  0.00  0.00    -0.347 OA
ENDBRANCH   3   2
ENDBRANCH   4   3
ENDBRANCH   5   4
ENDBRANCH   6   5
ENDBRANCH  12   9
ENDBRANCH  17  15
BRANCH  21  22
ATOM     22  C   UNL     1      -3.931   2.901  24.859  0.00  0.00    +0.099 C 
BRANCH  22  23
ATOM     23  C   UNL     1      -3.321   3.430  25.026  0.00  0.00    -0.006 A 
ATOM     24  C   UNL     1      -2.805   3.282  25.652  0.00  0.00    +0.000 A 
ATOM     25  C   UNL     1      -2.195   3.812  25.819  0.00  0.00    +0.037 A 
ATOM     26  C   UNL     1      -2.101   4.490  25.358  0.00  0.00    +0.147 A 
ATOM     32  C   UNL     1      -2.616   4.638  24.732  0.00  0.00    +0.037 A 
ATOM     33  C   UNL     1      -3.226   4.109  24.566  0.00  0.00    +0.000 A 
BRANCH  26  27
ATOM     27  O   UNL     1      -1.490   5.020  25.525  0.00  0.00    -0.404 OA
BRANCH  27  28
ATOM     28  C   UNL     1      -0.898   5.155  24.967  0.00  0.00    +0.575 C 
ATOM     29  F   UNL     1      -0.307   5.291  24.408  0.00  0.00    -0.133 F 
ATOM     30  F   UNL     1      -0.523   4.457  25.195  0.00  0.00    -0.133 F 
ATOM     31  F   UNL     1      -1.274   5.853  24.738  0.00  0.00    -0.133 F 
ENDBRANCH  27  28
ENDBRANCH  26  27
ENDBRANCH  22  23
ENDBRANCH  21  22
TORSDOF 10
ENDMDL
MODEL 4
REMARK VINA RESULT:      -8.5      3.544      4.513
REMARK  Name = 
REMARK  10 active torsions:
REMARK  status: ('A' for Active; 'I' for Inactive)
REMARK    1  A    between atoms: O_2  and  C_3
REMARK    2  A    between atoms: C_3  and  C_4
REMARK    3  A    between atoms: C_4  and  O_5
REMARK    4  A    between atoms: O_5  and  C_6
REMARK    5  A    between atoms: C_9  and  C_12
REMARK    6  A    between atoms: C_15  and  C_17
REMARK    7  A    between atoms: N_21  and  C_22
REMARK    8  A    between atoms: C_22  and  C_23
REMARK    9  A    between atoms: C_26  and  O_27
REMARK   10  A    between atoms: O_27  and  C_28
REMARK                            x       y       z     vdW  Elec       q    Type
REMARK                         _______ _______ _______ _____ _____    ______ ____
ROOT
ATOM     17  C   UNL     1      -4.024   2.014  24.780  0.00  0.00    +0.138 C 
ATOM     18  C   UNL     1      -4.716   2.373  25.051  0.00  0.00    +0.027 C 
ATOM     19  C   UNL     1      -5.337   1.842  24.945  0.00  0.00    +0.019 C 
ATOM     20  C   UNL     1      -5.030   1.153  24.609  0.00  0.00    +0.073 C 
ATOM     21  N   UNL     1      -4.218   1.260  24.508  0.00  0.00    -0.263 NA
ENDROOT
BRANCH  17  15
ATOM     12  C   UNL     1      -2.017   2.654  25.128  0.00  0.00    +0.205 A 
ATOM     13  N   UNL     1      -2.204   3.079  24.446  0.00  0.00    -0.056 NA
ATOM     14  O   UNL     1      -2.979   2.891  24.233  0.00  0.00    -0.336 OA
ATOM     15  C   UNL     1      -3.270   2.350  24.783  0.00  0.00    +0.251 A 
ATOM     16  N   UNL     1      -2.676   2.203  25.336  0.00  0.00    -0.190 NA
BRANCH  12   9
ATOM      6  C   UNL     1       0.142   2.719  26.336  0.00  0.00    +0.225 A 
ATOM      7  C   UNL     1      -0.193   1.995  26.127  0.00  0.00    +0.058 A 
ATOM      8  C   UNL     1      -0.912   1.973  25.725  0.00  0.00    +0.010 A 
ATOM      9  C   UNL     1      -1.297   2.676  25.531  0.00  0.00    +0.058 A 
ATOM     10  C   UNL     1      -0.963   3.401  25.739  0.00  0.00    +0.105 A 
ATOM     11  N   UNL     1      -0.244   3.423  26.142  0.00  0.00    -0.210 NA
BRANCH   6   5
ATOM      5  O   UNL     1       0.862   2.741  26.739  0.00  0.00    -0.457 OA
BRANCH   5   4
ATOM      4  C   UNL     1       0.879   2.642  27.558  0.00  0.00    +0.239 C 
BRANCH   4   3
ATOM      3  C   UNL     1       1.594   2.700  27.965  0.00  0.00    +0.189 C 
BRANCH   3   2
ATOM      1  C   UNL     1       2.328   2.648  29.190  0.00  0.00    +0.174 C 
ATOM      2  O   UNL     1       1.609   2.623  28.786  0.00  0.00    -0.347 OA
ENDBRANCH   3   2
ENDBRANCH   4   3
ENDBRANCH   5   4
ENDBRANCH   6   5
ENDBRANCH  12   9
ENDBRANCH  17  15
BRANCH  21  22
ATOM     22  C   UNL     1      -3.693   0.709  24.189  0.00  0.00    +0.099 C 
BRANCH  22  23
ATOM     23  C   UNL     1      -3.817  -0.097  24.310  0.00  0.00    -0.006 A 
ATOM     24  C   UNL     1      -3.623  -0.440  25.034  0.00  0.00    +0.000 A 
ATOM     25  C   UNL     1      -3.747  -1.247  25.155  0.00  0.00    +0.037 A 
ATOM     26  C   UNL     1      -4.065  -1.710  24.551  0.00  0.00    +0.147 A 
ATOM     32  C   UNL     1      -4.259  -1.367  23.827  0.00  0.00    +0.037 A 
ATOM     33  C   UNL     1      -4.135  -0.561  23.706  0.00  0.00    +0.000 A 
BRANCH  26  27
ATOM     27  O   UNL     1      -4.189  -2.517  24.672  0.00  0.00    -0.404 OA
BRANCH  27  28
ATOM     28  C   UNL     1      -3.603  -3.060  24.465  0.00  0.00    +0.575 C 
ATOM     29  F   UNL     1      -3.017  -3.601  24.258  0.00  0.00    -0.133 F 
ATOM     30  F   UNL     1      -3.924  -3.117  23.708  0.00  0.00    -0.133 F 
ATOM     31  F   UNL     1      -3.282  -3.002  25.223  0.00  0.00    -0.133 F 
ENDBRANCH  27  28
ENDBRANCH  26  27
ENDBRANCH  22  23
ENDBRANCH  21  22
TORSDOF 10
ENDMDL
MODEL 5
REMARK VINA RESULT:      -8.3      2.732      5.648
REMARK  Name = 
REMARK  10 active torsions:
REMARK  status: ('A' for Active; 'I' for Inactive)
REMARK    1  A    between atoms: O_2  and  C_3
REMARK    2  A    between atoms: C_3  and  C_4
REMARK    3  A    between atoms: C_4  and  O_5
REMARK    4  A    between atoms: O_5  and  C_6
REMARK    5  A    between atoms: C_9  and  C_12
REMARK    6  A    between atoms: C_15  and  C_17
REMARK    7  A    between atoms: N_21  and  C_22
REMARK    8  A    between atoms: C_22  and  C_23
REMARK    9  A    between atoms: C_26  and  O_27
REMARK   10  A    between atoms: O_27  and  C_28
REMARK                            x       y       z     vdW  Elec       q    Type
REMARK                         _______ _______ _______ _____ _____    ______ ____
ROOT
ATOM     17  C   UNL     1       0.068   0.655  23.982  0.00  0.00    +0.138 C 
ATOM     18  C   UNL     1       0.585   0.601  23.341  0.00  0.00    +0.027 C 
ATOM     19  C   UNL     1       0.698  -0.198  23.172  0.00  0.00    +0.019 C 
ATOM     20  C   UNL     1       0.251  -0.638  23.707  0.00  0.00    +0.073 C 
ATOM     21  N   UNL     1      -0.139  -0.111  24.208  0.00  0.00    -0.263 NA
ENDROOT
BRANCH  17  15
ATOM     12  C   UNL     1      -0.989   2.339  24.760  0.00  0.00    +0.205 A 
ATOM     13  N   UNL     1      -0.217   2.515  24.992  0.00  0.00    -0.056 NA
ATOM     14  O   UNL     1       0.273   1.905  24.729  0.00  0.00    -0.336 OA
ATOM     15  C   UNL     1      -0.196   1.353  24.334  0.00  0.00    +0.251 A 
ATOM     16  N   UNL     1      -0.976   1.621  24.354  0.00  0.00    -0.190 NA
BRANCH  12   9
ATOM      6  C   UNL     1      -2.992   3.723  25.206  0.00  0.00    +0.225 A 
ATOM      7  C   UNL     1      -2.436   3.597  25.802  0.00  0.00    +0.058 A 
ATOM      8  C   UNL     1      -1.769   3.135  25.654  0.00  0.00    +0.010 A 
ATOM      9  C   UNL     1      -1.657   2.800  24.909  0.00  0.00    +0.058 A 
ATOM     10  C   UNL     1      -2.212   2.926  24.311  0.00  0.00    +0.105 A 
ATOM     11  N   UNL     1      -2.879   3.388  24.460  0.00  0.00    -0.210 NA
BRANCH   6   5
ATOM      5  O   UNL     1      -3.659   4.185  25.354  0.00  0.00    -0.457 OA
BRANCH   5   4
ATOM      4  C   UNL     1      -4.332   3.842  25.688  0.00  0.00    +0.239 C 
BRANCH   4   3
ATOM      3  C   UNL     1      -5.082   4.088  25.449  0.00  0.00    +0.189 C 
BRANCH   3   2
ATOM      1  C   UNL     1      -6.058   3.077  25.710  0.00  0.00    +0.174 C 
ATOM      2  O   UNL     1      -5.751   3.829  25.856  0.00  0.00    -0.347 OA
ENDBRANCH   3   2
ENDBRANCH   4   3
ENDBRANCH   5   4
ENDBRANCH   6   5
ENDBRANCH  12   9
ENDBRANCH  17  15
BRANCH  21  22
ATOM     22  C   UNL     1      -0.646  -0.314  24.827  0.00  0.00    +0.099 C 
BRANCH  22  23
ATOM     23  C   UNL     1      -1.132  -0.976  24.761  0.00  0.00    -0.006 A 
ATOM     24  C   UNL     1      -0.851  -1.718  24.987  0.00  0.00    +0.000 A 
ATOM     25  C   UNL     1      -1.338  -2.382  24.921  0.00  0.00    +0.037 A 
ATOM     26  C   UNL     1      -2.105  -2.302  24.629  0.00  0.00    +0.147 A 
ATOM     32  C   UNL     1      -2.386  -1.560  24.403  0.00  0.00    +0.037 A 
ATOM     33  C   UNL     1      -1.900  -0.897  24.469  0.00  0.00    +0.000 A 
BRANCH  26  27
ATOM     27  O   UNL     1      -2.592  -2.965  24.563  0.00  0.00    -0.404 OA
BRANCH  27  28
ATOM     28  C   UNL     1      -3.412  -2.877  24.571  0.00  0.00    +0.575 C 
ATOM     29  F   UNL     1      -4.232  -2.788  24.577  0.00  0.00    -0.133 F 
ATOM     30  F   UNL     1      -3.408  -2.902  25.394  0.00  0.00    -0.133 F 
ATOM     31  F   UNL     1      -3.416  -2.852  23.746  0.00  0.00    -0.133 F 
ENDBRANCH  27  28
ENDBRANCH  26  27
ENDBRANCH  22  23
ENDBRANCH  21  22
TORSDOF 10
ENDMDL
MODEL 6
REMARK VINA RESULT:      -8.2      2.546      3.300
REMARK  Name = 
REMARK  10 active torsions:
REMARK  status: ('A' for Active; 'I' for Inactive)
REMARK    1  A    between atoms: O_2  and  C_3
REMARK    2  A    between atoms: C_3  and  C_4
REMARK    3  A    between atoms: C_4  and  O_5
REMARK    4  A    between atoms: O_5  and  C_6
REMARK    5  A    between atoms: C_9  and  C_12
REMARK    6  A    between atoms: C_15  and  C_17
REMARK    7  A    between atoms: N_21  and  C_22
REMARK    8  A    between atoms: C_22  and  C_23
REMARK    9  A    between atoms: C_26  and  O_27
REMARK   10  A    between atoms: O_27  and  C_28
REMARK                            x       y       z     vdW  Elec       q    Type
REMARK                         _______ _______ _______ _____ _____    ______ ____
ROOT
ATOM     17  C   UNL     1      -2.186   1.746  24.176  0.00  0.00    +0.138 C 
ATOM     18  C   UNL     1      -2.593   2.339  23.772  0.00  0.00    +0.027 C 
ATOM     19  C   UNL     1      -3.399   2.170  23.812  0.00  0.00    +0.019 C 
ATOM     20  C   UNL     1      -3.491   1.471  24.241  0.00  0.00    +0.073 C 
ATOM     21  N   UNL     1      -2.742   1.209  24.466  0.00  0.00    -0.263 NA
ENDROOT
BRANCH  17  15
ATOM     12  C   UNL     1      -0.080   1.420  24.065  0.00  0.00    +0.205 A 
ATOM     13  N   UNL     1      -0.140   1.828  24.780  0.00  0.00    -0.056 NA
ATOM     14  O   UNL     1      -0.937   2.000  24.908  0.00  0.00    -0.336 OA
ATOM     15  C   UNL     1      -1.369   1.698  24.273  0.00  0.00    +0.251 A 
ATOM     16  N   UNL     1      -0.839   1.340  23.752  0.00  0.00    -0.190 NA
BRANCH  12   9
ATOM      6  C   UNL     1       2.012   0.585  23.039  0.00  0.00    +0.225 A 
ATOM      7  C   UNL     1       1.327   0.126  23.013  0.00  0.00    +0.058 A 
ATOM      8  C   UNL     1       0.630   0.404  23.354  0.00  0.00    +0.010 A 
ATOM      9  C   UNL     1       0.618   1.142  23.723  0.00  0.00    +0.058 A 
ATOM     10  C   UNL     1       1.302   1.602  23.750  0.00  0.00    +0.105 A 
ATOM     11  N   UNL     1       2.000   1.323  23.409  0.00  0.00    -0.210 NA
BRANCH   6   5
ATOM      5  O   UNL     1       2.710   0.306  22.698  0.00  0.00    -0.457 OA
BRANCH   5   4
ATOM      4  C   UNL     1       3.440   0.571  22.977  0.00  0.00    +0.239 C 
BRANCH   4   3
ATOM      3  C   UNL     1       4.134   0.194  22.738  0.00  0.00    +0.189 C 
BRANCH   3   2
ATOM      1  C   UNL     1       5.407   0.071  23.376  0.00  0.00    +0.174 C 
ATOM      2  O   UNL     1       4.867   0.515  22.936  0.00  0.00    -0.347 OA
ENDBRANCH   3   2
ENDBRANCH   4   3
ENDBRANCH   5   4
ENDBRANCH   6   5
ENDBRANCH  12   9
ENDBRANCH  17  15
BRANCH  21  22
ATOM     22  C   UNL     1      -2.577   0.530  24.905  0.00  0.00    +0.099 C 
BRANCH  22  23
ATOM     23  C   UNL     1      -3.035  -0.148  24.803  0.00  0.00    -0.006 A 
ATOM     24  C   UNL     1      -3.596  -0.356  25.371  0.00  0.00    +0.000 A 
ATOM     25  C   UNL     1      -4.055  -1.034  25.270  0.00  0.00    +0.037 A 
ATOM     26  C   UNL     1      -3.952  -1.505  24.600  0.00  0.00    +0.147 A 
ATOM     32  C   UNL     1      -3.391  -1.297  24.032  0.00  0.00    +0.037 A 
ATOM     33  C   UNL     1      -2.933  -0.619  24.133  0.00  0.00    +0.000 A 
BRANCH  26  27
ATOM     27  O   UNL     1      -4.411  -2.183  24.498  0.00  0.00    -0.404 OA
BRANCH  27  28
ATOM     28  C   UNL     1      -4.064  -2.877  24.218  0.00  0.00    +0.575 C 
ATOM     29  F   UNL     1      -3.716  -3.571  23.938  0.00  0.00    -0.133 F 
ATOM     30  F   UNL     1      -4.330  -2.704  23.457  0.00  0.00    -0.133 F 
ATOM     31  F   UNL     1      -3.797  -3.050  24.979  0.00  0.00    -0.133 F 
ENDBRANCH  27  28
ENDBRANCH  26  27
ENDBRANCH  22  23
ENDBRANCH  21  22
TORSDOF 10
ENDMDL
MODEL 7
REMARK VINA RESULT:      -8.0      1.652      2.371
REMARK  Name = 
REMARK  10 active torsions:
REMARK  status: ('A' for Active; 'I' for Inactive)
REMARK    1  A    between atoms: O_2  and  C_3
REMARK    2  A    between atoms: C_3  and  C_4
REMARK    3  A    between atoms: C_4  and  O_5
REMARK    4  A    between atoms: O_5  and  C_6
REMARK    5  A    between atoms: C_9  and  C_12
REMARK    6  A    between atoms: C_15  and  C_17
REMARK    7  A    between atoms: N_21  and  C_22
REMARK    8  A    between atoms: C_22  and  C_23
REMARK    9  A    between atoms: C_26  and  O_27
REMARK   10  A    between atoms: O_27  and  C_28
REMARK                            x       y       z     vdW  Elec       q    Type
REMARK                         _______ _______ _______ _____ _____    ______ ____
ROOT
ATOM     17  C   UNL     1      -1.409   2.461  25.221  0.00  0.00    +0.138 C 
ATOM     18  C   UNL     1      -1.193   3.050  25.758  0.00  0.00    +0.027 C 
ATOM     19  C   UNL     1      -1.832   3.564  25.844  0.00  0.00    +0.019 C 
ATOM     20  C   UNL     1      -2.444   3.294  25.360  0.00  0.00    +0.073 C 
ATOM     21  N   UNL     1      -2.182   2.612  24.975  0.00  0.00    -0.263 NA
ENDROOT
BRANCH  17  15
ATOM     12  C   UNL     1       0.025   1.127  24.372  0.00  0.00    +0.205 A 
ATOM     13  N   UNL     1      -0.436   0.605  24.815  0.00  0.00    -0.056 NA
ATOM     14  O   UNL     1      -1.029   1.042  25.187  0.00  0.00    -0.336 OA
ATOM     15  C   UNL     1      -0.935   1.833  24.974  0.00  0.00    +0.251 A 
ATOM     16  N   UNL     1      -0.284   1.886  24.470  0.00  0.00    -0.190 NA
BRANCH  12   9
ATOM      6  C   UNL     1       1.988   0.523  22.991  0.00  0.00    +0.225 A 
ATOM      7  C   UNL     1       1.325   0.032  23.004  0.00  0.00    +0.058 A 
ATOM      8  C   UNL     1       0.671   0.234  23.464  0.00  0.00    +0.010 A 
ATOM      9  C   UNL     1       0.679   0.926  23.911  0.00  0.00    +0.058 A 
ATOM     10  C   UNL     1       1.342   1.418  23.899  0.00  0.00    +0.105 A 
ATOM     11  N   UNL     1       1.996   1.216  23.439  0.00  0.00    -0.210 NA
BRANCH   6   5
ATOM      5  O   UNL     1       2.642   0.321  22.530  0.00  0.00    -0.457 OA
BRANCH   5   4
ATOM      4  C   UNL     1       3.384   0.636  22.709  0.00  0.00    +0.239 C 
BRANCH   4   3
ATOM      3  C   UNL     1       4.059   0.168  22.632  0.00  0.00    +0.189 C 
BRANCH   3   2
ATOM      1  C   UNL     1       5.359   0.045  23.212  0.00  0.00    +0.174 C 
ATOM      2  O   UNL     1       4.803   0.486  22.793  0.00  0.00    -0.347 OA
ENDBRANCH   3   2
ENDBRANCH   4   3
ENDBRANCH   5   4
ENDBRANCH   6   5
ENDBRANCH  12   9
ENDBRANCH  17  15
BRANCH  21  22
ATOM     22  C   UNL     1      -2.617   2.161  24.439  0.00  0.00    +0.099 C 
BRANCH  22  23
ATOM     23  C   UNL     1      -3.440   2.145  24.485  0.00  0.00    -0.006 A 
ATOM     24  C   UNL     1      -3.883   2.762  24.163  0.00  0.00    +0.000 A 
ATOM     25  C   UNL     1      -4.707   2.746  24.209  0.00  0.00    +0.037 A 
ATOM     26  C   UNL     1      -5.087   2.113  24.578  0.00  0.00    +0.147 A 
ATOM     32  C   UNL     1      -4.644   1.497  24.900  0.00  0.00    +0.037 A 
ATOM     33  C   UNL     1      -3.821   1.512  24.853  0.00  0.00    +0.000 A 
BRANCH  26  27
ATOM     27  O   UNL     1      -5.911   2.097  24.624  0.00  0.00    -0.404 OA
BRANCH  27  28
ATOM     28  C   UNL     1      -6.281   2.048  25.360  0.00  0.00    +0.575 C 
ATOM     29  F   UNL     1      -6.652   1.997  26.095  0.00  0.00    -0.133 F 
ATOM     30  F   UNL     1      -6.149   2.852  25.481  0.00  0.00    -0.133 F 
ATOM     31  F   UNL     1      -6.414   1.242  25.237  0.00  0.00    -0.133 F 
ENDBRANCH  27  28
ENDBRANCH  26  27
ENDBRANCH  22  23
ENDBRANCH  21  22
TORSDOF 10
ENDMDL
MODEL 8
REMARK VINA RESULT:      -7.9      2.638      3.704
REMARK  Name = 
REMARK  10 active torsions:
REMARK  status: ('A' for Active; 'I' for Inactive)
REMARK    1  A    between atoms: O_2  and  C_3
REMARK    2  A    between atoms: C_3  and  C_4
REMARK    3  A    between atoms: C_4  and  O_5
REMARK    4  A    between atoms: O_5  and  C_6
REMARK    5  A    between atoms: C_9  and  C_12
REMARK    6  A    between atoms: C_15  and  C_17
REMARK    7  A    between atoms: N_21  and  C_22
REMARK    8  A    between atoms: C_22  and  C_23
REMARK    9  A    between atoms: C_26  and  O_27
REMARK   10  A    between atoms: O_27  and  C_28
REMARK                            x       y       z     vdW  Elec       q    Type
REMARK                         _______ _______ _______ _____ _____    ______ ____
ROOT
ATOM     17  C   UNL     1      -4.033   2.106  25.087  0.00  0.00    +0.138 C 
ATOM     18  C   UNL     1      -4.698   2.453  25.430  0.00  0.00    +0.027 C 
ATOM     19  C   UNL     1      -5.329   1.928  25.352  0.00  0.00    +0.019 C 
ATOM     20  C   UNL     1      -5.054   1.255  24.960  0.00  0.00    +0.073 C 
ATOM     21  N   UNL     1      -4.253   1.366  24.796  0.00  0.00    -0.263 NA
ENDROOT
BRANCH  17  15
ATOM     12  C   UNL     1      -1.968   2.592  24.850  0.00  0.00    +0.205 A 
ATOM     13  N   UNL     1      -2.275   3.318  25.095  0.00  0.00    -0.056 NA
ATOM     14  O   UNL     1      -3.087   3.224  25.213  0.00  0.00    -0.336 OA
ATOM     15  C   UNL     1      -3.280   2.440  25.042  0.00  0.00    +0.251 A 
ATOM     16  N   UNL     1      -2.589   2.050  24.818  0.00  0.00    -0.190 NA
BRANCH  12   9
ATOM      6  C   UNL     1       0.402   2.124  24.311  0.00  0.00    +0.225 A 
ATOM      7  C   UNL     1       0.128   2.031  25.083  0.00  0.00    +0.058 A 
ATOM      8  C   UNL     1      -0.662   2.186  25.263  0.00  0.00    +0.010 A 
ATOM      9  C   UNL     1      -1.178   2.436  24.671  0.00  0.00    +0.058 A 
ATOM     10  C   UNL     1      -0.905   2.530  23.897  0.00  0.00    +0.105 A 
ATOM     11  N   UNL     1      -0.115   2.374  23.718  0.00  0.00    -0.210 NA
BRANCH   6   5
ATOM      5  O   UNL     1       1.192   1.968  24.131  0.00  0.00    -0.457 OA
BRANCH   5   4
ATOM      4  C   UNL     1       1.388   1.312  23.670  0.00  0.00    +0.239 C 
BRANCH   4   3
ATOM      3  C   UNL     1       2.170   1.192  23.435  0.00  0.00    +0.189 C 
BRANCH   3   2
ATOM      1  C   UNL     1       3.133   0.479  22.657  0.00  0.00    +0.174 C 
ATOM      2  O   UNL     1       2.350   0.604  22.885  0.00  0.00    -0.347 OA
ENDBRANCH   3   2
ENDBRANCH   4   3
ENDBRANCH   5   4
ENDBRANCH   6   5
ENDBRANCH  12   9
ENDBRANCH  17  15
BRANCH  21  22
ATOM     22  C   UNL     1      -3.759   0.830  24.410  0.00  0.00    +0.099 C 
BRANCH  22  23
ATOM     23  C   UNL     1      -3.882   0.019  24.496  0.00  0.00    -0.006 A 
ATOM     24  C   UNL     1      -4.225  -0.413  23.883  0.00  0.00    +0.000 A 
ATOM     25  C   UNL     1      -4.349  -1.225  23.968  0.00  0.00    +0.037 A 
ATOM     26  C   UNL     1      -4.129  -1.603  24.668  0.00  0.00    +0.147 A 
ATOM     32  C   UNL     1      -3.787  -1.171  25.281  0.00  0.00    +0.037 A 
ATOM     33  C   UNL     1      -3.663  -0.360  25.196  0.00  0.00    +0.000 A 
BRANCH  26  27
ATOM     27  O   UNL     1      -4.253  -2.415  24.754  0.00  0.00    -0.404 OA
BRANCH  27  28
ATOM     28  C   UNL     1      -3.683  -2.949  24.488  0.00  0.00    +0.575 C 
ATOM     29  F   UNL     1      -3.112  -3.482  24.223  0.00  0.00    -0.133 F 
ATOM     30  F   UNL     1      -4.035  -2.955  23.743  0.00  0.00    -0.133 F 
ATOM     31  F   UNL     1      -3.330  -2.942  25.234  0.00  0.00    -0.133 F 
ENDBRANCH  27  28
ENDBRANCH  26  27
ENDBRANCH  22  23
ENDBRANCH  21  22
TORSDOF 10
ENDMDL
MODEL 9
REMARK VINA RESULT:      -5.9     14.664     16.544
REMARK  Name = 
REMARK  10 active torsions:
REMARK  status: ('A' for Active; 'I' for Inactive)
REMARK    1  A    between atoms: O_2  and  C_3
REMARK    2  A    between atoms: C_3  and  C_4
REMARK    3  A    between atoms: C_4  and  O_5
REMARK    4  A    between atoms: O_5  and  C_6
REMARK    5  A    between atoms: C_9  and  C_12
REMARK    6  A    between atoms: C_15  and  C_17
REMARK    7  A    between atoms: N_21  and  C_22
REMARK    8  A    between atoms: C_22  and  C_23
REMARK    9  A    between atoms: C_26  and  O_27
REMARK   10  A    between atoms: O_27  and  C_28
REMARK                            x       y       z     vdW  Elec       q    Type
REMARK                         _______ _______ _______ _____ _____    ______ ____
ROOT
ATOM     17  C   UNL     1      -5.904  -9.375  12.030  0.00  0.00    +0.138 C 
ATOM     18  C   UNL     1      -6.207  -8.695  11.676  0.00  0.00    +0.027 C 
ATOM     19  C   UNL     1      -5.658  -8.430  11.120  0.00  0.00    +0.019 C 
ATOM     20  C   UNL     1      -5.015  -8.946  11.131  0.00  0.00    +0.073 C 
ATOM     21  N   UNL     1      -5.167  -9.531  11.694  0.00  0.00    -0.263 NA
ENDROOT
BRANCH  17  15
ATOM     12  C   UNL     1      -6.718 -10.234  13.807  0.00  0.00    +0.205 A 
ATOM     13  N   UNL     1      -6.962 -10.781  13.239  0.00  0.00    -0.056 NA
ATOM     14  O   UNL     1      -6.687 -10.526  12.504  0.00  0.00    -0.336 OA
ATOM     15  C   UNL     1      -6.273  -9.821  12.618  0.00  0.00    +0.251 A 
ATOM     16  N   UNL     1      -6.292  -9.641  13.423  0.00  0.00    -0.190 NA
BRANCH  12   9
ATOM      6  C   UNL     1      -7.184 -10.352  16.235  0.00  0.00    +0.225 A 
ATOM      7  C   UNL     1      -7.756 -10.057  15.719  0.00  0.00    +0.058 A 
ATOM      8  C   UNL     1      -7.600 -10.017  14.909  0.00  0.00    +0.010 A 
ATOM      9  C   UNL     1      -6.873 -10.273  14.616  0.00  0.00    +0.058 A 
ATOM     10  C   UNL     1      -6.301 -10.568  15.132  0.00  0.00    +0.105 A 
ATOM     11  N   UNL     1      -6.456 -10.608  15.941  0.00  0.00    -0.210 NA
BRANCH   6   5
ATOM      5  O   UNL     1      -7.339 -10.391  17.044  0.00  0.00    -0.457 OA
BRANCH   5   4
ATOM      4  C   UNL     1      -6.733 -10.253  17.587  0.00  0.00    +0.239 C 
BRANCH   4   3
ATOM      3  C   UNL     1      -6.887 -10.297  18.396  0.00  0.00    +0.189 C 
BRANCH   3   2
ATOM      1  C   UNL     1      -6.217 -10.464  19.647  0.00  0.00    +0.174 C 
ATOM      2  O   UNL     1      -6.317 -10.052  18.939  0.00  0.00    -0.347 OA
ENDBRANCH   3   2
ENDBRANCH   4   3
ENDBRANCH   5   4
ENDBRANCH   6   5
ENDBRANCH  12   9
ENDBRANCH  17  15
BRANCH  21  22
ATOM     22  C   UNL     1      -4.669 -10.160  11.886  0.00  0.00    +0.099 C 
BRANCH  22  23
ATOM     23  C   UNL     1      -3.864 -10.118  11.710  0.00  0.00    -0.006 A 
ATOM     24  C   UNL     1      -3.610 -10.163  10.927  0.00  0.00    +0.000 A 
ATOM     25  C   UNL     1      -2.805 -10.121  10.750  0.00  0.00    +0.037 A 
ATOM     26  C   UNL     1      -2.254 -10.034  11.359  0.00  0.00    +0.147 A 
ATOM     32  C   UNL     1      -2.508  -9.989  12.142  0.00  0.00    +0.037 A 
ATOM     33  C   UNL     1      -3.313 -10.031  12.318  0.00  0.00    +0.000 A 
BRANCH  26  27
ATOM     27  O   UNL     1      -1.449  -9.992  11.182  0.00  0.00    -0.404 OA
BRANCH  27  28
ATOM     28  C   UNL     1      -1.052  -9.271  11.238  0.00  0.00    +0.575 C 
ATOM     29  F   UNL     1      -0.656  -8.550  11.293  0.00  0.00    -0.133 F 
ATOM     30  F   UNL     1      -0.824  -9.456  12.008  0.00  0.00    -0.133 F 
ATOM     31  F   UNL     1      -1.281  -9.086  10.467  0.00  0.00    -0.133 F 
ENDBRANCH  27  28
ENDBRANCH  26  27
ENDBRANCH  22  23
ENDBRANCH  21  22
TORSDOF 10
ENDMDL
MODEL 10
REMARK VINA RESULT:      -5.9     16.040     17.610
REMARK  Name = 
REMARK  10 active torsions:
REMARK  status: ('A' for Active; 'I' for Inactive)
REMARK    1  A    between atoms: O_2  and  C_3
REMARK    2  A    between atoms: C_3  and  C_4
REMARK    3  A    between atoms: C_4  and  O_5
REMARK    4  A    between atoms: O_5  and  C_6
REMARK    5  A    between atoms: C_9  and  C_12
REMARK    6  A    between atoms: C_15  and  C_17
REMARK    7  A    between atoms: N_21  and  C_22
REMARK    8  A    between atoms: C_22  and  C_23
REMARK    9  A    between atoms: C_26  and  O_27
REMARK   10  A    between atoms: O_27  and  C_28
REMARK                            x       y       z     vdW  Elec       q    Type
REMARK                         _______ _______ _______ _____ _____    ______ ____
ROOT
ATOM     17  C   UNL     1      -2.867  -9.629  10.646  0.00  0.00    +0.138 C 
ATOM     18  C   UNL     1      -2.363  -9.066  10.315  0.00  0.00    +0.027 C 
ATOM     19  C   UNL     1      -1.694  -9.008  10.794  0.00  0.00    +0.019 C 
ATOM     20  C   UNL     1      -1.785  -9.535  11.423  0.00  0.00    +0.073 C 
ATOM     21  N   UNL     1      -2.509  -9.919  11.331  0.00  0.00    -0.263 NA
ENDROOT
BRANCH  17  15
ATOM     12  C   UNL     1      -4.878  -9.842   9.964  0.00  0.00    +0.205 A 
ATOM     13  N   UNL     1      -4.575 -10.593   9.803  0.00  0.00    -0.056 NA
ATOM     14  O   UNL     1      -3.784 -10.604  10.039  0.00  0.00    -0.336 OA
ATOM     15  C   UNL     1      -3.599  -9.861  10.346  0.00  0.00    +0.251 A 
ATOM     16  N   UNL     1      -4.275  -9.390  10.299  0.00  0.00    -0.190 NA
BRANCH  12   9
ATOM      6  C   UNL     1      -7.191  -9.082   9.518  0.00  0.00    +0.225 A 
ATOM      7  C   UNL     1      -6.842  -8.936  10.251  0.00  0.00    +0.058 A 
ATOM      8  C   UNL     1      -6.071  -9.189  10.399  0.00  0.00    +0.010 A 
ATOM      9  C   UNL     1      -5.649  -9.589   9.815  0.00  0.00    +0.058 A 
ATOM     10  C   UNL     1      -5.997  -9.737   9.082  0.00  0.00    +0.105 A 
ATOM     11  N   UNL     1      -6.768  -9.483   8.933  0.00  0.00    -0.210 NA
BRANCH   6   5
ATOM      5  O   UNL     1      -7.962  -8.829   9.369  0.00  0.00    -0.457 OA
BRANCH   5   4
ATOM      4  C   UNL     1      -8.108  -8.036   9.193  0.00  0.00    +0.239 C 
BRANCH   4   3
ATOM      3  C   UNL     1      -8.828  -7.815   8.856  0.00  0.00    +0.189 C 
BRANCH   3   2
ATOM      1  C   UNL     1      -8.967  -6.518   8.271  0.00  0.00    +0.174 C 
ATOM      2  O   UNL     1      -9.084  -7.033   8.906  0.00  0.00    -0.347 OA
ENDBRANCH   3   2
ENDBRANCH   4   3
ENDBRANCH   5   4
ENDBRANCH   6   5
ENDBRANCH  12   9
ENDBRANCH  17  15
BRANCH  21  22
ATOM     22  C   UNL     1      -2.822 -10.492  11.836  0.00  0.00    +0.099 C 
BRANCH  22  23
ATOM     23  C   UNL     1      -2.568 -10.533  12.620  0.00  0.00    -0.006 A 
ATOM     24  C   UNL     1      -1.789 -10.739  12.791  0.00  0.00    +0.000 A 
ATOM     25  C   UNL     1      -1.535 -10.781  13.576  0.00  0.00    +0.037 A 
ATOM     26  C   UNL     1      -2.063 -10.616  14.188  0.00  0.00    +0.147 A 
ATOM     32  C   UNL     1      -2.843 -10.410  14.017  0.00  0.00    +0.037 A 
ATOM     33  C   UNL     1      -3.096 -10.368  13.233  0.00  0.00    +0.000 A 
BRANCH  26  27
ATOM     27  O   UNL     1      -1.809 -10.658  14.973  0.00  0.00    -0.404 OA
BRANCH  27  28
ATOM     28  C   UNL     1      -1.501  -9.987  15.342  0.00  0.00    +0.575 C 
ATOM     29  F   UNL     1      -1.193  -9.317  15.711  0.00  0.00    -0.133 F 
ATOM     30  F   UNL     1      -0.744 -10.197  15.091  0.00  0.00    -0.133 F 
ATOM     31  F   UNL     1      -2.258  -9.778  15.593  0.00  0.00    -0.133 F 
ENDBRANCH  27  28
ENDBRANCH  26  27
ENDBRANCH  22  23
ENDBRANCH  21  22
TORSDOF 10
ENDMDL
