MODEL 1
REMARK VINA RESULT:     -10.6      0.000      0.000
REMARK  Name = 
REMARK  6 active torsions:
REMARK  status: ('A' for Active; 'I' for Inactive)
REMARK    1  A    between atoms: C_2  and  C_3
REMARK    2  A    between atoms: C_3  and  S_4
REMARK    3  A    between atoms: S_4  and  C_7
REMARK    4  A    between atoms: N_13  and  C_14
REMARK    5  A    between atoms: CA_23  and  CB_24
REMARK    6  A    between atoms: CB_24  and  CG_25
REMARK                            x       y       z     vdW  Elec       q    Type
REMARK                         _______ _______ _______ _____ _____    ______ ____
ROOT
ATOM     14  C   UNK A   1       0.385   0.001  23.279  0.00  0.00    +0.099 C 
ATOM     15  C   UNK A   1       0.301  -0.442  23.969  0.00  0.00    +0.043 C 
ATOM     16  C   UNK A   1      -0.356  -0.330  24.455  0.00  0.00    +0.096 C 
ATOM     17  N   UNK A   1      -0.929   0.227  24.251  0.00  0.00    -0.271 N 
ATOM     18  C   UNK A   1      -0.846   0.672  23.561  0.00  0.00    +0.155 C 
ATOM     19  C   UNK A   1      -0.188   0.559  23.075  0.00  0.00    +0.051 C 
ATOM     20  C   UNK A   1      -1.419   1.229  23.357  0.00  0.00    +0.260 C 
ATOM     21  O   UNK A   1      -1.335   1.673  22.667  0.00  0.00    -0.272 OA
ATOM     22  N   TRP A   2      -2.076   1.341  23.843  0.00  0.00    -0.196 NA
ATOM     23  CA  TRP A   2      -2.159   0.897  24.533  0.00  0.00    +0.176 C 
ATOM     34  C   TRP A   2      -1.586   0.340  24.737  0.00  0.00    +0.246 C 
ATOM     35  O   TRP A   2      -1.670  -0.104  25.427  0.00  0.00    -0.273 OA
ENDROOT
BRANCH  14  13
ATOM      1  O   UNK A   1       1.768   0.858  23.551  0.00  0.00    -0.271 OA
ATOM      2  C   UNK A   1       1.733   0.317  22.928  0.00  0.00    +0.266 C 
ATOM     13  N   UNK A   1       1.042  -0.111  22.792  0.00  0.00    -0.206 NA
BRANCH   2   3
ATOM      3  C   UNK A   1       2.391   0.206  22.443  0.00  0.00    +0.242 C 
BRANCH   3   4
ATOM      4  S   UNK A   1       3.144   0.147  22.774  0.00  0.00    +0.018 S 
ATOM      5  O   UNK A   1       3.227   0.966  22.730  0.00  0.00    -0.168 OA
ATOM      6  O   UNK A   1       3.060  -0.673  22.818  0.00  0.00    -0.168 OA
BRANCH   4   7
ATOM      7  C   UNK A   1       3.897   0.087  23.105  0.00  0.00    +0.106 A 
ATOM      8  C   UNK A   1       4.129  -0.609  23.482  0.00  0.00    +0.018 A 
ATOM      9  C   UNK A   1       4.882  -0.668  23.813  0.00  0.00    +0.001 A 
ATOM     10  C   UNK A   1       5.403  -0.031  23.768  0.00  0.00    +0.000 A 
ATOM     11  C   UNK A   1       5.172   0.666  23.391  0.00  0.00    +0.001 A 
ATOM     12  C   UNK A   1       4.419   0.725  23.060  0.00  0.00    +0.018 A 
ENDBRANCH   4   7
ENDBRANCH   3   4
ENDBRANCH   2   3
ENDBRANCH  14  13
BRANCH  23  24
ATOM     24  CB  TRP A   2      -2.816   1.010  25.019  0.00  0.00    +0.059 C 
BRANCH  24  25
ATOM     25  CG  TRP A   2      -3.175   1.752  25.064  0.00  0.00    +0.001 A 
ATOM     26  CD1 TRP A   2      -2.785   2.476  25.124  0.00  0.00    +0.095 A 
ATOM     27  NE1 TRP A   2      -3.355   3.071  25.153  0.00  0.00    -0.244 NA
ATOM     28  CE2 TRP A   2      -4.097   2.714  25.112  0.00  0.00    +0.081 A 
ATOM     29  CD2 TRP A   2      -3.986   1.899  25.057  0.00  0.00    +0.015 A 
ATOM     30  CE3 TRP A   2      -4.639   1.396  25.008  0.00  0.00    +0.001 A 
ATOM     31  CZ3 TRP A   2      -5.402   1.708  25.014  0.00  0.00    +0.000 A 
ATOM     32  CH2 TRP A   2      -5.513   2.524  25.069  0.00  0.00    +0.002 A 
ATOM     33  CZ2 TRP A   2      -4.861   3.027  25.118  0.00  0.00    +0.019 A 
ENDBRANCH  24  25
ENDBRANCH  23  24
TORSDOF 6
ENDMDL
MODEL 2
REMARK VINA RESULT:      -9.7      0.985      1.495
REMARK  Name = 
REMARK  6 active torsions:
REMARK  status: ('A' for Active; 'I' for Inactive)
REMARK    1  A    between atoms: C_2  and  C_3
REMARK    2  A    between atoms: C_3  and  S_4
REMARK    3  A    between atoms: S_4  and  C_7
REMARK    4  A    between atoms: N_13  and  C_14
REMARK    5  A    between atoms: CA_23  and  CB_24
REMARK    6  A    between atoms: CB_24  and  CG_25
REMARK                            x       y       z     vdW  Elec       q    Type
REMARK                         _______ _______ _______ _____ _____    ______ ____
ROOT
ATOM     14  C   UNK A   1       0.737   0.217  23.187  0.00  0.00    +0.099 C 
ATOM     15  C   UNK A   1       0.570   1.025  23.194  0.00  0.00    +0.043 C 
ATOM     16  C   UNK A   1      -0.093   1.307  23.596  0.00  0.00    +0.096 C 
ATOM     17  N   UNK A   1      -0.588   0.780  23.993  0.00  0.00    -0.271 N 
ATOM     18  C   UNK A   1      -0.422  -0.028  23.987  0.00  0.00    +0.155 C 
ATOM     19  C   UNK A   1       0.241  -0.309  23.584  0.00  0.00    +0.051 C 
ATOM     20  C   UNK A   1      -0.918  -0.555  24.384  0.00  0.00    +0.260 C 
ATOM     21  O   UNK A   1      -0.751  -1.362  24.378  0.00  0.00    -0.272 OA
ATOM     22  N   TRP A   2      -1.580  -0.273  24.787  0.00  0.00    -0.196 NA
ATOM     23  CA  TRP A   2      -1.747   0.535  24.793  0.00  0.00    +0.176 C 
ATOM     34  C   TRP A   2      -1.251   1.061  24.396  0.00  0.00    +0.246 C 
ATOM     35  O   TRP A   2      -1.418   1.870  24.402  0.00  0.00    -0.273 OA
ENDROOT
BRANCH  14  13
ATOM      1  O   UNK A   1       2.201   0.948  23.397  0.00  0.00    -0.271 OA
ATOM      2  C   UNK A   1       2.132   0.301  22.889  0.00  0.00    +0.266 C 
ATOM     13  N   UNK A   1       1.399  -0.065  22.785  0.00  0.00    -0.206 NA
BRANCH   2   3
ATOM      3  C   UNK A   1       2.795   0.019  22.487  0.00  0.00    +0.242 C 
BRANCH   3   4
ATOM      4  S   UNK A   1       3.527  -0.008  22.866  0.00  0.00    +0.018 S 
ATOM      5  O   UNK A   1       3.348  -0.758  23.157  0.00  0.00    -0.168 OA
ATOM      6  O   UNK A   1       3.705   0.743  22.574  0.00  0.00    -0.168 OA
BRANCH   4   7
ATOM      7  C   UNK A   1       4.259  -0.035  23.245  0.00  0.00    +0.106 A 
ATOM      8  C   UNK A   1       4.492  -0.719  23.643  0.00  0.00    +0.018 A 
ATOM      9  C   UNK A   1       5.225  -0.746  24.022  0.00  0.00    +0.001 A 
ATOM     10  C   UNK A   1       5.724  -0.089  24.002  0.00  0.00    +0.000 A 
ATOM     11  C   UNK A   1       5.491   0.595  23.604  0.00  0.00    +0.001 A 
ATOM     12  C   UNK A   1       4.758   0.622  23.225  0.00  0.00    +0.018 A 
ENDBRANCH   4   7
ENDBRANCH   3   4
ENDBRANCH   2   3
ENDBRANCH  14  13
BRANCH  23  24
ATOM     24  CB  TRP A   2      -2.410   0.817  25.196  0.00  0.00    +0.059 C 
BRANCH  24  25
ATOM     25  CG  TRP A   2      -3.162   0.542  24.996  0.00  0.00    +0.001 A 
ATOM     26  CD1 TRP A   2      -3.350  -0.223  24.752  0.00  0.00    +0.095 A 
ATOM     27  NE1 TRP A   2      -4.162  -0.252  24.611  0.00  0.00    -0.244 NA
ATOM     28  CE2 TRP A   2      -4.475   0.494  24.768  0.00  0.00    +0.081 A 
ATOM     29  CD2 TRP A   2      -3.857   0.986  25.006  0.00  0.00    +0.015 A 
ATOM     30  CE3 TRP A   2      -4.008   1.773  25.201  0.00  0.00    +0.001 A 
ATOM     31  CZ3 TRP A   2      -4.776   2.069  25.158  0.00  0.00    +0.000 A 
ATOM     32  CH2 TRP A   2      -5.395   1.578  24.919  0.00  0.00    +0.002 A 
ATOM     33  CZ2 TRP A   2      -5.245   0.790  24.724  0.00  0.00    +0.019 A 
ENDBRANCH  24  25
ENDBRANCH  23  24
TORSDOF 6
ENDMDL
MODEL 3
REMARK VINA RESULT:      -8.4      2.006      6.768
REMARK  Name = 
REMARK  6 active torsions:
REMARK  status: ('A' for Active; 'I' for Inactive)
REMARK    1  A    between atoms: C_2  and  C_3
REMARK    2  A    between atoms: C_3  and  S_4
REMARK    3  A    between atoms: S_4  and  C_7
REMARK    4  A    between atoms: N_13  and  C_14
REMARK    5  A    between atoms: CA_23  and  CB_24
REMARK    6  A    between atoms: CB_24  and  CG_25
REMARK                            x       y       z     vdW  Elec       q    Type
REMARK                         _______ _______ _______ _____ _____    ______ ____
ROOT
ATOM     14  C   UNK A   1      -0.690   0.842  23.912  0.00  0.00    +0.099 C 
ATOM     15  C   UNK A   1      -0.269   1.477  24.227  0.00  0.00    +0.043 C 
ATOM     16  C   UNK A   1       0.540   1.550  24.081  0.00  0.00    +0.096 C 
ATOM     17  N   UNK A   1       0.927   0.987  23.620  0.00  0.00    -0.271 N 
ATOM     18  C   UNK A   1       0.506   0.351  23.304  0.00  0.00    +0.155 C 
ATOM     19  C   UNK A   1      -0.302   0.279  23.450  0.00  0.00    +0.051 C 
ATOM     20  C   UNK A   1       0.894  -0.212  22.843  0.00  0.00    +0.260 C 
ATOM     21  O   UNK A   1       0.473  -0.847  22.528  0.00  0.00    -0.272 OA
ATOM     22  N   TRP A   2       1.703  -0.139  22.697  0.00  0.00    -0.196 NA
ATOM     23  CA  TRP A   2       2.124   0.496  23.012  0.00  0.00    +0.176 C 
ATOM     34  C   TRP A   2       1.736   1.059  23.473  0.00  0.00    +0.246 C 
ATOM     35  O   TRP A   2       2.157   1.695  23.789  0.00  0.00    -0.273 OA
ENDROOT
BRANCH  14  13
ATOM      1  O   UNK A   1      -1.216   0.087  25.281  0.00  0.00    -0.271 OA
ATOM      2  C   UNK A   1      -1.762   0.392  24.742  0.00  0.00    +0.266 C 
ATOM     13  N   UNK A   1      -1.499   0.770  24.058  0.00  0.00    -0.206 NA
BRANCH   2   3
ATOM      3  C   UNK A   1      -2.570   0.319  24.889  0.00  0.00    +0.242 C 
BRANCH   3   4
ATOM      4  S   UNK A   1      -2.953  -0.397  24.743  0.00  0.00    +0.018 S 
ATOM      5  O   UNK A   1      -3.269  -0.086  24.047  0.00  0.00    -0.168 OA
ATOM      6  O   UNK A   1      -2.638  -0.708  25.439  0.00  0.00    -0.168 OA
BRANCH   4   7
ATOM      7  C   UNK A   1      -3.336  -1.113  24.597  0.00  0.00    +0.106 A 
ATOM      8  C   UNK A   1      -3.151  -1.779  25.047  0.00  0.00    +0.018 A 
ATOM      9  C   UNK A   1      -3.534  -2.495  24.901  0.00  0.00    +0.001 A 
ATOM     10  C   UNK A   1      -4.102  -2.545  24.305  0.00  0.00    +0.000 A 
ATOM     11  C   UNK A   1      -4.288  -1.879  23.855  0.00  0.00    +0.001 A 
ATOM     12  C   UNK A   1      -3.905  -1.163  24.001  0.00  0.00    +0.018 A 
ENDBRANCH   4   7
ENDBRANCH   3   4
ENDBRANCH   2   3
ENDBRANCH  14  13
BRANCH  23  24
ATOM     24  CB  TRP A   2       2.933   0.568  22.866  0.00  0.00    +0.059 C 
BRANCH  24  25
ATOM     25  CG  TRP A   2       3.454  -0.015  23.130  0.00  0.00    +0.001 A 
ATOM     26  CD1 TRP A   2       3.268  -0.807  23.263  0.00  0.00    +0.095 A 
ATOM     27  NE1 TRP A   2       3.951  -1.189  23.522  0.00  0.00    -0.244 NA
ATOM     28  CE2 TRP A   2       4.559  -0.633  23.548  0.00  0.00    +0.081 A 
ATOM     29  CD2 TRP A   2       4.252   0.093  23.306  0.00  0.00    +0.015 A 
ATOM     30  CE3 TRP A   2       4.740   0.758  23.277  0.00  0.00    +0.001 A 
ATOM     31  CZ3 TRP A   2       5.533   0.698  23.491  0.00  0.00    +0.000 A 
ATOM     32  CH2 TRP A   2       5.841  -0.028  23.733  0.00  0.00    +0.002 A 
ATOM     33  CZ2 TRP A   2       5.355  -0.694  23.762  0.00  0.00    +0.019 A 
ENDBRANCH  24  25
ENDBRANCH  23  24
TORSDOF 6
ENDMDL
MODEL 4
REMARK VINA RESULT:      -8.4      2.151      7.033
REMARK  Name = 
REMARK  6 active torsions:
REMARK  status: ('A' for Active; 'I' for Inactive)
REMARK    1  A    between atoms: C_2  and  C_3
REMARK    2  A    between atoms: C_3  and  S_4
REMARK    3  A    between atoms: S_4  and  C_7
REMARK    4  A    between atoms: N_13  and  C_14
REMARK    5  A    between atoms: CA_23  and  CB_24
REMARK    6  A    between atoms: CB_24  and  CG_25
REMARK                            x       y       z     vdW  Elec       q    Type
REMARK                         _______ _______ _______ _____ _____    ______ ____
ROOT
ATOM     14  C   UNK A   1      -1.881   2.932  24.253  0.00  0.00    +0.099 C 
ATOM     15  C   UNK A   1      -1.242   3.333  24.585  0.00  0.00    +0.043 C 
ATOM     16  C   UNK A   1      -0.493   2.987  24.585  0.00  0.00    +0.096 C 
ATOM     17  N   UNK A   1      -0.383   2.241  24.253  0.00  0.00    -0.271 N 
ATOM     18  C   UNK A   1      -1.023   1.839  23.920  0.00  0.00    +0.155 C 
ATOM     19  C   UNK A   1      -1.772   2.185  23.920  0.00  0.00    +0.051 C 
ATOM     20  C   UNK A   1      -0.914   1.092  23.587  0.00  0.00    +0.260 C 
ATOM     21  O   UNK A   1      -1.553   0.692  23.255  0.00  0.00    -0.272 OA
ATOM     22  N   TRP A   2      -0.165   0.747  23.587  0.00  0.00    -0.196 NA
ATOM     23  CA  TRP A   2       0.475   1.148  23.919  0.00  0.00    +0.176 C 
ATOM     34  C   TRP A   2       0.365   1.894  24.252  0.00  0.00    +0.246 C 
ATOM     35  O   TRP A   2       1.005   2.296  24.585  0.00  0.00    -0.273 OA
ENDROOT
BRANCH  14  13
ATOM      1  O   UNK A   1      -2.787   2.937  25.632  0.00  0.00    -0.271 OA
ATOM      2  C   UNK A   1      -3.083   3.280  24.943  0.00  0.00    +0.266 C 
ATOM     13  N   UNK A   1      -2.631   3.278  24.253  0.00  0.00    -0.206 NA
BRANCH   2   3
ATOM      3  C   UNK A   1      -3.833   3.625  24.944  0.00  0.00    +0.242 C 
BRANCH   3   4
ATOM      4  S   UNK A   1      -4.497   3.169  25.117  0.00  0.00    +0.018 S 
ATOM      5  O   UNK A   1      -4.634   3.061  24.311  0.00  0.00    -0.168 OA
ATOM      6  O   UNK A   1      -4.361   3.277  25.924  0.00  0.00    -0.168 OA
BRANCH   4   7
ATOM      7  C   UNK A   1      -5.162   2.712  25.291  0.00  0.00    +0.106 A 
ATOM      8  C   UNK A   1      -5.576   2.836  25.995  0.00  0.00    +0.018 A 
ATOM      9  C   UNK A   1      -6.240   2.380  26.168  0.00  0.00    +0.001 A 
ATOM     10  C   UNK A   1      -6.492   1.799  25.639  0.00  0.00    +0.000 A 
ATOM     11  C   UNK A   1      -6.079   1.675  24.936  0.00  0.00    +0.001 A 
ATOM     12  C   UNK A   1      -5.414   2.132  24.762  0.00  0.00    +0.018 A 
ENDBRANCH   4   7
ENDBRANCH   3   4
ENDBRANCH   2   3
ENDBRANCH  14  13
BRANCH  23  24
ATOM     24  CB  TRP A   2       1.224   0.802  23.919  0.00  0.00    +0.059 C 
BRANCH  24  25
ATOM     25  CG  TRP A   2       1.511   0.438  23.236  0.00  0.00    +0.001 A 
ATOM     26  CD1 TRP A   2       1.080  -0.050  22.730  0.00  0.00    +0.095 A 
ATOM     27  NE1 TRP A   2       1.582  -0.291  22.121  0.00  0.00    -0.244 NA
ATOM     28  CE2 TRP A   2       2.322   0.048  22.252  0.00  0.00    +0.081 A 
ATOM     29  CD2 TRP A   2       2.278   0.499  22.942  0.00  0.00    +0.015 A 
ATOM     30  CE3 TRP A   2       2.944   0.906  23.211  0.00  0.00    +0.001 A 
ATOM     31  CZ3 TRP A   2       3.652   0.862  22.792  0.00  0.00    +0.000 A 
ATOM     32  CH2 TRP A   2       3.696   0.412  22.102  0.00  0.00    +0.002 A 
ATOM     33  CZ2 TRP A   2       3.032   0.004  21.832  0.00  0.00    +0.019 A 
ENDBRANCH  24  25
ENDBRANCH  23  24
TORSDOF 6
ENDMDL
MODEL 5
REMARK VINA RESULT:      -8.4      1.711      6.778
REMARK  Name = 
REMARK  6 active torsions:
REMARK  status: ('A' for Active; 'I' for Inactive)
REMARK    1  A    between atoms: C_2  and  C_3
REMARK    2  A    between atoms: C_3  and  S_4
REMARK    3  A    between atoms: S_4  and  C_7
REMARK    4  A    between atoms: N_13  and  C_14
REMARK    5  A    between atoms: CA_23  and  CB_24
REMARK    6  A    between atoms: CB_24  and  CG_25
REMARK                            x       y       z     vdW  Elec       q    Type
REMARK                         _______ _______ _______ _____ _____    ______ ____
ROOT
ATOM     14  C   UNK A   1      -0.893   0.395  24.453  0.00  0.00    +0.099 C 
ATOM     15  C   UNK A   1      -0.842  -0.351  24.105  0.00  0.00    +0.043 C 
ATOM     16  C   UNK A   1      -0.170  -0.561  23.675  0.00  0.00    +0.096 C 
ATOM     17  N   UNK A   1       0.451  -0.024  23.592  0.00  0.00    -0.271 N 
ATOM     18  C   UNK A   1       0.400   0.723  23.940  0.00  0.00    +0.155 C 
ATOM     19  C   UNK A   1      -0.272   0.932  24.370  0.00  0.00    +0.051 C 
ATOM     20  C   UNK A   1       1.021   1.259  23.858  0.00  0.00    +0.260 C 
ATOM     21  O   UNK A   1       0.970   2.005  24.206  0.00  0.00    -0.272 OA
ATOM     22  N   TRP A   2       1.693   1.049  23.428  0.00  0.00    -0.196 NA
ATOM     23  CA  TRP A   2       1.745   0.303  23.080  0.00  0.00    +0.176 C 
ATOM     34  C   TRP A   2       1.123  -0.233  23.162  0.00  0.00    +0.246 C 
ATOM     35  O   TRP A   2       1.174  -0.980  22.814  0.00  0.00    -0.273 OA
ENDROOT
BRANCH  14  13
ATOM      1  O   UNK A   1      -2.286   0.794  23.663  0.00  0.00    -0.271 OA
ATOM      2  C   UNK A   1      -2.261   0.805  24.488  0.00  0.00    +0.266 C 
ATOM     13  N   UNK A   1      -1.565   0.605  24.883  0.00  0.00    -0.206 NA
BRANCH   2   3
ATOM      3  C   UNK A   1      -2.934   1.015  24.918  0.00  0.00    +0.242 C 
BRANCH   3   4
ATOM      4  S   UNK A   1      -3.307   1.736  24.774  0.00  0.00    +0.018 S 
ATOM      5  O   UNK A   1      -3.801   1.371  24.223  0.00  0.00    -0.168 OA
ATOM      6  O   UNK A   1      -2.812   2.101  25.324  0.00  0.00    -0.168 OA
BRANCH   4   7
ATOM      7  C   UNK A   1      -3.680   2.458  24.630  0.00  0.00    +0.106 A 
ATOM      8  C   UNK A   1      -4.228   2.754  25.171  0.00  0.00    +0.018 A 
ATOM      9  C   UNK A   1      -4.601   3.476  25.027  0.00  0.00    +0.001 A 
ATOM     10  C   UNK A   1      -4.426   3.901  24.342  0.00  0.00    +0.000 A 
ATOM     11  C   UNK A   1      -3.878   3.606  23.802  0.00  0.00    +0.001 A 
ATOM     12  C   UNK A   1      -3.505   2.884  23.946  0.00  0.00    +0.018 A 
ENDBRANCH   4   7
ENDBRANCH   3   4
ENDBRANCH   2   3
ENDBRANCH  14  13
BRANCH  23  24
ATOM     24  CB  TRP A   2       2.417   0.093  22.650  0.00  0.00    +0.059 C 
BRANCH  24  25
ATOM     25  CG  TRP A   2       3.136   0.469  22.799  0.00  0.00    +0.001 A 
ATOM     26  CD1 TRP A   2       3.301   1.267  22.676  0.00  0.00    +0.095 A 
ATOM     27  NE1 TRP A   2       4.083   1.403  22.897  0.00  0.00    -0.244 NA
ATOM     28  CE2 TRP A   2       4.402   0.689  23.157  0.00  0.00    +0.081 A 
ATOM     29  CD2 TRP A   2       3.816   0.111  23.096  0.00  0.00    +0.015 A 
ATOM     30  CE3 TRP A   2       3.980  -0.667  23.320  0.00  0.00    +0.001 A 
ATOM     31  CZ3 TRP A   2       4.727  -0.866  23.605  0.00  0.00    +0.000 A 
ATOM     32  CH2 TRP A   2       5.313  -0.288  23.666  0.00  0.00    +0.002 A 
ATOM     33  CZ2 TRP A   2       5.151   0.489  23.442  0.00  0.00    +0.019 A 
ENDBRANCH  24  25
ENDBRANCH  23  24
TORSDOF 6
ENDMDL
MODEL 6
REMARK VINA RESULT:      -7.6     15.201     16.823
REMARK  Name = 
REMARK  6 active torsions:
REMARK  status: ('A' for Active; 'I' for Inactive)
REMARK    1  A    between atoms: C_2  and  C_3
REMARK    2  A    between atoms: C_3  and  S_4
REMARK    3  A    between atoms: S_4  and  C_7
REMARK    4  A    between atoms: N_13  and  C_14
REMARK    5  A    between atoms: CA_23  and  CB_24
REMARK    6  A    between atoms: CB_24  and  CG_25
REMARK                            x       y       z     vdW  Elec       q    Type
REMARK                         _______ _______ _______ _____ _____    ______ ____
ROOT
ATOM     14  C   UNK A   1      -6.266 -10.589  15.471  0.00  0.00    +0.099 C 
ATOM     15  C   UNK A   1      -5.448 -10.525  15.553  0.00  0.00    +0.043 C 
ATOM     16  C   UNK A   1      -4.972 -10.429  14.885  0.00  0.00    +0.096 C 
ATOM     17  N   UNK A   1      -5.316 -10.397  14.136  0.00  0.00    -0.271 N 
ATOM     18  C   UNK A   1      -6.135 -10.460  14.054  0.00  0.00    +0.155 C 
ATOM     19  C   UNK A   1      -6.609 -10.557  14.722  0.00  0.00    +0.051 C 
ATOM     20  C   UNK A   1      -6.478 -10.428  13.305  0.00  0.00    +0.260 C 
ATOM     21  O   UNK A   1      -7.296 -10.492  13.223  0.00  0.00    -0.272 OA
ATOM     22  N   TRP A   2      -6.003 -10.332  12.637  0.00  0.00    -0.196 NA
ATOM     23  CA  TRP A   2      -5.185 -10.268  12.719  0.00  0.00    +0.176 C 
ATOM     34  C   TRP A   2      -4.841 -10.300  13.468  0.00  0.00    +0.246 C 
ATOM     35  O   TRP A   2      -4.022 -10.237  13.550  0.00  0.00    -0.273 OA
ENDROOT
BRANCH  14  13
ATOM      1  O   UNK A   1      -6.643  -9.285  16.409  0.00  0.00    -0.271 OA
ATOM      2  C   UNK A   1      -6.930 -10.033  16.608  0.00  0.00    +0.266 C 
ATOM     13  N   UNK A   1      -6.741 -10.685  16.139  0.00  0.00    -0.206 NA
BRANCH   2   3
ATOM      3  C   UNK A   1      -7.405 -10.129  17.275  0.00  0.00    +0.242 C 
BRANCH   3   4
ATOM      4  S   UNK A   1      -8.113  -9.710  17.342  0.00  0.00    +0.018 S 
ATOM      5  O   UNK A   1      -7.701  -9.063  17.647  0.00  0.00    -0.168 OA
ATOM      6  O   UNK A   1      -8.524 -10.357  17.037  0.00  0.00    -0.168 OA
BRANCH   4   7
ATOM      7  C   UNK A   1      -8.820  -9.291  17.408  0.00  0.00    +0.106 A 
ATOM      8  C   UNK A   1      -9.469  -9.635  17.784  0.00  0.00    +0.018 A 
ATOM      9  C   UNK A   1     -10.177  -9.216  17.851  0.00  0.00    +0.001 A 
ATOM     10  C   UNK A   1     -10.235  -8.453  17.541  0.00  0.00    +0.000 A 
ATOM     11  C   UNK A   1      -9.587  -8.110  17.165  0.00  0.00    +0.001 A 
ATOM     12  C   UNK A   1      -8.879  -8.529  17.098  0.00  0.00    +0.018 A 
ENDBRANCH   4   7
ENDBRANCH   3   4
ENDBRANCH   2   3
ENDBRANCH  14  13
BRANCH  23  24
ATOM     24  CB  TRP A   2      -4.709 -10.172  12.051  0.00  0.00    +0.059 C 
BRANCH  24  25
ATOM     25  CG  TRP A   2      -4.859  -9.555  11.523  0.00  0.00    +0.001 A 
ATOM     26  CD1 TRP A   2      -5.380  -8.928  11.645  0.00  0.00    +0.095 A 
ATOM     27  NE1 TRP A   2      -5.357  -8.444  10.978  0.00  0.00    -0.244 NA
ATOM     28  CE2 TRP A   2      -4.821  -8.772  10.444  0.00  0.00    +0.081 A 
ATOM     29  CD2 TRP A   2      -4.513  -9.459  10.781  0.00  0.00    +0.015 A 
ATOM     30  CE3 TRP A   2      -3.957  -9.908  10.368  0.00  0.00    +0.001 A 
ATOM     31  CZ3 TRP A   2      -3.709  -9.670   9.618  0.00  0.00    +0.000 A 
ATOM     32  CH2 TRP A   2      -4.017  -8.982   9.281  0.00  0.00    +0.002 A 
ATOM     33  CZ2 TRP A   2      -4.573  -8.533   9.694  0.00  0.00    +0.019 A 
ENDBRANCH  24  25
ENDBRANCH  23  24
TORSDOF 6
ENDMDL
MODEL 7
REMARK VINA RESULT:      -7.3     17.442     18.120
REMARK  Name = 
REMARK  6 active torsions:
REMARK  status: ('A' for Active; 'I' for Inactive)
REMARK    1  A    between atoms: C_2  and  C_3
REMARK    2  A    between atoms: C_3  and  S_4
REMARK    3  A    between atoms: S_4  and  C_7
REMARK    4  A    between atoms: N_13  and  C_14
REMARK    5  A    between atoms: CA_23  and  CB_24
REMARK    6  A    between atoms: CB_24  and  CG_25
REMARK                            x       y       z     vdW  Elec       q    Type
REMARK                         _______ _______ _______ _____ _____    ______ ____
ROOT
ATOM     14  C   UNK A   1      -5.909 -10.169  10.356  0.00  0.00    +0.099 C 
ATOM     15  C   UNK A   1      -6.509 -10.087  10.915  0.00  0.00    +0.043 C 
ATOM     16  C   UNK A   1      -7.181  -9.642  10.738  0.00  0.00    +0.096 C 
ATOM     17  N   UNK A   1      -7.252  -9.280  10.000  0.00  0.00    -0.271 N 
ATOM     18  C   UNK A   1      -6.652  -9.363   9.440  0.00  0.00    +0.155 C 
ATOM     19  C   UNK A   1      -5.980  -9.807   9.618  0.00  0.00    +0.051 C 
ATOM     20  C   UNK A   1      -6.724  -9.001   8.702  0.00  0.00    +0.260 C 
ATOM     21  O   UNK A   1      -6.124  -9.084   8.142  0.00  0.00    -0.272 OA
ATOM     22  N   TRP A   2      -7.396  -8.556   8.524  0.00  0.00    -0.196 NA
ATOM     23  CA  TRP A   2      -7.995  -8.474   9.084  0.00  0.00    +0.176 C 
ATOM     34  C   TRP A   2      -7.924  -8.835   9.821  0.00  0.00    +0.246 C 
ATOM     35  O   TRP A   2      -8.524  -8.753  10.382  0.00  0.00    -0.273 OA
ENDROOT
BRANCH  14  13
ATOM      1  O   UNK A   1      -4.825  -9.616  11.470  0.00  0.00    -0.271 OA
ATOM      2  C   UNK A   1      -4.695 -10.337  11.090  0.00  0.00    +0.266 C 
ATOM     13  N   UNK A   1      -5.237 -10.614  10.533  0.00  0.00    -0.206 NA
BRANCH   2   3
ATOM      3  C   UNK A   1      -4.023 -10.781  11.268  0.00  0.00    +0.242 C 
BRANCH   3   4
ATOM      4  S   UNK A   1      -3.284 -10.416  11.302  0.00  0.00    +0.018 S 
ATOM      5  O   UNK A   1      -3.446 -10.158  12.068  0.00  0.00    -0.168 OA
ATOM      6  O   UNK A   1      -3.122 -10.674  10.535  0.00  0.00    -0.168 OA
BRANCH   4   7
ATOM      7  C   UNK A   1      -2.545 -10.051  11.335  0.00  0.00    +0.106 A 
ATOM      8  C   UNK A   1      -2.007 -10.261  11.925  0.00  0.00    +0.018 A 
ATOM      9  C   UNK A   1      -1.268  -9.896  11.959  0.00  0.00    +0.001 A 
ATOM     10  C   UNK A   1      -1.067  -9.321  11.402  0.00  0.00    +0.000 A 
ATOM     11  C   UNK A   1      -1.604  -9.112  10.812  0.00  0.00    +0.001 A 
ATOM     12  C   UNK A   1      -2.343  -9.477  10.779  0.00  0.00    +0.018 A 
ENDBRANCH   4   7
ENDBRANCH   3   4
ENDBRANCH   2   3
ENDBRANCH  14  13
BRANCH  23  24
ATOM     24  CB  TRP A   2      -8.668  -8.029   8.906  0.00  0.00    +0.059 C 
BRANCH  24  25
ATOM     25  CG  TRP A   2      -8.591  -7.246   8.655  0.00  0.00    +0.001 A 
ATOM     26  CD1 TRP A   2      -7.909  -6.902   8.345  0.00  0.00    +0.095 A 
ATOM     27  NE1 TRP A   2      -8.079  -6.114   8.169  0.00  0.00    -0.244 NA
ATOM     28  CE2 TRP A   2      -8.866  -5.973   8.371  0.00  0.00    +0.081 A 
ATOM     29  CD2 TRP A   2      -9.182  -6.673   8.671  0.00  0.00    +0.015 A 
ATOM     30  CE3 TRP A   2      -9.969  -6.696   8.920  0.00  0.00    +0.001 A 
ATOM     31  CZ3 TRP A   2     -10.438  -6.021   8.869  0.00  0.00    +0.000 A 
ATOM     32  CH2 TRP A   2     -10.122  -5.320   8.568  0.00  0.00    +0.002 A 
ATOM     33  CZ2 TRP A   2      -9.336  -5.296   8.319  0.00  0.00    +0.019 A 
ENDBRANCH  24  25
ENDBRANCH  23  24
TORSDOF 6
ENDMDL
MODEL 8
REMARK VINA RESULT:      -7.2     15.329     15.968
REMARK  Name = 
REMARK  6 active torsions:
REMARK  status: ('A' for Active; 'I' for Inactive)
REMARK    1  A    between atoms: C_2  and  C_3
REMARK    2  A    between atoms: C_3  and  S_4
REMARK    3  A    between atoms: S_4  and  C_7
REMARK    4  A    between atoms: N_13  and  C_14
REMARK    5  A    between atoms: CA_23  and  CB_24
REMARK    6  A    between atoms: CB_24  and  CG_25
REMARK                            x       y       z     vdW  Elec       q    Type
REMARK                         _______ _______ _______ _____ _____    ______ ____
ROOT
ATOM     14  C   UNK A   1      -6.409 -10.344  13.469  0.00  0.00    +0.099 C 
ATOM     15  C   UNK A   1      -5.837 -10.185  14.041  0.00  0.00    +0.043 C 
ATOM     16  C   UNK A   1      -6.064 -10.012  14.815  0.00  0.00    +0.096 C 
ATOM     17  N   UNK A   1      -6.864  -9.999  15.017  0.00  0.00    -0.271 N 
ATOM     18  C   UNK A   1      -7.437 -10.159  14.445  0.00  0.00    +0.155 C 
ATOM     19  C   UNK A   1      -7.209 -10.331  13.671  0.00  0.00    +0.051 C 
ATOM     20  C   UNK A   1      -8.236 -10.146  14.647  0.00  0.00    +0.260 C 
ATOM     21  O   UNK A   1      -8.808 -10.306  14.075  0.00  0.00    -0.272 OA
ATOM     22  N   TRP A   2      -8.463  -9.974  15.421  0.00  0.00    -0.196 NA
ATOM     23  CA  TRP A   2      -7.891  -9.814  15.993  0.00  0.00    +0.176 C 
ATOM     34  C   TRP A   2      -7.092  -9.827  15.791  0.00  0.00    +0.246 C 
ATOM     35  O   TRP A   2      -6.519  -9.667  16.364  0.00  0.00    -0.273 OA
ENDROOT
BRANCH  14  13
ATOM      1  O   UNK A   1      -5.868  -9.139  12.481  0.00  0.00    -0.271 OA
ATOM      2  C   UNK A   1      -5.912  -9.914  12.201  0.00  0.00    +0.266 C 
ATOM     13  N   UNK A   1      -6.182 -10.517  12.695  0.00  0.00    -0.206 NA
BRANCH   2   3
ATOM      3  C   UNK A   1      -5.685 -10.086  11.426  0.00  0.00    +0.242 C 
BRANCH   3   4
ATOM      4  S   UNK A   1      -4.932  -9.878  11.161  0.00  0.00    +0.018 S 
ATOM      5  O   UNK A   1      -5.160  -9.085  11.136  0.00  0.00    -0.168 OA
ATOM      6  O   UNK A   1      -4.704 -10.670  11.186  0.00  0.00    -0.168 OA
BRANCH   4   7
ATOM      7  C   UNK A   1      -4.179  -9.669  10.896  0.00  0.00    +0.106 A 
ATOM      8  C   UNK A   1      -4.094  -9.146  10.263  0.00  0.00    +0.018 A 
ATOM      9  C   UNK A   1      -3.342  -8.938   9.998  0.00  0.00    +0.001 A 
ATOM     10  C   UNK A   1      -2.673  -9.253  10.365  0.00  0.00    +0.000 A 
ATOM     11  C   UNK A   1      -2.757  -9.776  10.997  0.00  0.00    +0.001 A 
ATOM     12  C   UNK A   1      -3.510  -9.984  11.262  0.00  0.00    +0.018 A 
ENDBRANCH   4   7
ENDBRANCH   3   4
ENDBRANCH   2   3
ENDBRANCH  14  13
BRANCH  23  24
ATOM     24  CB  TRP A   2      -8.118  -9.642  16.767  0.00  0.00    +0.059 C 
BRANCH  24  25
ATOM     25  CG  TRP A   2      -8.772  -9.157  16.908  0.00  0.00    +0.001 A 
ATOM     26  CD1 TRP A   2      -8.931  -8.439  16.536  0.00  0.00    +0.095 A 
ATOM     27  NE1 TRP A   2      -9.638  -8.145  16.843  0.00  0.00    -0.244 NA
ATOM     28  CE2 TRP A   2      -9.914  -8.681  17.405  0.00  0.00    +0.081 A 
ATOM     29  CD2 TRP A   2      -9.378  -9.307  17.445  0.00  0.00    +0.015 A 
ATOM     30  CE3 TRP A   2      -9.513  -9.932  17.967  0.00  0.00    +0.001 A 
ATOM     31  CZ3 TRP A   2     -10.183  -9.932  18.448  0.00  0.00    +0.000 A 
ATOM     32  CH2 TRP A   2     -10.719  -9.305  18.408  0.00  0.00    +0.002 A 
ATOM     33  CZ2 TRP A   2     -10.585  -8.680  17.887  0.00  0.00    +0.019 A 
ENDBRANCH  24  25
ENDBRANCH  23  24
TORSDOF 6
ENDMDL
