REMARK  Name = 
REMARK  5 active torsions:
REMARK  status: ('A' for Active; 'I' for Inactive)
REMARK    1  A    between atoms: C_2  and  C_13
REMARK    2  A    between atoms: N_3  and  C_4
REMARK    3  A    between atoms: C_4  and  C_5
REMARK    4  A    between atoms: C_8  and  C_11
REMARK    5  A    between atoms: N_21  and  C_22
REMARK                            x       y       z     vdW  Elec       q    Type
REMARK                         _______ _______ _______ _____ _____    ______ ____
ROOT
ATOM     13  C   UNL     1       2.070   1.110   0.000  0.00  0.00    +0.161 C 
ATOM     14  C   UNL     1       1.356   0.698   0.000  0.00  0.00    +0.076 C 
ATOM     15  C   UNL     1       0.641   1.110   0.000  0.00  0.00    +0.078 A 
ATOM     16  C   UNL     1       0.641   1.935   0.000  0.00  0.00    +0.094 A 
ATOM     17  C   UNL     1       1.356   2.348   0.000  0.00  0.00    +0.143 C 
ATOM     18  N   UNL     1       2.070   1.935   0.000  0.00  0.00    -0.250 N 
ATOM     19  C   UNL     1       2.784   2.348   0.000  0.00  0.00    +0.324 C 
ATOM     20  O   UNL     1       3.499   1.935   0.000  0.00  0.00    -0.251 OA
ATOM     21  N   UNL     1       2.784   3.173   0.000  0.00  0.00    -0.190 NA
ATOM     28  N   UNL     1      -0.143   2.190   0.000  0.00  0.00    -0.225 NA
ATOM     29  C   UNL     1      -0.628   1.523   0.000  0.00  0.00    +0.198 A 
ATOM     30  N   UNL     1      -0.143   0.856   0.000  0.00  0.00    -0.227 NA
ENDROOT
BRANCH  21  22
ATOM     22  C   UNL     1       2.070   3.585   0.000  0.00  0.00    +0.097 C 
ATOM     23  C   UNL     1       1.356   3.173   0.000  0.00  0.00    +0.022 C 
ATOM     24  C   UNL     1       0.641   3.585   0.000  0.00  0.00    +0.002 C 
ATOM     25  C   UNL     1       0.641   4.410   0.000  0.00  0.00    +0.000 C 
ATOM     26  C   UNL     1       1.356   4.823   0.000  0.00  0.00    +0.002 C 
ATOM     27  C   UNL     1       2.070   4.410   0.000  0.00  0.00    +0.022 C 
ENDBRANCH  21  22
BRANCH  13   2
ATOM      1  O   UNL     1       3.499   1.110   0.000  0.00  0.00    -0.272 OA
ATOM      2  C   UNL     1       2.784   0.698   0.000  0.00  0.00    +0.260 C 
ATOM      3  N   UNL     1       2.784  -0.127   0.000  0.00  0.00    -0.199 NA
BRANCH   3   4
ATOM      4  C   UNL     1       3.499  -0.540   0.000  0.00  0.00    +0.142 C 
BRANCH   4   5
ATOM      5  C   UNL     1       3.499  -1.365   0.000  0.00  0.00    -0.001 A 
ATOM      6  C   UNL     1       4.213  -1.777   0.000  0.00  0.00    -0.002 A 
ATOM      7  C   UNL     1       4.213  -2.602   0.000  0.00  0.00    +0.010 A 
ATOM      8  C   UNL     1       3.499  -3.015   0.000  0.00  0.00    +0.068 A 
ATOM      9  C   UNL     1       2.784  -2.602   0.000  0.00  0.00    +0.010 A 
ATOM     10  C   UNL     1       2.784  -1.777   0.000  0.00  0.00    -0.002 A 
BRANCH   8  11
ATOM     11  C   UNL     1       3.499  -3.840   0.000  0.00  0.00    +0.100 C 
ATOM     12  N   UNL     1       3.499  -4.665   0.000  0.00  0.00    -0.191 NA
ENDBRANCH   8  11
ENDBRANCH   4   5
ENDBRANCH   3   4
ENDBRANCH  13   2
TORSDOF 5
