MODEL 1
REMARK VINA RESULT:      -8.9      0.000      0.000
REMARK  Name = 
REMARK  6 active torsions:
REMARK  status: ('A' for Active; 'I' for Inactive)
REMARK    1  A    between atoms: O_2  and  C_3
REMARK    2  A    between atoms: C_3  and  C_4
REMARK    3  A    between atoms: N_6  and  C_7
REMARK    4  A    between atoms: C_10  and  C_13
REMARK    5  A    between atoms: N_18  and  C_19
REMARK    6  A    between atoms: C_22  and  C_23
REMARK                            x       y       z     vdW  Elec       q    Type
REMARK                         _______ _______ _______ _____ _____    ______ ____
ROOT
ATOM      7  C   UNL     1      -3.382   2.052  24.379  0.00  0.00    +0.073 A 
ATOM      8  C   UNL     1      -2.991   1.619  23.796  0.00  0.00    +0.016 A 
ATOM      9  C   UNL     1      -3.106   0.805  23.738  0.00  0.00    -0.001 A 
ATOM     10  C   UNL     1      -3.615   0.422  24.265  0.00  0.00    +0.006 A 
ATOM     11  C   UNL     1      -4.006   0.854  24.848  0.00  0.00    -0.001 A 
ATOM     12  C   UNL     1      -3.890   1.669  24.906  0.00  0.00    +0.016 A 
ENDROOT
BRANCH  10  13
ATOM     13  C   UNL     1      -3.730  -0.393  24.207  0.00  0.00    +0.159 C 
ATOM     14  O   UNL     1      -4.381  -0.690  23.797  0.00  0.00    -0.341 OA
ATOM     15  C   UNL     1      -4.496  -1.505  23.739  0.00  0.00    +0.227 C 
ATOM     16  C   UNL     1      -3.960  -2.023  24.092  0.00  0.00    +0.256 C 
ATOM     17  O   UNL     1      -4.074  -2.838  24.034  0.00  0.00    -0.272 OA
ATOM     18  N   UNL     1      -3.307  -1.726  24.502  0.00  0.00    -0.275 N 
ATOM     22  C   UNL     1      -3.193  -0.911  24.559  0.00  0.00    +0.139 C 
BRANCH  18  19
ATOM     19  C   UNL     1      -2.771  -2.244  24.853  0.00  0.00    +0.076 C 
ATOM     20  C   UNL     1      -2.944  -2.583  25.585  0.00  0.00    +0.022 C 
ATOM     21  C   UNL     1      -2.061  -2.423  24.473  0.00  0.00    +0.022 C 
ENDBRANCH  18  19
BRANCH  22  23
ATOM     23  C   UNL     1      -2.541  -0.615  24.969  0.00  0.00    +0.205 C 
ATOM     24  O   UNL     1      -2.501  -0.691  25.789  0.00  0.00    -0.218 OA
ENDBRANCH  22  23
ENDBRANCH  10  13
BRANCH   7   6
ATOM      4  C   UNL     1      -2.651   3.164  24.898  0.00  0.00    +0.276 C 
ATOM      5  O   UNL     1      -2.151   2.647  25.303  0.00  0.00    -0.270 OA
ATOM      6  N   UNL     1      -3.267   2.866  24.437  0.00  0.00    -0.177 NA
BRANCH   4   3
ATOM      3  C   UNL     1      -2.536   3.979  24.956  0.00  0.00    +0.229 C 
BRANCH   3   2
ATOM      1  C   UNL     1      -1.641   5.062  25.216  0.00  0.00    +0.175 C 
ATOM      2  O   UNL     1      -1.861   4.274  25.326  0.00  0.00    -0.342 OA
ENDBRANCH   3   2
ENDBRANCH   4   3
ENDBRANCH   7   6
TORSDOF 6
ENDMDL
MODEL 2
REMARK VINA RESULT:      -8.6      1.739      2.171
REMARK  Name = 
REMARK  6 active torsions:
REMARK  status: ('A' for Active; 'I' for Inactive)
REMARK    1  A    between atoms: O_2  and  C_3
REMARK    2  A    between atoms: C_3  and  C_4
REMARK    3  A    between atoms: N_6  and  C_7
REMARK    4  A    between atoms: C_10  and  C_13
REMARK    5  A    between atoms: N_18  and  C_19
REMARK    6  A    between atoms: C_22  and  C_23
REMARK                            x       y       z     vdW  Elec       q    Type
REMARK                         _______ _______ _______ _____ _____    ______ ____
ROOT
ATOM      7  C   UNL     1      -4.603   0.878  24.798  0.00  0.00    +0.073 A 
ATOM      8  C   UNL     1      -4.535   0.331  25.412  0.00  0.00    +0.016 A 
ATOM      9  C   UNL     1      -4.002  -0.295  25.351  0.00  0.00    -0.001 A 
ATOM     10  C   UNL     1      -3.536  -0.375  24.674  0.00  0.00    +0.006 A 
ATOM     11  C   UNL     1      -3.603   0.171  24.060  0.00  0.00    -0.001 A 
ATOM     12  C   UNL     1      -4.137   0.798  24.121  0.00  0.00    +0.016 A 
ENDROOT
BRANCH  10  13
ATOM     13  C   UNL     1      -3.002  -1.002  24.612  0.00  0.00    +0.159 C 
ATOM     14  O   UNL     1      -3.273  -1.758  24.427  0.00  0.00    -0.341 OA
ATOM     15  C   UNL     1      -2.740  -2.385  24.366  0.00  0.00    +0.227 C 
ATOM     16  C   UNL     1      -1.935  -2.254  24.491  0.00  0.00    +0.256 C 
ATOM     17  O   UNL     1      -1.401  -2.880  24.430  0.00  0.00    -0.272 OA
ATOM     18  N   UNL     1      -1.663  -1.497  24.676  0.00  0.00    -0.275 N 
ATOM     22  C   UNL     1      -2.197  -0.871  24.737  0.00  0.00    +0.139 C 
BRANCH  18  19
ATOM     19  C   UNL     1      -0.859  -1.366  24.801  0.00  0.00    +0.076 C 
ATOM     20  C   UNL     1      -0.518  -1.552  25.528  0.00  0.00    +0.022 C 
ATOM     21  C   UNL     1      -0.394  -1.050  24.196  0.00  0.00    +0.022 C 
ENDBRANCH  18  19
BRANCH  22  23
ATOM     23  C   UNL     1      -1.926  -0.114  24.923  0.00  0.00    +0.205 C 
ATOM     24  O   UNL     1      -1.634   0.045  25.677  0.00  0.00    -0.218 OA
ENDBRANCH  22  23
ENDBRANCH  10  13
BRANCH   7   6
ATOM      4  C   UNL     1      -4.879   2.240  25.129  0.00  0.00    +0.276 C 
ATOM      5  O   UNL     1      -4.088   2.350  25.337  0.00  0.00    -0.270 OA
ATOM      6  N   UNL     1      -5.136   1.504  24.859  0.00  0.00    -0.177 NA
BRANCH   4   3
ATOM      3  C   UNL     1      -5.412   2.866  25.190  0.00  0.00    +0.229 C 
BRANCH   3   2
ATOM      1  C   UNL     1      -5.712   4.200  25.605  0.00  0.00    +0.175 C 
ATOM      2  O   UNL     1      -5.176   3.576  25.536  0.00  0.00    -0.342 OA
ENDBRANCH   3   2
ENDBRANCH   4   3
ENDBRANCH   7   6
TORSDOF 6
ENDMDL
MODEL 3
REMARK VINA RESULT:      -8.5      1.515      2.135
REMARK  Name = 
REMARK  6 active torsions:
REMARK  status: ('A' for Active; 'I' for Inactive)
REMARK    1  A    between atoms: O_2  and  C_3
REMARK    2  A    between atoms: C_3  and  C_4
REMARK    3  A    between atoms: N_6  and  C_7
REMARK    4  A    between atoms: C_10  and  C_13
REMARK    5  A    between atoms: N_18  and  C_19
REMARK    6  A    between atoms: C_22  and  C_23
REMARK                            x       y       z     vdW  Elec       q    Type
REMARK                         _______ _______ _______ _____ _____    ______ ____
ROOT
ATOM      7  C   UNL     1      -0.785   1.902  24.847  0.00  0.00    +0.073 A 
ATOM      8  C   UNL     1      -0.842   1.447  25.533  0.00  0.00    +0.016 A 
ATOM      9  C   UNL     1      -1.057   0.652  25.484  0.00  0.00    -0.001 A 
ATOM     10  C   UNL     1      -1.215   0.312  24.748  0.00  0.00    +0.006 A 
ATOM     11  C   UNL     1      -1.158   0.767  24.063  0.00  0.00    -0.001 A 
ATOM     12  C   UNL     1      -0.942   1.562  24.111  0.00  0.00    +0.016 A 
ENDROOT
BRANCH  10  13
ATOM     13  C   UNL     1      -1.430  -0.483  24.699  0.00  0.00    +0.159 C 
ATOM     14  O   UNL     1      -0.857  -1.058  24.557  0.00  0.00    -0.341 OA
ATOM     15  C   UNL     1      -1.072  -1.853  24.508  0.00  0.00    +0.227 C 
ATOM     16  C   UNL     1      -1.862  -2.073  24.602  0.00  0.00    +0.256 C 
ATOM     17  O   UNL     1      -2.078  -2.867  24.554  0.00  0.00    -0.272 OA
ATOM     18  N   UNL     1      -2.437  -1.497  24.744  0.00  0.00    -0.275 N 
ATOM     22  C   UNL     1      -2.220  -0.702  24.793  0.00  0.00    +0.139 C 
BRANCH  18  19
ATOM     19  C   UNL     1      -3.225  -1.716  24.838  0.00  0.00    +0.076 C 
ATOM     20  C   UNL     1      -3.548  -1.786  25.594  0.00  0.00    +0.022 C 
ATOM     21  C   UNL     1      -3.694  -1.866  24.175  0.00  0.00    +0.022 C 
ENDBRANCH  18  19
BRANCH  22  23
ATOM     23  C   UNL     1      -2.795  -0.127  24.935  0.00  0.00    +0.205 C 
ATOM     24  O   UNL     1      -3.349   0.055  24.351  0.00  0.00    -0.218 OA
ENDBRANCH  22  23
ENDBRANCH  10  13
BRANCH   7   6
ATOM      4  C   UNL     1      -1.148   3.276  25.004  0.00  0.00    +0.276 C 
ATOM      5  O   UNL     1      -1.943   3.059  25.063  0.00  0.00    -0.270 OA
ATOM      6  N   UNL     1      -0.570   2.697  24.896  0.00  0.00    -0.177 NA
BRANCH   4   3
ATOM      3  C   UNL     1      -0.933   4.070  25.053  0.00  0.00    +0.229 C 
BRANCH   3   2
ATOM      1  C   UNL     1      -1.311   5.448  25.058  0.00  0.00    +0.175 C 
ATOM      2  O   UNL     1      -1.513   4.651  25.127  0.00  0.00    -0.342 OA
ENDBRANCH   3   2
ENDBRANCH   4   3
ENDBRANCH   7   6
TORSDOF 6
ENDMDL
MODEL 4
REMARK VINA RESULT:      -8.4      1.486      4.677
REMARK  Name = 
REMARK  6 active torsions:
REMARK  status: ('A' for Active; 'I' for Inactive)
REMARK    1  A    between atoms: O_2  and  C_3
REMARK    2  A    between atoms: C_3  and  C_4
REMARK    3  A    between atoms: N_6  and  C_7
REMARK    4  A    between atoms: C_10  and  C_13
REMARK    5  A    between atoms: N_18  and  C_19
REMARK    6  A    between atoms: C_22  and  C_23
REMARK                            x       y       z     vdW  Elec       q    Type
REMARK                         _______ _______ _______ _____ _____    ______ ____
ROOT
ATOM      7  C   UNL     1      -3.821  -0.785  24.599  0.00  0.00    +0.073 A 
ATOM      8  C   UNL     1      -3.967  -0.540  25.373  0.00  0.00    +0.016 A 
ATOM      9  C   UNL     1      -4.264   0.215  25.519  0.00  0.00    -0.001 A 
ATOM     10  C   UNL     1      -4.415   0.727  24.889  0.00  0.00    +0.006 A 
ATOM     11  C   UNL     1      -4.269   0.483  24.115  0.00  0.00    -0.001 A 
ATOM     12  C   UNL     1      -3.971  -0.273  23.969  0.00  0.00    +0.016 A 
ENDROOT
BRANCH  10  13
ATOM     13  C   UNL     1      -4.712   1.483  25.034  0.00  0.00    +0.159 C 
ATOM     14  O   UNL     1      -5.506   1.583  25.235  0.00  0.00    -0.341 OA
ATOM     15  C   UNL     1      -5.803   2.339  25.381  0.00  0.00    +0.227 C 
ATOM     16  C   UNL     1      -5.305   2.995  25.326  0.00  0.00    +0.256 C 
ATOM     17  O   UNL     1      -5.601   3.751  25.471  0.00  0.00    -0.272 OA
ATOM     18  N   UNL     1      -4.511   2.895  25.125  0.00  0.00    -0.275 N 
ATOM     22  C   UNL     1      -4.215   2.139  24.980  0.00  0.00    +0.139 C 
BRANCH  18  19
ATOM     19  C   UNL     1      -4.014   3.550  25.070  0.00  0.00    +0.076 C 
ATOM     20  C   UNL     1      -3.663   3.861  25.750  0.00  0.00    +0.022 C 
ATOM     21  C   UNL     1      -3.866   3.897  24.336  0.00  0.00    +0.022 C 
ENDBRANCH  18  19
BRANCH  22  23
ATOM     23  C   UNL     1      -3.420   2.039  24.779  0.00  0.00    +0.205 C 
ATOM     24  O   UNL     1      -2.833   2.177  25.342  0.00  0.00    -0.218 OA
ENDBRANCH  22  23
ENDBRANCH  10  13
BRANCH   7   6
ATOM      4  C   UNL     1      -2.717  -1.692  24.543  0.00  0.00    +0.276 C 
ATOM      5  O   UNL     1      -2.208  -1.086  24.778  0.00  0.00    -0.270 OA
ATOM      6  N   UNL     1      -3.524  -1.540  24.454  0.00  0.00    -0.177 NA
BRANCH   4   3
ATOM      3  C   UNL     1      -2.420  -2.447  24.398  0.00  0.00    +0.229 C 
BRANCH   3   2
ATOM      1  C   UNL     1      -1.344  -3.228  23.874  0.00  0.00    +0.175 C 
ATOM      2  O   UNL     1      -1.613  -2.555  24.269  0.00  0.00    -0.342 OA
ENDBRANCH   3   2
ENDBRANCH   4   3
ENDBRANCH   7   6
TORSDOF 6
ENDMDL
MODEL 5
REMARK VINA RESULT:      -8.3      2.645      4.203
REMARK  Name = 
REMARK  6 active torsions:
REMARK  status: ('A' for Active; 'I' for Inactive)
REMARK    1  A    between atoms: O_2  and  C_3
REMARK    2  A    between atoms: C_3  and  C_4
REMARK    3  A    between atoms: N_6  and  C_7
REMARK    4  A    between atoms: C_10  and  C_13
REMARK    5  A    between atoms: N_18  and  C_19
REMARK    6  A    between atoms: C_22  and  C_23
REMARK                            x       y       z     vdW  Elec       q    Type
REMARK                         _______ _______ _______ _____ _____    ______ ____
ROOT
ATOM      7  C   UNL     1      -1.554   2.071  24.136  0.00  0.00    +0.073 A 
ATOM      8  C   UNL     1      -1.677   2.196  24.943  0.00  0.00    +0.016 A 
ATOM      9  C   UNL     1      -2.411   2.457  25.213  0.00  0.00    -0.001 A 
ATOM     10  C   UNL     1      -3.024   2.594  24.676  0.00  0.00    +0.006 A 
ATOM     11  C   UNL     1      -2.901   2.470  23.870  0.00  0.00    -0.001 A 
ATOM     12  C   UNL     1      -2.167   2.209  23.599  0.00  0.00    +0.016 A 
ENDROOT
BRANCH  10  13
ATOM     13  C   UNL     1      -3.758   2.856  24.947  0.00  0.00    +0.159 C 
ATOM     14  O   UNL     1      -3.864   3.647  25.154  0.00  0.00    -0.341 OA
ATOM     15  C   UNL     1      -4.598   3.909  25.425  0.00  0.00    +0.227 C 
ATOM     16  C   UNL     1      -5.227   3.378  25.489  0.00  0.00    +0.256 C 
ATOM     17  O   UNL     1      -5.961   3.638  25.759  0.00  0.00    -0.272 OA
ATOM     18  N   UNL     1      -5.121   2.586  25.282  0.00  0.00    -0.275 N 
ATOM     22  C   UNL     1      -4.386   2.325  25.011  0.00  0.00    +0.139 C 
BRANCH  18  19
ATOM     19  C   UNL     1      -5.748   2.056  25.346  0.00  0.00    +0.076 C 
ATOM     20  C   UNL     1      -6.189   1.855  24.678  0.00  0.00    +0.022 C 
ATOM     21  C   UNL     1      -5.936   1.725  26.078  0.00  0.00    +0.022 C 
ENDBRANCH  18  19
BRANCH  22  23
ATOM     23  C   UNL     1      -4.280   1.533  24.804  0.00  0.00    +0.205 C 
ATOM     24  O   UNL     1      -4.291   0.950  25.388  0.00  0.00    -0.218 OA
ENDBRANCH  22  23
ENDBRANCH  10  13
BRANCH   7   6
ATOM      4  C   UNL     1      -0.631   1.007  23.896  0.00  0.00    +0.276 C 
ATOM      5  O   UNL     1      -1.177   0.465  24.196  0.00  0.00    -0.270 OA
ATOM      6  N   UNL     1      -0.821   1.810  23.866  0.00  0.00    -0.177 NA
BRANCH   4   3
ATOM      3  C   UNL     1       0.102   0.746  23.625  0.00  0.00    +0.229 C 
BRANCH   3   2
ATOM      1  C   UNL     1       0.909  -0.295  23.070  0.00  0.00    +0.175 C 
ATOM      2  O   UNL     1       0.216  -0.050  23.444  0.00  0.00    -0.342 OA
ENDBRANCH   3   2
ENDBRANCH   4   3
ENDBRANCH   7   6
TORSDOF 6
ENDMDL
MODEL 6
REMARK VINA RESULT:      -8.3      1.074      4.836
REMARK  Name = 
REMARK  6 active torsions:
REMARK  status: ('A' for Active; 'I' for Inactive)
REMARK    1  A    between atoms: O_2  and  C_3
REMARK    2  A    between atoms: C_3  and  C_4
REMARK    3  A    between atoms: N_6  and  C_7
REMARK    4  A    between atoms: C_10  and  C_13
REMARK    5  A    between atoms: N_18  and  C_19
REMARK    6  A    between atoms: C_22  and  C_23
REMARK                            x       y       z     vdW  Elec       q    Type
REMARK                         _______ _______ _______ _____ _____    ______ ____
ROOT
ATOM      7  C   UNL     1      -3.987   0.101  24.273  0.00  0.00    +0.073 A 
ATOM      8  C   UNL     1      -4.144   0.473  24.993  0.00  0.00    +0.016 A 
ATOM      9  C   UNL     1      -3.908   1.254  25.114  0.00  0.00    -0.001 A 
ATOM     10  C   UNL     1      -3.516   1.665  24.515  0.00  0.00    +0.006 A 
ATOM     11  C   UNL     1      -3.359   1.294  23.796  0.00  0.00    -0.001 A 
ATOM     12  C   UNL     1      -3.594   0.512  23.674  0.00  0.00    +0.016 A 
ENDROOT
BRANCH  10  13
ATOM     13  C   UNL     1      -3.281   2.446  24.637  0.00  0.00    +0.159 C 
ATOM     14  O   UNL     1      -3.803   3.064  24.479  0.00  0.00    -0.341 OA
ATOM     15  C   UNL     1      -3.568   3.846  24.601  0.00  0.00    +0.227 C 
ATOM     16  C   UNL     1      -2.809   4.009  24.881  0.00  0.00    +0.256 C 
ATOM     17  O   UNL     1      -2.573   4.789  25.003  0.00  0.00    -0.272 OA
ATOM     18  N   UNL     1      -2.286   3.390  25.039  0.00  0.00    -0.275 N 
ATOM     22  C   UNL     1      -2.522   2.609  24.917  0.00  0.00    +0.139 C 
BRANCH  18  19
ATOM     19  C   UNL     1      -1.528   3.553  25.319  0.00  0.00    +0.076 C 
ATOM     20  C   UNL     1      -1.356   3.466  26.121  0.00  0.00    +0.022 C 
ATOM     21  C   UNL     1      -0.940   3.803  24.796  0.00  0.00    +0.022 C 
ENDBRANCH  18  19
BRANCH  22  23
ATOM     23  C   UNL     1      -1.998   1.991  25.075  0.00  0.00    +0.205 C 
ATOM     24  O   UNL     1      -1.340   1.875  24.591  0.00  0.00    -0.218 OA
ENDBRANCH  22  23
ENDBRANCH  10  13
BRANCH   7   6
ATOM      4  C   UNL     1      -3.724  -1.300  24.370  0.00  0.00    +0.276 C 
ATOM      5  O   UNL     1      -2.989  -1.138  24.711  0.00  0.00    -0.270 OA
ATOM      6  N   UNL     1      -4.222  -0.679  24.152  0.00  0.00    -0.177 NA
BRANCH   4   3
ATOM      3  C   UNL     1      -3.959  -2.080  24.249  0.00  0.00    +0.229 C 
BRANCH   3   2
ATOM      1  C   UNL     1      -3.597  -3.463  24.248  0.00  0.00    +0.175 C 
ATOM      2  O   UNL     1      -3.503  -2.699  24.547  0.00  0.00    -0.342 OA
ENDBRANCH   3   2
ENDBRANCH   4   3
ENDBRANCH   7   6
TORSDOF 6
ENDMDL
MODEL 7
REMARK VINA RESULT:      -7.9      2.011      2.718
REMARK  Name = 
REMARK  6 active torsions:
REMARK  status: ('A' for Active; 'I' for Inactive)
REMARK    1  A    between atoms: O_2  and  C_3
REMARK    2  A    between atoms: C_3  and  C_4
REMARK    3  A    between atoms: N_6  and  C_7
REMARK    4  A    between atoms: C_10  and  C_13
REMARK    5  A    between atoms: N_18  and  C_19
REMARK    6  A    between atoms: C_22  and  C_23
REMARK                            x       y       z     vdW  Elec       q    Type
REMARK                         _______ _______ _______ _____ _____    ______ ____
ROOT
ATOM      7  C   UNL     1      -2.916   2.620  24.450  0.00  0.00    +0.073 A 
ATOM      8  C   UNL     1      -2.282   2.559  24.975  0.00  0.00    +0.016 A 
ATOM      9  C   UNL     1      -1.724   1.959  24.881  0.00  0.00    -0.001 A 
ATOM     10  C   UNL     1      -1.800   1.419  24.260  0.00  0.00    +0.006 A 
ATOM     11  C   UNL     1      -2.433   1.480  23.736  0.00  0.00    -0.001 A 
ATOM     12  C   UNL     1      -2.992   2.080  23.830  0.00  0.00    +0.016 A 
ENDROOT
BRANCH  10  13
ATOM     13  C   UNL     1      -1.242   0.818  24.166  0.00  0.00    +0.159 C 
ATOM     14  O   UNL     1      -0.548   0.962  23.744  0.00  0.00    -0.341 OA
ATOM     15  C   UNL     1       0.010   0.361  23.650  0.00  0.00    +0.227 C 
ATOM     16  C   UNL     1      -0.127  -0.383  23.979  0.00  0.00    +0.256 C 
ATOM     17  O   UNL     1       0.431  -0.984  23.885  0.00  0.00    -0.272 OA
ATOM     18  N   UNL     1      -0.821  -0.527  24.401  0.00  0.00    -0.275 N 
ATOM     22  C   UNL     1      -1.378   0.074  24.495  0.00  0.00    +0.139 C 
BRANCH  18  19
ATOM     19  C   UNL     1      -0.957  -1.271  24.729  0.00  0.00    +0.076 C 
ATOM     20  C   UNL     1      -0.605  -1.477  25.446  0.00  0.00    +0.022 C 
ATOM     21  C   UNL     1      -1.447  -1.810  24.341  0.00  0.00    +0.022 C 
ENDBRANCH  18  19
BRANCH  22  23
ATOM     23  C   UNL     1      -2.073  -0.070  24.917  0.00  0.00    +0.205 C 
ATOM     24  O   UNL     1      -2.041  -0.194  25.732  0.00  0.00    -0.218 OA
ENDBRANCH  22  23
ENDBRANCH  10  13
BRANCH   7   6
ATOM      4  C   UNL     1      -4.157   3.083  24.985  0.00  0.00    +0.276 C 
ATOM      5  O   UNL     1      -4.284   2.344  25.332  0.00  0.00    -0.270 OA
ATOM      6  N   UNL     1      -3.473   3.220  24.545  0.00  0.00    -0.177 NA
BRANCH   4   3
ATOM      3  C   UNL     1      -4.715   3.683  25.080  0.00  0.00    +0.229 C 
BRANCH   3   2
ATOM      1  C   UNL     1      -5.937   4.159  25.648  0.00  0.00    +0.175 C 
ATOM      2  O   UNL     1      -5.375   3.561  25.559  0.00  0.00    -0.342 OA
ENDBRANCH   3   2
ENDBRANCH   4   3
ENDBRANCH   7   6
TORSDOF 6
ENDMDL
MODEL 8
REMARK VINA RESULT:      -7.7      1.395      5.208
REMARK  Name = 
REMARK  6 active torsions:
REMARK  status: ('A' for Active; 'I' for Inactive)
REMARK    1  A    between atoms: O_2  and  C_3
REMARK    2  A    between atoms: C_3  and  C_4
REMARK    3  A    between atoms: N_6  and  C_7
REMARK    4  A    between atoms: C_10  and  C_13
REMARK    5  A    between atoms: N_18  and  C_19
REMARK    6  A    between atoms: C_22  and  C_23
REMARK                            x       y       z     vdW  Elec       q    Type
REMARK                         _______ _______ _______ _____ _____    ______ ____
ROOT
ATOM      7  C   UNL     1      -1.574  -0.126  24.711  0.00  0.00    +0.073 A 
ATOM      8  C   UNL     1      -1.408   0.204  25.449  0.00  0.00    +0.016 A 
ATOM      9  C   UNL     1      -1.303   1.018  25.523  0.00  0.00    -0.001 A 
ATOM     10  C   UNL     1      -1.362   1.505  24.858  0.00  0.00    +0.006 A 
ATOM     11  C   UNL     1      -1.528   1.176  24.121  0.00  0.00    -0.001 A 
ATOM     12  C   UNL     1      -1.634   0.361  24.046  0.00  0.00    +0.016 A 
ENDROOT
BRANCH  10  13
ATOM     13  C   UNL     1      -1.257   2.320  24.933  0.00  0.00    +0.159 C 
ATOM     14  O   UNL     1      -0.512   2.652  24.812  0.00  0.00    -0.341 OA
ATOM     15  C   UNL     1      -0.406   3.467  24.887  0.00  0.00    +0.227 C 
ATOM     16  C   UNL     1      -1.046   3.949  25.083  0.00  0.00    +0.256 C 
ATOM     17  O   UNL     1      -0.941   4.764  25.158  0.00  0.00    -0.272 OA
ATOM     18  N   UNL     1      -1.792   3.617  25.204  0.00  0.00    -0.275 N 
ATOM     22  C   UNL     1      -1.897   2.802  25.129  0.00  0.00    +0.139 C 
BRANCH  18  19
ATOM     19  C   UNL     1      -2.431   4.098  25.400  0.00  0.00    +0.076 C 
ATOM     20  C   UNL     1      -2.664   4.176  26.188  0.00  0.00    +0.022 C 
ATOM     21  C   UNL     1      -2.839   4.504  24.808  0.00  0.00    +0.022 C 
ENDBRANCH  18  19
BRANCH  22  23
ATOM     23  C   UNL     1      -2.642   2.469  25.250  0.00  0.00    +0.205 C 
ATOM     24  O   UNL     1      -3.246   2.602  24.704  0.00  0.00    -0.218 OA
ENDBRANCH  22  23
ENDBRANCH  10  13
BRANCH   7   6
ATOM      4  C   UNL     1      -2.435  -1.266  24.697  0.00  0.00    +0.276 C 
ATOM      5  O   UNL     1      -3.086  -0.775  24.832  0.00  0.00    -0.270 OA
ATOM      6  N   UNL     1      -1.680  -0.940  24.636  0.00  0.00    -0.177 NA
BRANCH   4   3
ATOM      3  C   UNL     1      -2.541  -2.080  24.623  0.00  0.00    +0.229 C 
BRANCH   3   2
ATOM      1  C   UNL     1      -3.413  -3.209  24.551  0.00  0.00    +0.175 C 
ATOM      2  O   UNL     1      -3.294  -2.407  24.701  0.00  0.00    -0.342 OA
ENDBRANCH   3   2
ENDBRANCH   4   3
ENDBRANCH   7   6
TORSDOF 6
ENDMDL
