MODEL 1
REMARK VINA RESULT:     -11.0      0.000      0.000
REMARK  Name = 
REMARK  6 active torsions:
REMARK  status: ('A' for Active; 'I' for Inactive)
REMARK    1  A    between atoms: C_2  and  C_3
REMARK    2  A    between atoms: C_5  and  C_6
REMARK    3  A    between atoms: C_6  and  N_7
REMARK    4  A    between atoms: N_10  and  C_11
REMARK    5  A    between atoms: C_18  and  N_21
REMARK    6  A    between atoms: N_24  and  C_27
REMARK                            x       y       z     vdW  Elec       q    Type
REMARK                         _______ _______ _______ _____ _____    ______ ____
ROOT
ATOM      3  C   UNL     1      -5.992   2.019  25.194  0.00  0.00    +0.180 C 
ATOM      4  O   UNL     1      -5.550   1.333  25.076  0.00  0.00    -0.350 OA
ATOM      5  C   UNL     1      -4.756   1.549  25.010  0.00  0.00    +0.154 C 
ATOM     18  C   UNL     1      -4.708   2.369  25.087  0.00  0.00    +0.120 C 
ATOM     19  C   UNL     1      -5.472   2.660  25.201  0.00  0.00    +0.198 C 
ATOM     20  O   UNL     1      -5.679   3.452  25.303  0.00  0.00    -0.219 OA
ENDROOT
BRANCH  18  21
ATOM     21  N   UNL     1      -4.018   2.819  25.056  0.00  0.00    -0.267 NA
ATOM     22  C   UNL     1      -3.613   3.001  25.752  0.00  0.00    +0.094 C 
ATOM     23  C   UNL     1      -2.922   3.452  25.721  0.00  0.00    +0.108 C 
ATOM     24  N   UNL     1      -2.637   3.720  24.994  0.00  0.00    -0.305 N 
ATOM     25  C   UNL     1      -3.042   3.538  24.300  0.00  0.00    +0.108 C 
ATOM     26  C   UNL     1      -3.732   3.088  24.330  0.00  0.00    +0.094 C 
BRANCH  24  27
ATOM     27  C   UNL     1      -1.946   4.171  24.964  0.00  0.00    +0.048 A 
ATOM     28  C   UNL     1      -1.982   4.989  25.067  0.00  0.00    +0.017 A 
ATOM     29  C   UNL     1      -1.292   5.439  25.036  0.00  0.00    +0.031 A 
ATOM     30  C   UNL     1      -0.565   5.072  24.902  0.00  0.00    +0.140 A 
ATOM     31  F   UNL     1       0.125   5.522  24.872  0.00  0.00    -0.204 F 
ATOM     32  C   UNL     1      -0.529   4.254  24.799  0.00  0.00    +0.031 A 
ATOM     33  C   UNL     1      -1.220   3.804  24.830  0.00  0.00    +0.017 A 
ENDBRANCH  24  27
ENDBRANCH  18  21
BRANCH   3   2
ATOM      1  O   UNL     1      -7.306   1.659  24.762  0.00  0.00    -0.218 OA
ATOM      2  C   UNL     1      -6.810   2.058  25.288  0.00  0.00    +0.214 C 
ENDBRANCH   3   2
BRANCH   5   6
ATOM      6  C   UNL     1      -4.122   1.035  24.889  0.00  0.00    +0.148 C 
BRANCH   6   7
ATOM      7  N   UNL     1      -4.118   0.293  25.248  0.00  0.00    -0.184 NA
ATOM      8  C   UNL     1      -3.690  -0.327  24.910  0.00  0.00    +0.344 C 
ATOM      9  O   UNL     1      -3.268  -0.205  24.213  0.00  0.00    -0.249 OA
ATOM     10  N   UNL     1      -3.686  -1.069  25.272  0.00  0.00    -0.161 NA
BRANCH  10  11
ATOM     11  C   UNL     1      -3.258  -1.689  24.934  0.00  0.00    +0.076 A 
ATOM     12  C   UNL     1      -2.444  -1.741  25.052  0.00  0.00    +0.028 A 
ATOM     13  C   UNL     1      -2.016  -2.360  24.715  0.00  0.00    +0.059 A 
ATOM     14 CL   UNL     1      -1.201  -2.412  24.834  0.00  0.00    -0.082 Cl
ATOM     15  C   UNL     1      -2.404  -2.928  24.258  0.00  0.00    +0.011 A 
ATOM     16  C   UNL     1      -3.218  -2.876  24.139  0.00  0.00    +0.002 A 
ATOM     17  C   UNL     1      -3.646  -2.257  24.477  0.00  0.00    +0.017 A 
ENDBRANCH  10  11
ENDBRANCH   6   7
ENDBRANCH   5   6
TORSDOF 6
ENDMDL
MODEL 2
REMARK VINA RESULT:     -10.5      2.728      4.316
REMARK  Name = 
REMARK  6 active torsions:
REMARK  status: ('A' for Active; 'I' for Inactive)
REMARK    1  A    between atoms: C_2  and  C_3
REMARK    2  A    between atoms: C_5  and  C_6
REMARK    3  A    between atoms: C_6  and  N_7
REMARK    4  A    between atoms: N_10  and  C_11
REMARK    5  A    between atoms: C_18  and  N_21
REMARK    6  A    between atoms: N_24  and  C_27
REMARK                            x       y       z     vdW  Elec       q    Type
REMARK                         _______ _______ _______ _____ _____    ______ ____
ROOT
ATOM      3  C   UNL     1       1.394   0.312  23.316  0.00  0.00    +0.180 C 
ATOM      4  O   UNL     1       0.767  -0.188  23.507  0.00  0.00    -0.350 OA
ATOM      5  C   UNL     1       0.171   0.268  23.851  0.00  0.00    +0.154 C 
ATOM     18  C   UNL     1       0.430   1.051  23.873  0.00  0.00    +0.120 C 
ATOM     19  C   UNL     1       1.186   1.079  23.542  0.00  0.00    +0.198 C 
ATOM     20  O   UNL     1       1.652   1.754  23.453  0.00  0.00    -0.219 OA
ENDROOT
BRANCH  18  21
ATOM     21  N   UNL     1       0.008   1.693  24.172  0.00  0.00    -0.267 NA
ATOM     22  C   UNL     1      -0.526   2.096  23.689  0.00  0.00    +0.094 C 
ATOM     23  C   UNL     1      -0.949   2.739  23.988  0.00  0.00    +0.108 C 
ATOM     24  N   UNL     1      -0.836   2.978  24.770  0.00  0.00    -0.305 N 
ATOM     25  C   UNL     1      -0.303   2.575  25.252  0.00  0.00    +0.108 C 
ATOM     26  C   UNL     1       0.120   1.932  24.953  0.00  0.00    +0.094 C 
BRANCH  24  27
ATOM     27  C   UNL     1      -1.259   3.621  25.069  0.00  0.00    +0.048 A 
ATOM     28  C   UNL     1      -0.989   4.389  24.937  0.00  0.00    +0.017 A 
ATOM     29  C   UNL     1      -1.412   5.032  25.236  0.00  0.00    +0.031 A 
ATOM     30  C   UNL     1      -2.104   4.906  25.667  0.00  0.00    +0.140 A 
ATOM     31  F   UNL     1      -2.526   5.548  25.966  0.00  0.00    -0.204 F 
ATOM     32  C   UNL     1      -2.374   4.137  25.799  0.00  0.00    +0.031 A 
ATOM     33  C   UNL     1      -1.951   3.495  25.500  0.00  0.00    +0.017 A 
ENDBRANCH  24  27
ENDBRANCH  18  21
BRANCH   3   2
ATOM      1  O   UNL     1       2.097  -0.295  22.231  0.00  0.00    -0.218 OA
ATOM      2  C   UNL     1       2.103   0.088  22.962  0.00  0.00    +0.214 C 
ENDBRANCH   3   2
BRANCH   5   6
ATOM      6  C   UNL     1      -0.555  -0.011  24.124  0.00  0.00    +0.148 C 
BRANCH   6   7
ATOM      7  N   UNL     1      -0.724  -0.817  24.099  0.00  0.00    -0.184 NA
ATOM      8  C   UNL     1      -1.468  -1.091  24.331  0.00  0.00    +0.344 C 
ATOM      9  O   UNL     1      -2.041  -0.558  24.590  0.00  0.00    -0.249 OA
ATOM     10  N   UNL     1      -1.636  -1.898  24.305  0.00  0.00    -0.161 NA
BRANCH  10  11
ATOM     11  C   UNL     1      -2.379  -2.172  24.538  0.00  0.00    +0.076 A 
ATOM     12  C   UNL     1      -2.997  -2.203  23.993  0.00  0.00    +0.028 A 
ATOM     13  C   UNL     1      -3.740  -2.476  24.225  0.00  0.00    +0.059 A 
ATOM     14 CL   UNL     1      -4.358  -2.506  23.679  0.00  0.00    -0.082 Cl
ATOM     15  C   UNL     1      -3.865  -2.718  25.004  0.00  0.00    +0.011 A 
ATOM     16  C   UNL     1      -3.247  -2.688  25.549  0.00  0.00    +0.002 A 
ATOM     17  C   UNL     1      -2.504  -2.415  25.317  0.00  0.00    +0.017 A 
ENDBRANCH  10  11
ENDBRANCH   6   7
ENDBRANCH   5   6
TORSDOF 6
ENDMDL
MODEL 3
REMARK VINA RESULT:     -10.5      3.841      5.096
REMARK  Name = 
REMARK  6 active torsions:
REMARK  status: ('A' for Active; 'I' for Inactive)
REMARK    1  A    between atoms: C_2  and  C_3
REMARK    2  A    between atoms: C_5  and  C_6
REMARK    3  A    between atoms: C_6  and  N_7
REMARK    4  A    between atoms: N_10  and  C_11
REMARK    5  A    between atoms: C_18  and  N_21
REMARK    6  A    between atoms: N_24  and  C_27
REMARK                            x       y       z     vdW  Elec       q    Type
REMARK                         _______ _______ _______ _____ _____    ______ ____
ROOT
ATOM      3  C   UNL     1      -1.069  -1.047  24.477  0.00  0.00    +0.180 C 
ATOM      4  O   UNL     1      -0.371  -0.891  24.066  0.00  0.00    -0.350 OA
ATOM      5  C   UNL     1      -0.256  -0.074  24.059  0.00  0.00    +0.154 C 
ATOM     18  C   UNL     1      -0.883   0.275  24.466  0.00  0.00    +0.120 C 
ATOM     19  C   UNL     1      -1.386  -0.327  24.724  0.00  0.00    +0.198 C 
ATOM     20  O   UNL     1      -2.083  -0.225  25.155  0.00  0.00    -0.219 OA
ENDROOT
BRANCH  18  21
ATOM     21  N   UNL     1      -0.990   1.083  24.592  0.00  0.00    -0.267 NA
ATOM     22  C   UNL     1      -1.371   1.543  24.023  0.00  0.00    +0.094 C 
ATOM     23  C   UNL     1      -1.478   2.352  24.149  0.00  0.00    +0.108 C 
ATOM     24  N   UNL     1      -1.203   2.700  24.845  0.00  0.00    -0.305 N 
ATOM     25  C   UNL     1      -0.822   2.240  25.413  0.00  0.00    +0.108 C 
ATOM     26  C   UNL     1      -0.716   1.432  25.287  0.00  0.00    +0.094 C 
BRANCH  24  27
ATOM     27  C   UNL     1      -1.310   3.509  24.971  0.00  0.00    +0.048 A 
ATOM     28  C   UNL     1      -2.002   3.782  25.326  0.00  0.00    +0.017 A 
ATOM     29  C   UNL     1      -2.109   4.591  25.452  0.00  0.00    +0.031 A 
ATOM     30  C   UNL     1      -1.523   5.126  25.223  0.00  0.00    +0.140 A 
ATOM     31  F   UNL     1      -1.629   5.933  25.348  0.00  0.00    -0.204 F 
ATOM     32  C   UNL     1      -0.830   4.850  24.868  0.00  0.00    +0.031 A 
ATOM     33  C   UNL     1      -0.724   4.042  24.742  0.00  0.00    +0.017 A 
ENDBRANCH  24  27
ENDBRANCH  18  21
BRANCH   3   2
ATOM      1  O   UNL     1      -1.400  -2.358  24.015  0.00  0.00    -0.218 OA
ATOM      2  C   UNL     1      -1.393  -1.792  24.616  0.00  0.00    +0.214 C 
ENDBRANCH   3   2
BRANCH   5   6
ATOM      6  C   UNL     1       0.375   0.324  23.707  0.00  0.00    +0.148 C 
BRANCH   6   7
ATOM      7  N   UNL     1       0.965  -0.101  23.319  0.00  0.00    -0.184 NA
ATOM      8  C   UNL     1       1.733   0.201  23.280  0.00  0.00    +0.344 C 
ATOM      9  O   UNL     1       1.909   0.926  23.629  0.00  0.00    -0.249 OA
ATOM     10  N   UNL     1       2.323  -0.225  22.891  0.00  0.00    -0.161 NA
BRANCH  10  11
ATOM     11  C   UNL     1       3.091   0.076  22.852  0.00  0.00    +0.076 A 
ATOM     12  C   UNL     1       3.700  -0.294  23.265  0.00  0.00    +0.028 A 
ATOM     13  C   UNL     1       4.467   0.007  23.227  0.00  0.00    +0.059 A 
ATOM     14 CL   UNL     1       5.078  -0.363  23.641  0.00  0.00    -0.082 Cl
ATOM     15  C   UNL     1       4.624   0.679  22.773  0.00  0.00    +0.011 A 
ATOM     16  C   UNL     1       4.015   1.049  22.360  0.00  0.00    +0.002 A 
ATOM     17  C   UNL     1       3.248   0.748  22.398  0.00  0.00    +0.017 A 
ENDBRANCH  10  11
ENDBRANCH   6   7
ENDBRANCH   5   6
TORSDOF 6
ENDMDL
MODEL 4
REMARK VINA RESULT:      -9.9      2.356      3.841
REMARK  Name = 
REMARK  6 active torsions:
REMARK  status: ('A' for Active; 'I' for Inactive)
REMARK    1  A    between atoms: C_2  and  C_3
REMARK    2  A    between atoms: C_5  and  C_6
REMARK    3  A    between atoms: C_6  and  N_7
REMARK    4  A    between atoms: N_10  and  C_11
REMARK    5  A    between atoms: C_18  and  N_21
REMARK    6  A    between atoms: N_24  and  C_27
REMARK                            x       y       z     vdW  Elec       q    Type
REMARK                         _______ _______ _______ _____ _____    ______ ____
ROOT
ATOM      3  C   UNL     1       0.137   1.934  24.279  0.00  0.00    +0.180 C 
ATOM      4  O   UNL     1      -0.154   1.188  24.476  0.00  0.00    -0.350 OA
ATOM      5  C   UNL     1      -0.949   1.269  24.680  0.00  0.00    +0.154 C 
ATOM     18  C   UNL     1      -1.151   2.066  24.609  0.00  0.00    +0.120 C 
ATOM     19  C   UNL     1      -0.479   2.478  24.361  0.00  0.00    +0.198 C 
ATOM     20  O   UNL     1      -0.433   3.289  24.220  0.00  0.00    -0.219 OA
ENDROOT
BRANCH  18  21
ATOM     21  N   UNL     1      -1.892   2.394  24.760  0.00  0.00    -0.267 NA
ATOM     22  C   UNL     1      -2.081   2.654  25.521  0.00  0.00    +0.094 C 
ATOM     23  C   UNL     1      -2.823   2.982  25.672  0.00  0.00    +0.108 C 
ATOM     24  N   UNL     1      -3.375   3.051  25.062  0.00  0.00    -0.305 N 
ATOM     25  C   UNL     1      -3.186   2.793  24.303  0.00  0.00    +0.108 C 
ATOM     26  C   UNL     1      -2.444   2.464  24.152  0.00  0.00    +0.094 C 
BRANCH  24  27
ATOM     27  C   UNL     1      -4.117   3.380  25.214  0.00  0.00    +0.048 A 
ATOM     28  C   UNL     1      -4.754   2.891  25.400  0.00  0.00    +0.017 A 
ATOM     29  C   UNL     1      -5.496   3.220  25.551  0.00  0.00    +0.031 A 
ATOM     30  C   UNL     1      -5.600   4.038  25.516  0.00  0.00    +0.140 A 
ATOM     31  F   UNL     1      -6.341   4.366  25.667  0.00  0.00    -0.204 F 
ATOM     32  C   UNL     1      -4.962   4.526  25.330  0.00  0.00    +0.031 A 
ATOM     33  C   UNL     1      -4.221   4.197  25.178  0.00  0.00    +0.017 A 
ENDBRANCH  24  27
ENDBRANCH  18  21
BRANCH   3   2
ATOM      1  O   UNL     1       1.439   1.495  23.889  0.00  0.00    -0.218 OA
ATOM      2  C   UNL     1       0.906   2.107  24.041  0.00  0.00    +0.214 C 
ENDBRANCH   3   2
BRANCH   5   6
ATOM      6  C   UNL     1      -1.454   0.661  24.914  0.00  0.00    +0.148 C 
BRANCH   6   7
ATOM      7  N   UNL     1      -1.421  -0.072  24.537  0.00  0.00    -0.184 NA
ATOM      8  C   UNL     1      -2.003  -0.638  24.683  0.00  0.00    +0.344 C 
ATOM      9  O   UNL     1      -2.617  -0.473  25.206  0.00  0.00    -0.249 OA
ATOM     10  N   UNL     1      -1.968  -1.371  24.304  0.00  0.00    -0.161 NA
BRANCH  10  11
ATOM     11  C   UNL     1      -2.550  -1.938  24.451  0.00  0.00    +0.076 A 
ATOM     12  C   UNL     1      -3.245  -1.939  24.007  0.00  0.00    +0.028 A 
ATOM     13  C   UNL     1      -3.827  -2.505  24.152  0.00  0.00    +0.059 A 
ATOM     14 CL   UNL     1      -4.523  -2.507  23.708  0.00  0.00    -0.082 Cl
ATOM     15  C   UNL     1      -3.713  -3.071  24.743  0.00  0.00    +0.011 A 
ATOM     16  C   UNL     1      -3.019  -3.069  25.187  0.00  0.00    +0.002 A 
ATOM     17  C   UNL     1      -2.437  -2.503  25.041  0.00  0.00    +0.017 A 
ENDBRANCH  10  11
ENDBRANCH   6   7
ENDBRANCH   5   6
TORSDOF 6
ENDMDL
MODEL 5
REMARK VINA RESULT:      -9.6      2.428      5.397
REMARK  Name = 
REMARK  6 active torsions:
REMARK  status: ('A' for Active; 'I' for Inactive)
REMARK    1  A    between atoms: C_2  and  C_3
REMARK    2  A    between atoms: C_5  and  C_6
REMARK    3  A    between atoms: C_6  and  N_7
REMARK    4  A    between atoms: N_10  and  C_11
REMARK    5  A    between atoms: C_18  and  N_21
REMARK    6  A    between atoms: N_24  and  C_27
REMARK                            x       y       z     vdW  Elec       q    Type
REMARK                         _______ _______ _______ _____ _____    ______ ____
ROOT
ATOM      3  C   UNL     1      -5.718   2.408  25.434  0.00  0.00    +0.180 C 
ATOM      4  O   UNL     1      -4.970   2.746  25.355  0.00  0.00    -0.350 OA
ATOM      5  C   UNL     1      -4.436   2.144  25.175  0.00  0.00    +0.154 C 
ATOM     18  C   UNL     1      -4.853   1.433  25.143  0.00  0.00    +0.120 C 
ATOM     19  C   UNL     1      -5.646   1.596  25.303  0.00  0.00    +0.198 C 
ATOM     20  O   UNL     1      -6.259   1.044  25.328  0.00  0.00    -0.219 OA
ENDROOT
BRANCH  18  21
ATOM     21  N   UNL     1      -4.534   0.690  24.979  0.00  0.00    -0.267 NA
ATOM     22  C   UNL     1      -4.418   0.455  24.197  0.00  0.00    +0.094 C 
ATOM     23  C   UNL     1      -4.099  -0.289  24.033  0.00  0.00    +0.108 C 
ATOM     24  N   UNL     1      -3.897  -0.796  24.652  0.00  0.00    -0.305 N 
ATOM     25  C   UNL     1      -4.013  -0.560  25.433  0.00  0.00    +0.108 C 
ATOM     26  C   UNL     1      -4.332   0.183  25.597  0.00  0.00    +0.094 C 
BRANCH  24  27
ATOM     27  C   UNL     1      -3.578  -1.539  24.488  0.00  0.00    +0.048 A 
ATOM     28  C   UNL     1      -4.064  -2.144  24.208  0.00  0.00    +0.017 A 
ATOM     29  C   UNL     1      -3.745  -2.887  24.044  0.00  0.00    +0.031 A 
ATOM     30  C   UNL     1      -2.939  -3.025  24.160  0.00  0.00    +0.140 A 
ATOM     31  F   UNL     1      -2.621  -3.768  23.996  0.00  0.00    -0.204 F 
ATOM     32  C   UNL     1      -2.454  -2.420  24.439  0.00  0.00    +0.031 A 
ATOM     33  C   UNL     1      -2.773  -1.677  24.603  0.00  0.00    +0.017 A 
ENDBRANCH  24  27
ENDBRANCH  18  21
BRANCH   3   2
ATOM      1  O   UNL     1      -6.386   3.595  25.866  0.00  0.00    -0.218 OA
ATOM      2  C   UNL     1      -6.415   2.809  25.613  0.00  0.00    +0.214 C 
ENDBRANCH   3   2
BRANCH   5   6
ATOM      6  C   UNL     1      -3.626   2.237  25.049  0.00  0.00    +0.148 C 
BRANCH   6   7
ATOM      7  N   UNL     1      -3.194   2.766  25.511  0.00  0.00    -0.184 NA
ATOM      8  C   UNL     1      -2.554   3.171  25.185  0.00  0.00    +0.344 C 
ATOM      9  O   UNL     1      -2.345   3.048  24.398  0.00  0.00    -0.249 OA
ATOM     10  N   UNL     1      -2.122   3.701  25.649  0.00  0.00    -0.161 NA
BRANCH  10  11
ATOM     11  C   UNL     1      -1.481   4.107  25.323  0.00  0.00    +0.076 A 
ATOM     12  C   UNL     1      -1.539   4.915  25.172  0.00  0.00    +0.028 A 
ATOM     13  C   UNL     1      -0.899   5.321  24.847  0.00  0.00    +0.059 A 
ATOM     14 CL   UNL     1      -0.956   6.131  24.696  0.00  0.00    -0.082 Cl
ATOM     15  C   UNL     1      -0.201   4.917  24.671  0.00  0.00    +0.011 A 
ATOM     16  C   UNL     1      -0.143   4.109  24.822  0.00  0.00    +0.002 A 
ATOM     17  C   UNL     1      -0.783   3.703  25.148  0.00  0.00    +0.017 A 
ENDBRANCH  10  11
ENDBRANCH   6   7
ENDBRANCH   5   6
TORSDOF 6
ENDMDL
MODEL 6
REMARK VINA RESULT:      -9.5      3.455      6.744
REMARK  Name = 
REMARK  6 active torsions:
REMARK  status: ('A' for Active; 'I' for Inactive)
REMARK    1  A    between atoms: C_2  and  C_3
REMARK    2  A    between atoms: C_5  and  C_6
REMARK    3  A    between atoms: C_6  and  N_7
REMARK    4  A    between atoms: N_10  and  C_11
REMARK    5  A    between atoms: C_18  and  N_21
REMARK    6  A    between atoms: N_24  and  C_27
REMARK                            x       y       z     vdW  Elec       q    Type
REMARK                         _______ _______ _______ _____ _____    ______ ____
ROOT
ATOM      3  C   UNL     1       1.590   0.604  23.267  0.00  0.00    +0.180 C 
ATOM      4  O   UNL     1       1.159   1.272  23.487  0.00  0.00    -0.350 OA
ATOM      5  C   UNL     1       0.425   1.020  23.768  0.00  0.00    +0.154 C 
ATOM     18  C   UNL     1       0.403   0.197  23.722  0.00  0.00    +0.120 C 
ATOM     19  C   UNL     1       1.123  -0.061  23.413  0.00  0.00    +0.198 C 
ATOM     20  O   UNL     1       1.338  -0.845  23.273  0.00  0.00    -0.219 OA
ENDROOT
BRANCH  18  21
ATOM     21  N   UNL     1      -0.228  -0.284  23.946  0.00  0.00    -0.267 NA
ATOM     22  C   UNL     1      -0.229  -0.643  24.689  0.00  0.00    +0.094 C 
ATOM     23  C   UNL     1      -0.861  -1.125  24.914  0.00  0.00    +0.108 C 
ATOM     24  N   UNL     1      -1.491  -1.248  24.395  0.00  0.00    -0.305 N 
ATOM     25  C   UNL     1      -1.489  -0.889  23.653  0.00  0.00    +0.108 C 
ATOM     26  C   UNL     1      -0.858  -0.407  23.428  0.00  0.00    +0.094 C 
BRANCH  24  27
ATOM     27  C   UNL     1      -2.122  -1.730  24.620  0.00  0.00    +0.048 A 
ATOM     28  C   UNL     1      -2.723  -1.426  25.095  0.00  0.00    +0.017 A 
ATOM     29  C   UNL     1      -3.355  -1.908  25.320  0.00  0.00    +0.031 A 
ATOM     30  C   UNL     1      -3.384  -2.694  25.069  0.00  0.00    +0.140 A 
ATOM     31  F   UNL     1      -4.014  -3.175  25.293  0.00  0.00    -0.204 F 
ATOM     32  C   UNL     1      -2.781  -2.997  24.593  0.00  0.00    +0.031 A 
ATOM     33  C   UNL     1      -2.151  -2.515  24.369  0.00  0.00    +0.017 A 
ENDBRANCH  24  27
ENDBRANCH  18  21
BRANCH   3   2
ATOM      1  O   UNL     1       2.875   1.216  23.136  0.00  0.00    -0.218 OA
ATOM      2  C   UNL     1       2.354   0.601  22.957  0.00  0.00    +0.214 C 
ENDBRANCH   3   2
BRANCH   5   6
ATOM      6  C   UNL     1      -0.180   1.507  24.046  0.00  0.00    +0.148 C 
BRANCH   6   7
ATOM      7  N   UNL     1      -0.001   2.167  24.506  0.00  0.00    -0.184 NA
ATOM      8  C   UNL     1      -0.567   2.757  24.621  0.00  0.00    +0.344 C 
ATOM      9  O   UNL     1      -1.312   2.685  24.277  0.00  0.00    -0.249 OA
ATOM     10  N   UNL     1      -0.386   3.417  25.082  0.00  0.00    -0.161 NA
BRANCH  10  11
ATOM     11  C   UNL     1      -0.953   4.006  25.198  0.00  0.00    +0.076 A 
ATOM     12  C   UNL     1      -1.619   3.853  25.659  0.00  0.00    +0.028 A 
ATOM     13  C   UNL     1      -2.185   4.442  25.774  0.00  0.00    +0.059 A 
ATOM     14 CL   UNL     1      -2.852   4.288  26.236  0.00  0.00    -0.082 Cl
ATOM     15  C   UNL     1      -2.085   5.184  25.428  0.00  0.00    +0.011 A 
ATOM     16  C   UNL     1      -1.419   5.337  24.967  0.00  0.00    +0.002 A 
ATOM     17  C   UNL     1      -0.852   4.749  24.851  0.00  0.00    +0.017 A 
ENDBRANCH  10  11
ENDBRANCH   6   7
ENDBRANCH   5   6
TORSDOF 6
ENDMDL
MODEL 7
REMARK VINA RESULT:      -9.3      3.791      5.632
REMARK  Name = 
REMARK  6 active torsions:
REMARK  status: ('A' for Active; 'I' for Inactive)
REMARK    1  A    between atoms: C_2  and  C_3
REMARK    2  A    between atoms: C_5  and  C_6
REMARK    3  A    between atoms: C_6  and  N_7
REMARK    4  A    between atoms: N_10  and  C_11
REMARK    5  A    between atoms: C_18  and  N_21
REMARK    6  A    between atoms: N_24  and  C_27
REMARK                            x       y       z     vdW  Elec       q    Type
REMARK                         _______ _______ _______ _____ _____    ______ ____
ROOT
ATOM      3  C   UNL     1      -1.392   3.141  25.151  0.00  0.00    +0.180 C 
ATOM      4  O   UNL     1      -0.697   2.815  24.849  0.00  0.00    -0.350 OA
ATOM      5  C   UNL     1      -0.846   2.027  24.657  0.00  0.00    +0.154 C 
ATOM     18  C   UNL     1      -1.634   1.864  24.841  0.00  0.00    +0.120 C 
ATOM     19  C   UNL     1      -1.972   2.553  25.146  0.00  0.00    +0.198 C 
ATOM     20  O   UNL     1      -2.752   2.638  25.401  0.00  0.00    -0.219 OA
ENDROOT
BRANCH  18  21
ATOM     21  N   UNL     1      -2.017   1.141  24.738  0.00  0.00    -0.267 NA
ATOM     22  C   UNL     1      -1.968   0.562  25.323  0.00  0.00    +0.094 C 
ATOM     23  C   UNL     1      -2.352  -0.162  25.221  0.00  0.00    +0.108 C 
ATOM     24  N   UNL     1      -2.783  -0.306  24.532  0.00  0.00    -0.305 N 
ATOM     25  C   UNL     1      -2.832   0.273  23.947  0.00  0.00    +0.108 C 
ATOM     26  C   UNL     1      -2.448   0.997  24.050  0.00  0.00    +0.094 C 
BRANCH  24  27
ATOM     27  C   UNL     1      -3.167  -1.029  24.429  0.00  0.00    +0.048 A 
ATOM     28  C   UNL     1      -2.802  -1.727  24.675  0.00  0.00    +0.017 A 
ATOM     29  C   UNL     1      -3.185  -2.451  24.572  0.00  0.00    +0.031 A 
ATOM     30  C   UNL     1      -3.933  -2.476  24.223  0.00  0.00    +0.140 A 
ATOM     31  F   UNL     1      -4.315  -3.199  24.120  0.00  0.00    -0.204 F 
ATOM     32  C   UNL     1      -4.296  -1.778  23.977  0.00  0.00    +0.031 A 
ATOM     33  C   UNL     1      -3.913  -1.055  24.080  0.00  0.00    +0.017 A 
ENDBRANCH  24  27
ENDBRANCH  18  21
BRANCH   3   2
ATOM      1  O   UNL     1      -1.006   4.516  25.117  0.00  0.00    -0.218 OA
ATOM      2  C   UNL     1      -1.491   3.916  25.412  0.00  0.00    +0.214 C 
ENDBRANCH   3   2
BRANCH   5   6
ATOM      6  C   UNL     1      -0.303   1.494  24.338  0.00  0.00    +0.148 C 
BRANCH   6   7
ATOM      7  N   UNL     1       0.459   1.746  24.149  0.00  0.00    -0.184 NA
ATOM      8  C   UNL     1       0.971   1.242  23.741  0.00  0.00    +0.344 C 
ATOM      9  O   UNL     1       0.720   0.488  23.524  0.00  0.00    -0.249 OA
ATOM     10  N   UNL     1       1.733   1.495  23.552  0.00  0.00    -0.161 NA
BRANCH  10  11
ATOM     11  C   UNL     1       2.245   0.992  23.144  0.00  0.00    +0.076 A 
ATOM     12  C   UNL     1       3.060   1.100  23.199  0.00  0.00    +0.028 A 
ATOM     13  C   UNL     1       3.572   0.597  22.792  0.00  0.00    +0.059 A 
ATOM     14 CL   UNL     1       4.388   0.706  22.847  0.00  0.00    -0.082 Cl
ATOM     15  C   UNL     1       3.267  -0.015  22.330  0.00  0.00    +0.011 A 
ATOM     16  C   UNL     1       2.452  -0.123  22.275  0.00  0.00    +0.002 A 
ATOM     17  C   UNL     1       1.940   0.379  22.682  0.00  0.00    +0.017 A 
ENDBRANCH  10  11
ENDBRANCH   6   7
ENDBRANCH   5   6
TORSDOF 6
ENDMDL
MODEL 8
REMARK VINA RESULT:      -8.7      2.895      3.711
REMARK  Name = 
REMARK  6 active torsions:
REMARK  status: ('A' for Active; 'I' for Inactive)
REMARK    1  A    between atoms: C_2  and  C_3
REMARK    2  A    between atoms: C_5  and  C_6
REMARK    3  A    between atoms: C_6  and  N_7
REMARK    4  A    between atoms: N_10  and  C_11
REMARK    5  A    between atoms: C_18  and  N_21
REMARK    6  A    between atoms: N_24  and  C_27
REMARK                            x       y       z     vdW  Elec       q    Type
REMARK                         _______ _______ _______ _____ _____    ______ ____
ROOT
ATOM      3  C   UNL     1      -2.274   3.330  25.569  0.00  0.00    +0.180 C 
ATOM      4  O   UNL     1      -2.771   2.727  25.305  0.00  0.00    -0.350 OA
ATOM      5  C   UNL     1      -2.312   2.183  24.888  0.00  0.00    +0.154 C 
ATOM     18  C   UNL     1      -1.531   2.450  24.894  0.00  0.00    +0.120 C 
ATOM     19  C   UNL     1      -1.508   3.159  25.315  0.00  0.00    +0.198 C 
ATOM     20  O   UNL     1      -0.836   3.617  25.457  0.00  0.00    -0.219 OA
ENDROOT
BRANCH  18  21
ATOM     21  N   UNL     1      -0.887   2.075  24.541  0.00  0.00    -0.267 NA
ATOM     22  C   UNL     1      -0.384   1.605  24.997  0.00  0.00    +0.094 C 
ATOM     23  C   UNL     1       0.261   1.229  24.644  0.00  0.00    +0.108 C 
ATOM     24  N   UNL     1       0.402   1.323  23.836  0.00  0.00    -0.305 N 
ATOM     25  C   UNL     1      -0.101   1.792  23.382  0.00  0.00    +0.108 C 
ATOM     26  C   UNL     1      -0.746   2.168  23.734  0.00  0.00    +0.094 C 
BRANCH  24  27
ATOM     27  C   UNL     1       1.046   0.947  23.483  0.00  0.00    +0.048 A 
ATOM     28  C   UNL     1       0.941   0.227  23.095  0.00  0.00    +0.017 A 
ATOM     29  C   UNL     1       1.586  -0.149  22.742  0.00  0.00    +0.031 A 
ATOM     30  C   UNL     1       2.336   0.196  22.779  0.00  0.00    +0.140 A 
ATOM     31  F   UNL     1       2.979  -0.180  22.427  0.00  0.00    -0.204 F 
ATOM     32  C   UNL     1       2.439   0.916  23.168  0.00  0.00    +0.031 A 
ATOM     33  C   UNL     1       1.795   1.291  23.520  0.00  0.00    +0.017 A 
ENDBRANCH  24  27
ENDBRANCH  18  21
BRANCH   3   2
ATOM      1  O   UNL     1      -3.280   4.053  26.281  0.00  0.00    -0.218 OA
ATOM      2  C   UNL     1      -2.503   3.988  26.010  0.00  0.00    +0.214 C 
ENDBRANCH   3   2
BRANCH   5   6
ATOM      6  C   UNL     1      -2.585   1.493  24.527  0.00  0.00    +0.148 C 
BRANCH   6   7
ATOM      7  N   UNL     1      -3.070   0.973  24.946  0.00  0.00    -0.184 NA
ATOM      8  C   UNL     1      -3.213   0.215  24.652  0.00  0.00    +0.344 C 
ATOM      9  O   UNL     1      -2.872  -0.022  23.940  0.00  0.00    -0.249 OA
ATOM     10  N   UNL     1      -3.698  -0.305  25.071  0.00  0.00    -0.161 NA
BRANCH  10  11
ATOM     11  C   UNL     1      -3.841  -1.062  24.777  0.00  0.00    +0.076 A 
ATOM     12  C   UNL     1      -3.493  -1.717  25.139  0.00  0.00    +0.028 A 
ATOM     13  C   UNL     1      -3.636  -2.475  24.845  0.00  0.00    +0.059 A 
ATOM     14 CL   UNL     1      -3.288  -3.130  25.207  0.00  0.00    -0.082 Cl
ATOM     15  C   UNL     1      -4.127  -2.577  24.190  0.00  0.00    +0.011 A 
ATOM     16  C   UNL     1      -4.474  -1.922  23.828  0.00  0.00    +0.002 A 
ATOM     17  C   UNL     1      -4.332  -1.165  24.122  0.00  0.00    +0.017 A 
ENDBRANCH  10  11
ENDBRANCH   6   7
ENDBRANCH   5   6
TORSDOF 6
ENDMDL
