MODEL 1
REMARK VINA RESULT:     -13.1      0.000      0.000
REMARK  Name = 
REMARK  6 active torsions:
REMARK  status: ('A' for Active; 'I' for Inactive)
REMARK    1  A    between atoms: C_3  and  C_4
REMARK    2  A    between atoms: C_4  and  N_5
REMARK    3  A    between atoms: C_10  and  C_11
REMARK    4  A    between atoms: C_13  and  C_14
REMARK    5  A    between atoms: C_14  and  S_15
REMARK    6  A    between atoms: S_15  and  C_18
REMARK                            x       y       z     vdW  Elec       q    Type
REMARK                         _______ _______ _______ _____ _____    ______ ____
ROOT
ATOM      5  N   UNL     1      -1.823   2.935  24.549  0.00  0.00    -0.258 NA
ATOM      6  C   UNL     1      -1.843   3.739  24.734  0.00  0.00    +0.106 C 
ATOM      7  C   UNL     1      -1.119   3.940  25.075  0.00  0.00    +0.170 C 
ATOM      8  O   UNL     1      -0.900   4.689  25.343  0.00  0.00    -0.222 OA
ATOM      9  C   UNL     1      -0.652   3.260  25.102  0.00  0.00    +0.060 C 
ATOM     10  C   UNL     1      -1.088   2.639  24.777  0.00  0.00    +0.140 C 
ENDROOT
BRANCH  10  11
ATOM     11  C   UNL     1      -0.833   1.859  24.694  0.00  0.00    +0.251 A 
ATOM     12  N   UNL     1      -0.949   1.250  25.239  0.00  0.00    -0.192 NA
ATOM     13  C   UNL     1      -0.604   0.566  24.933  0.00  0.00    +0.205 A 
ATOM     25  N   UNL     1      -0.275   0.751  24.200  0.00  0.00    -0.059 NA
ATOM     26  O   UNL     1      -0.416   1.551  24.053  0.00  0.00    -0.336 OA
BRANCH  13  14
ATOM     14  C   UNL     1      -0.591  -0.175  25.298  0.00  0.00    +0.224 C 
BRANCH  14  15
ATOM     15  S   UNL     1      -1.210  -0.706  25.171  0.00  0.00    +0.016 S 
ATOM     16  O   UNL     1      -1.544  -0.488  25.894  0.00  0.00    -0.168 OA
ATOM     17  O   UNL     1      -0.876  -0.925  24.450  0.00  0.00    -0.168 OA
BRANCH  15  18
ATOM     18  C   UNL     1      -1.829  -1.237  25.046  0.00  0.00    +0.106 A 
ATOM     19  C   UNL     1      -2.569  -1.093  25.379  0.00  0.00    +0.018 A 
ATOM     20  C   UNL     1      -3.188  -1.625  25.253  0.00  0.00    -0.003 A 
ATOM     21  C   UNL     1      -3.066  -2.299  24.794  0.00  0.00    -0.022 A 
ATOM     22  C   UNL     1      -3.685  -2.830  24.668  0.00  0.00    +0.031 C 
ATOM     23  C   UNL     1      -2.325  -2.442  24.461  0.00  0.00    -0.003 A 
ATOM     24  C   UNL     1      -1.706  -1.912  24.587  0.00  0.00    +0.018 A 
ENDBRANCH  15  18
ENDBRANCH  14  15
ENDBRANCH  13  14
ENDBRANCH  10  11
BRANCH   5   4
ATOM      4  C   UNL     1      -2.433   2.504  24.199  0.00  0.00    +0.137 C 
BRANCH   4   3
ATOM      1  C   UNL     1      -3.876   1.651  23.557  0.00  0.00    +0.132 C 
ATOM      2  N   UNL     1      -3.861   2.153  24.210  0.00  0.00    -0.312 N 
ATOM      3  C   UNL     1      -3.198   2.546  24.506  0.00  0.00    +0.137 A 
ATOM     27  N   UNL     1      -3.434   2.987  25.162  0.00  0.00    -0.230 NA
ATOM     28  C   UNL     1      -4.242   2.867  25.272  0.00  0.00    +0.098 A 
ATOM     29  C   UNL     1      -4.506   2.352  24.684  0.00  0.00    +0.079 A 
ATOM     30  C   UNL     1      -5.301   2.131  24.656  0.00  0.00    +0.019 A 
ATOM     31  C   UNL     1      -5.831   2.424  25.215  0.00  0.00    +0.002 A 
ATOM     32  C   UNL     1      -5.566   2.940  25.803  0.00  0.00    +0.002 A 
ATOM     33  C   UNL     1      -4.772   3.161  25.832  0.00  0.00    +0.021 A 
ENDBRANCH   4   3
ENDBRANCH   5   4
TORSDOF 6
ENDMDL
MODEL 2
REMARK VINA RESULT:     -12.7      1.247      3.870
REMARK  Name = 
REMARK  6 active torsions:
REMARK  status: ('A' for Active; 'I' for Inactive)
REMARK    1  A    between atoms: C_3  and  C_4
REMARK    2  A    between atoms: C_4  and  N_5
REMARK    3  A    between atoms: C_10  and  C_11
REMARK    4  A    between atoms: C_13  and  C_14
REMARK    5  A    between atoms: C_14  and  S_15
REMARK    6  A    between atoms: S_15  and  C_18
REMARK                            x       y       z     vdW  Elec       q    Type
REMARK                         _______ _______ _______ _____ _____    ______ ____
ROOT
ATOM      5  N   UNL     1      -3.091  -0.369  24.555  0.00  0.00    -0.258 NA
ATOM      6  C   UNL     1      -3.620  -0.978  24.731  0.00  0.00    +0.106 C 
ATOM      7  C   UNL     1      -3.202  -1.576  25.115  0.00  0.00    +0.170 C 
ATOM      8  O   UNL     1      -3.516  -2.288  25.390  0.00  0.00    -0.222 OA
ATOM      9  C   UNL     1      -2.415  -1.338  25.178  0.00  0.00    +0.060 C 
ATOM     10  C   UNL     1      -2.347  -0.592  24.831  0.00  0.00    +0.140 C 
ENDROOT
BRANCH  10  11
ATOM     11  C   UNL     1      -1.655  -0.147  24.772  0.00  0.00    +0.251 A 
ATOM     12  N   UNL     1      -1.410   0.443  25.295  0.00  0.00    -0.192 NA
ATOM     13  C   UNL     1      -0.690   0.741  25.025  0.00  0.00    +0.205 A 
ATOM     25  N   UNL     1      -0.489   0.336  24.334  0.00  0.00    -0.059 NA
ATOM     26  O   UNL     1      -1.085  -0.212  24.178  0.00  0.00    -0.336 OA
BRANCH  13  14
ATOM     14  C   UNL     1      -0.248   1.340  25.383  0.00  0.00    +0.224 C 
BRANCH  14  15
ATOM     15  S   UNL     1      -0.502   2.123  25.334  0.00  0.00    +0.016 S 
ATOM     16  O   UNL     1      -0.844   2.058  26.082  0.00  0.00    -0.168 OA
ATOM     17  O   UNL     1      -0.160   2.189  24.587  0.00  0.00    -0.168 OA
BRANCH  15  18
ATOM     18  C   UNL     1      -0.756   2.907  25.286  0.00  0.00    +0.106 A 
ATOM     19  C   UNL     1      -1.330   3.187  25.809  0.00  0.00    +0.018 A 
ATOM     20  C   UNL     1      -1.584   3.970  25.761  0.00  0.00    -0.003 A 
ATOM     21  C   UNL     1      -1.265   4.473  25.190  0.00  0.00    -0.022 A 
ATOM     22  C   UNL     1      -1.519   5.257  25.142  0.00  0.00    +0.031 C 
ATOM     23  C   UNL     1      -0.692   4.192  24.667  0.00  0.00    -0.003 A 
ATOM     24  C   UNL     1      -0.438   3.410  24.715  0.00  0.00    +0.018 A 
ENDBRANCH  15  18
ENDBRANCH  14  15
ENDBRANCH  13  14
ENDBRANCH  10  11
BRANCH   5   4
ATOM      4  C   UNL     1      -3.275   0.337  24.171  0.00  0.00    +0.137 C 
BRANCH   4   3
ATOM      1  C   UNL     1      -3.764   1.931  23.505  0.00  0.00    +0.132 C 
ATOM      2  N   UNL     1      -4.100   1.555  24.157  0.00  0.00    -0.312 N 
ATOM      3  C   UNL     1      -3.876   0.822  24.464  0.00  0.00    +0.137 A 
ATOM     27  N   UNL     1      -4.357   0.660  25.114  0.00  0.00    -0.230 NA
ATOM     28  C   UNL     1      -4.878   1.291  25.209  0.00  0.00    +0.098 A 
ATOM     29  C   UNL     1      -4.719   1.844  24.618  0.00  0.00    +0.079 A 
ATOM     30  C   UNL     1      -5.160   2.541  24.576  0.00  0.00    +0.019 A 
ATOM     31  C   UNL     1      -5.759   2.684  25.124  0.00  0.00    +0.002 A 
ATOM     32  C   UNL     1      -5.917   2.131  25.716  0.00  0.00    +0.002 A 
ATOM     33  C   UNL     1      -5.477   1.434  25.758  0.00  0.00    +0.021 A 
ENDBRANCH   4   3
ENDBRANCH   5   4
TORSDOF 6
ENDMDL
MODEL 3
REMARK VINA RESULT:     -12.7      1.588      4.263
REMARK  Name = 
REMARK  6 active torsions:
REMARK  status: ('A' for Active; 'I' for Inactive)
REMARK    1  A    between atoms: C_3  and  C_4
REMARK    2  A    between atoms: C_4  and  N_5
REMARK    3  A    between atoms: C_10  and  C_11
REMARK    4  A    between atoms: C_13  and  C_14
REMARK    5  A    between atoms: C_14  and  S_15
REMARK    6  A    between atoms: S_15  and  C_18
REMARK                            x       y       z     vdW  Elec       q    Type
REMARK                         _______ _______ _______ _____ _____    ______ ____
ROOT
ATOM      5  N   UNL     1      -0.569   0.464  24.628  0.00  0.00    -0.258 NA
ATOM      6  C   UNL     1      -0.276  -0.093  24.095  0.00  0.00    +0.106 C 
ATOM      7  C   UNL     1       0.281   0.282  23.615  0.00  0.00    +0.170 C 
ATOM      8  O   UNL     1       0.712  -0.070  23.005  0.00  0.00    -0.222 OA
ATOM      9  C   UNL     1       0.332   1.071  23.852  0.00  0.00    +0.060 C 
ATOM     10  C   UNL     1      -0.193   1.182  24.478  0.00  0.00    +0.140 C 
ENDROOT
BRANCH  10  11
ATOM     11  C   UNL     1      -0.321   1.890  24.883  0.00  0.00    +0.251 A 
ATOM     12  N   UNL     1      -0.861   2.478  24.674  0.00  0.00    -0.192 NA
ATOM     13  C   UNL     1      -0.804   3.085  25.231  0.00  0.00    +0.205 A 
ATOM     25  N   UNL     1      -0.229   2.872  25.783  0.00  0.00    -0.059 NA
ATOM     26  O   UNL     1       0.069   2.134  25.568  0.00  0.00    -0.336 OA
BRANCH  13  14
ATOM     14  C   UNL     1      -1.245   3.783  25.233  0.00  0.00    +0.224 C 
BRANCH  14  15
ATOM     15  S   UNL     1      -2.068   3.749  25.285  0.00  0.00    +0.016 S 
ATOM     16  O   UNL     1      -2.123   3.835  24.466  0.00  0.00    -0.168 OA
ATOM     17  O   UNL     1      -2.014   3.662  26.103  0.00  0.00    -0.168 OA
BRANCH  15  18
ATOM     18  C   UNL     1      -2.891   3.714  25.337  0.00  0.00    +0.106 A 
ATOM     19  C   UNL     1      -3.336   3.495  24.678  0.00  0.00    +0.018 A 
ATOM     20  C   UNL     1      -4.160   3.461  24.730  0.00  0.00    -0.003 A 
ATOM     21  C   UNL     1      -4.536   3.646  25.440  0.00  0.00    -0.022 A 
ATOM     22  C   UNL     1      -5.359   3.612  25.491  0.00  0.00    +0.031 C 
ATOM     23  C   UNL     1      -4.090   3.865  26.098  0.00  0.00    -0.003 A 
ATOM     24  C   UNL     1      -3.268   3.899  26.047  0.00  0.00    +0.018 A 
ENDBRANCH  15  18
ENDBRANCH  14  15
ENDBRANCH  13  14
ENDBRANCH  10  11
BRANCH   5   4
ATOM      4  C   UNL     1      -1.138   0.325  25.210  0.00  0.00    +0.137 C 
BRANCH   4   3
ATOM      1  C   UNL     1      -1.761  -1.062  26.162  0.00  0.00    +0.132 C 
ATOM      2  N   UNL     1      -2.094  -0.760  25.472  0.00  0.00    -0.312 N 
ATOM      3  C   UNL     1      -1.808  -0.122  25.033  0.00  0.00    +0.137 A 
ATOM     27  N   UNL     1      -2.309  -0.011  24.388  0.00  0.00    -0.230 NA
ATOM     28  C   UNL     1      -2.905  -0.579  24.427  0.00  0.00    +0.098 A 
ATOM     29  C   UNL     1      -2.772  -1.042  25.097  0.00  0.00    +0.079 A 
ATOM     30  C   UNL     1      -3.287  -1.662  25.278  0.00  0.00    +0.019 A 
ATOM     31  C   UNL     1      -3.933  -1.818  24.791  0.00  0.00    +0.002 A 
ATOM     32  C   UNL     1      -4.066  -1.354  24.122  0.00  0.00    +0.002 A 
ATOM     33  C   UNL     1      -3.553  -0.735  23.939  0.00  0.00    +0.021 A 
ENDBRANCH   4   3
ENDBRANCH   5   4
TORSDOF 6
ENDMDL
MODEL 4
REMARK VINA RESULT:     -12.6      1.569      4.429
REMARK  Name = 
REMARK  6 active torsions:
REMARK  status: ('A' for Active; 'I' for Inactive)
REMARK    1  A    between atoms: C_3  and  C_4
REMARK    2  A    between atoms: C_4  and  N_5
REMARK    3  A    between atoms: C_10  and  C_11
REMARK    4  A    between atoms: C_13  and  C_14
REMARK    5  A    between atoms: C_14  and  S_15
REMARK    6  A    between atoms: S_15  and  C_18
REMARK                            x       y       z     vdW  Elec       q    Type
REMARK                         _______ _______ _______ _____ _____    ______ ____
ROOT
ATOM      5  N   UNL     1      -0.876   0.341  24.402  0.00  0.00    -0.258 NA
ATOM      6  C   UNL     1      -0.527  -0.217  23.904  0.00  0.00    +0.106 C 
ATOM      7  C   UNL     1       0.200   0.083  23.656  0.00  0.00    +0.170 C 
ATOM      8  O   UNL     1       0.734  -0.294  23.152  0.00  0.00    -0.222 OA
ATOM      9  C   UNL     1       0.301   0.826  24.000  0.00  0.00    +0.060 C 
ATOM     10  C   UNL     1      -0.365   0.985  24.461  0.00  0.00    +0.140 C 
ENDROOT
BRANCH  10  11
ATOM     11  C   UNL     1      -0.496   1.669  24.904  0.00  0.00    +0.251 A 
ATOM     12  N   UNL     1      -0.928   2.329  24.661  0.00  0.00    -0.192 NA
ATOM     13  C   UNL     1      -0.917   2.880  25.274  0.00  0.00    +0.205 A 
ATOM     25  N   UNL     1      -0.478   2.562  25.896  0.00  0.00    -0.059 NA
ATOM     26  O   UNL     1      -0.218   1.813  25.667  0.00  0.00    -0.336 OA
BRANCH  13  14
ATOM     14  C   UNL     1      -1.281   3.621  25.266  0.00  0.00    +0.224 C 
BRANCH  14  15
ATOM     15  S   UNL     1      -2.103   3.676  25.306  0.00  0.00    +0.016 S 
ATOM     16  O   UNL     1      -2.137   3.756  24.486  0.00  0.00    -0.168 OA
ATOM     17  O   UNL     1      -2.070   3.596  26.126  0.00  0.00    -0.168 OA
BRANCH  15  18
ATOM     18  C   UNL     1      -2.926   3.730  25.346  0.00  0.00    +0.106 A 
ATOM     19  C   UNL     1      -3.300   3.800  26.078  0.00  0.00    +0.018 A 
ATOM     20  C   UNL     1      -4.122   3.855  26.117  0.00  0.00    -0.003 A 
ATOM     21  C   UNL     1      -4.570   3.839  25.425  0.00  0.00    -0.022 A 
ATOM     22  C   UNL     1      -5.393   3.893  25.464  0.00  0.00    +0.031 C 
ATOM     23  C   UNL     1      -4.195   3.768  24.693  0.00  0.00    -0.003 A 
ATOM     24  C   UNL     1      -3.374   3.714  24.653  0.00  0.00    +0.018 A 
ENDBRANCH  15  18
ENDBRANCH  14  15
ENDBRANCH  13  14
ENDBRANCH  10  11
BRANCH   5   4
ATOM      4  C   UNL     1      -1.608   0.266  24.774  0.00  0.00    +0.137 C 
BRANCH   4   3
ATOM      1  C   UNL     1      -3.348   0.161  24.344  0.00  0.00    +0.132 C 
ATOM      2  N   UNL     1      -2.846  -0.476  24.492  0.00  0.00    -0.312 N 
ATOM      3  C   UNL     1      -2.046  -0.428  24.690  0.00  0.00    +0.137 A 
ATOM     27  N   UNL     1      -1.761  -1.196  24.788  0.00  0.00    -0.230 NA
ATOM     28  C   UNL     1      -2.384  -1.718  24.651  0.00  0.00    +0.098 A 
ATOM     29  C   UNL     1      -3.055  -1.273  24.468  0.00  0.00    +0.079 A 
ATOM     30  C   UNL     1      -3.769  -1.653  24.303  0.00  0.00    +0.019 A 
ATOM     31  C   UNL     1      -3.812  -2.476  24.321  0.00  0.00    +0.002 A 
ATOM     32  C   UNL     1      -3.142  -2.921  24.504  0.00  0.00    +0.002 A 
ATOM     33  C   UNL     1      -2.428  -2.542  24.669  0.00  0.00    +0.021 A 
ENDBRANCH   4   3
ENDBRANCH   5   4
TORSDOF 6
ENDMDL
MODEL 5
REMARK VINA RESULT:     -12.4      1.654      3.222
REMARK  Name = 
REMARK  6 active torsions:
REMARK  status: ('A' for Active; 'I' for Inactive)
REMARK    1  A    between atoms: C_3  and  C_4
REMARK    2  A    between atoms: C_4  and  N_5
REMARK    3  A    between atoms: C_10  and  C_11
REMARK    4  A    between atoms: C_13  and  C_14
REMARK    5  A    between atoms: C_14  and  S_15
REMARK    6  A    between atoms: S_15  and  C_18
REMARK                            x       y       z     vdW  Elec       q    Type
REMARK                         _______ _______ _______ _____ _____    ______ ____
ROOT
ATOM      5  N   UNL     1      -4.269   2.537  24.891  0.00  0.00    -0.258 NA
ATOM      6  C   UNL     1      -4.611   3.237  25.162  0.00  0.00    +0.106 C 
ATOM      7  C   UNL     1      -5.333   3.048  25.513  0.00  0.00    +0.170 C 
ATOM      8  O   UNL     1      -5.860   3.582  25.858  0.00  0.00    -0.222 OA
ATOM      9  C   UNL     1      -5.438   2.232  25.459  0.00  0.00    +0.060 C 
ATOM     10  C   UNL     1      -4.780   1.916  25.074  0.00  0.00    +0.140 C 
ENDROOT
BRANCH  10  11
ATOM     11  C   UNL     1      -4.655   1.119  24.903  0.00  0.00    +0.251 A 
ATOM     12  N   UNL     1      -4.356   0.552  25.423  0.00  0.00    -0.192 NA
ATOM     13  C   UNL     1      -4.323  -0.169  25.022  0.00  0.00    +0.205 A 
ATOM     25  N   UNL     1      -4.601  -0.047  24.255  0.00  0.00    -0.059 NA
ATOM     26  O   UNL     1      -4.805   0.748  24.181  0.00  0.00    -0.336 OA
BRANCH  13  14
ATOM     14  C   UNL     1      -4.058  -0.885  25.335  0.00  0.00    +0.224 C 
BRANCH  14  15
ATOM     15  S   UNL     1      -3.261  -1.089  25.279  0.00  0.00    +0.016 S 
ATOM     16  O   UNL     1      -3.144  -0.847  26.059  0.00  0.00    -0.168 OA
ATOM     17  O   UNL     1      -3.377  -1.332  24.499  0.00  0.00    -0.168 OA
BRANCH  15  18
ATOM     18  C   UNL     1      -2.463  -1.293  25.223  0.00  0.00    +0.106 A 
ATOM     19  C   UNL     1      -1.896  -0.849  25.625  0.00  0.00    +0.018 A 
ATOM     20  C   UNL     1      -1.098  -1.053  25.569  0.00  0.00    -0.003 A 
ATOM     21  C   UNL     1      -0.868  -1.699  25.111  0.00  0.00    -0.022 A 
ATOM     22  C   UNL     1      -0.070  -1.903  25.055  0.00  0.00    +0.031 C 
ATOM     23  C   UNL     1      -1.436  -2.142  24.709  0.00  0.00    -0.003 A 
ATOM     24  C   UNL     1      -2.233  -1.939  24.765  0.00  0.00    +0.018 A 
ENDBRANCH  15  18
ENDBRANCH  14  15
ENDBRANCH  13  14
ENDBRANCH  10  11
BRANCH   5   4
ATOM      4  C   UNL     1      -3.543   2.471  24.504  0.00  0.00    +0.137 C 
BRANCH   4   3
ATOM      1  C   UNL     1      -1.830   2.339  23.986  0.00  0.00    +0.132 C 
ATOM      2  N   UNL     1      -2.164   2.970  24.399  0.00  0.00    -0.312 N 
ATOM      3  C   UNL     1      -2.952   3.031  24.637  0.00  0.00    +0.137 A 
ATOM     27  N   UNL     1      -3.044   3.749  25.031  0.00  0.00    -0.230 NA
ATOM     28  C   UNL     1      -2.314   4.132  25.037  0.00  0.00    +0.098 A 
ATOM     29  C   UNL     1      -1.770   3.651  24.646  0.00  0.00    +0.079 A 
ATOM     30  C   UNL     1      -0.986   3.895  24.566  0.00  0.00    +0.019 A 
ATOM     31  C   UNL     1      -0.746   4.620  24.876  0.00  0.00    +0.002 A 
ATOM     32  C   UNL     1      -1.290   5.102  25.267  0.00  0.00    +0.002 A 
ATOM     33  C   UNL     1      -2.074   4.859  25.347  0.00  0.00    +0.021 A 
ENDBRANCH   4   3
ENDBRANCH   5   4
TORSDOF 6
ENDMDL
MODEL 6
REMARK VINA RESULT:     -11.8      1.881      4.309
REMARK  Name = 
REMARK  6 active torsions:
REMARK  status: ('A' for Active; 'I' for Inactive)
REMARK    1  A    between atoms: C_3  and  C_4
REMARK    2  A    between atoms: C_4  and  N_5
REMARK    3  A    between atoms: C_10  and  C_11
REMARK    4  A    between atoms: C_13  and  C_14
REMARK    5  A    between atoms: C_14  and  S_15
REMARK    6  A    between atoms: S_15  and  C_18
REMARK                            x       y       z     vdW  Elec       q    Type
REMARK                         _______ _______ _______ _____ _____    ______ ____
ROOT
ATOM      5  N   UNL     1      -4.918   1.926  25.082  0.00  0.00    -0.258 NA
ATOM      6  C   UNL     1      -5.604   1.580  25.386  0.00  0.00    +0.106 C 
ATOM      7  C   UNL     1      -5.950   2.118  25.907  0.00  0.00    +0.170 C 
ATOM      8  O   UNL     1      -6.646   1.998  26.335  0.00  0.00    -0.222 OA
ATOM      9  C   UNL     1      -5.480   2.795  25.926  0.00  0.00    +0.060 C 
ATOM     10  C   UNL     1      -4.843   2.676  25.416  0.00  0.00    +0.140 C 
ENDROOT
BRANCH  10  11
ATOM     11  C   UNL     1      -4.235   3.214  25.266  0.00  0.00    +0.251 A 
ATOM     12  N   UNL     1      -3.490   3.216  25.621  0.00  0.00    -0.192 NA
ATOM     13  C   UNL     1      -3.061   3.847  25.309  0.00  0.00    +0.205 A 
ATOM     25  N   UNL     1      -3.540   4.236  24.762  0.00  0.00    -0.059 NA
ATOM     26  O   UNL     1      -4.266   3.845  24.736  0.00  0.00    -0.336 OA
BRANCH  13  14
ATOM     14  C   UNL     1      -2.287   4.053  25.510  0.00  0.00    +0.224 C 
BRANCH  14  15
ATOM     15  S   UNL     1      -1.660   3.563  25.290  0.00  0.00    +0.016 S 
ATOM     16  O   UNL     1      -1.638   3.251  26.054  0.00  0.00    -0.168 OA
ATOM     17  O   UNL     1      -1.683   3.874  24.527  0.00  0.00    -0.168 OA
BRANCH  15  18
ATOM     18  C   UNL     1      -1.034   3.072  25.071  0.00  0.00    +0.106 A 
ATOM     19  C   UNL     1      -0.664   3.177  24.341  0.00  0.00    +0.018 A 
ATOM     20  C   UNL     1      -0.038   2.686  24.122  0.00  0.00    -0.003 A 
ATOM     21  C   UNL     1       0.218   2.091  24.633  0.00  0.00    -0.022 A 
ATOM     22  C   UNL     1       0.844   1.600  24.414  0.00  0.00    +0.031 C 
ATOM     23  C   UNL     1      -0.153   1.987  25.363  0.00  0.00    -0.003 A 
ATOM     24  C   UNL     1      -0.778   2.477  25.582  0.00  0.00    +0.018 A 
ENDBRANCH  15  18
ENDBRANCH  14  15
ENDBRANCH  13  14
ENDBRANCH  10  11
BRANCH   5   4
ATOM      4  C   UNL     1      -4.401   1.581  24.540  0.00  0.00    +0.137 C 
BRANCH   4   3
ATOM      1  C   UNL     1      -3.387   0.629  23.406  0.00  0.00    +0.132 C 
ATOM      2  N   UNL     1      -3.658   0.376  24.142  0.00  0.00    -0.312 N 
ATOM      3  C   UNL     1      -4.125   0.813  24.664  0.00  0.00    +0.137 A 
ATOM     27  N   UNL     1      -4.267   0.349  25.330  0.00  0.00    -0.230 NA
ATOM     28  C   UNL     1      -3.888  -0.376  25.221  0.00  0.00    +0.098 A 
ATOM     29  C   UNL     1      -3.512  -0.359  24.487  0.00  0.00    +0.079 A 
ATOM     30  C   UNL     1      -3.086  -1.016  24.227  0.00  0.00    +0.019 A 
ATOM     31  C   UNL     1      -3.034  -1.689  24.701  0.00  0.00    +0.002 A 
ATOM     32  C   UNL     1      -3.410  -1.705  25.435  0.00  0.00    +0.002 A 
ATOM     33  C   UNL     1      -3.837  -1.049  25.696  0.00  0.00    +0.021 A 
ENDBRANCH   4   3
ENDBRANCH   5   4
TORSDOF 6
ENDMDL
MODEL 7
REMARK VINA RESULT:     -11.7      1.547      4.333
REMARK  Name = 
REMARK  6 active torsions:
REMARK  status: ('A' for Active; 'I' for Inactive)
REMARK    1  A    between atoms: C_3  and  C_4
REMARK    2  A    between atoms: C_4  and  N_5
REMARK    3  A    between atoms: C_10  and  C_11
REMARK    4  A    between atoms: C_13  and  C_14
REMARK    5  A    between atoms: C_14  and  S_15
REMARK    6  A    between atoms: S_15  and  C_18
REMARK                            x       y       z     vdW  Elec       q    Type
REMARK                         _______ _______ _______ _____ _____    ______ ____
ROOT
ATOM      5  N   UNL     1      -0.570   1.375  24.989  0.00  0.00    -0.258 NA
ATOM      6  C   UNL     1       0.106   1.068  24.627  0.00  0.00    +0.106 C 
ATOM      7  C   UNL     1       0.534   1.698  24.311  0.00  0.00    +0.170 C 
ATOM      8  O   UNL     1       1.248   1.642  23.900  0.00  0.00    -0.222 OA
ATOM      9  C   UNL     1       0.125   2.395  24.477  0.00  0.00    +0.060 C 
ATOM     10  C   UNL     1      -0.557   2.195  24.896  0.00  0.00    +0.140 C 
ENDROOT
BRANCH  10  11
ATOM     11  C   UNL     1      -1.127   2.722  25.174  0.00  0.00    +0.251 A 
ATOM     12  N   UNL     1      -1.787   2.989  24.756  0.00  0.00    -0.192 NA
ATOM     13  C   UNL     1      -2.205   3.507  25.243  0.00  0.00    +0.205 A 
ATOM     25  N   UNL     1      -1.805   3.560  25.962  0.00  0.00    -0.059 NA
ATOM     26  O   UNL     1      -1.139   3.075  25.920  0.00  0.00    -0.336 OA
BRANCH  13  14
ATOM     14  C   UNL     1      -2.902   3.902  25.044  0.00  0.00    +0.224 C 
BRANCH  14  15
ATOM     15  S   UNL     1      -3.624   3.503  25.075  0.00  0.00    +0.016 S 
ATOM     16  O   UNL     1      -3.650   3.615  25.893  0.00  0.00    -0.168 OA
ATOM     17  O   UNL     1      -3.599   3.392  24.259  0.00  0.00    -0.168 OA
BRANCH  15  18
ATOM     18  C   UNL     1      -4.346   3.105  25.107  0.00  0.00    +0.106 A 
ATOM     19  C   UNL     1      -4.544   2.564  24.516  0.00  0.00    +0.018 A 
ATOM     20  C   UNL     1      -5.266   2.165  24.548  0.00  0.00    -0.003 A 
ATOM     21  C   UNL     1      -5.789   2.307  25.170  0.00  0.00    -0.022 A 
ATOM     22  C   UNL     1      -6.511   1.909  25.202  0.00  0.00    +0.031 C 
ATOM     23  C   UNL     1      -5.590   2.849  25.760  0.00  0.00    -0.003 A 
ATOM     24  C   UNL     1      -4.869   3.247  25.729  0.00  0.00    +0.018 A 
ENDBRANCH  15  18
ENDBRANCH  14  15
ENDBRANCH  13  14
ENDBRANCH  10  11
BRANCH   5   4
ATOM      4  C   UNL     1      -1.153   0.938  25.375  0.00  0.00    +0.137 C 
BRANCH   4   3
ATOM      1  C   UNL     1      -2.602  -0.030  25.801  0.00  0.00    +0.132 C 
ATOM      2  N   UNL     1      -1.960  -0.291  25.355  0.00  0.00    -0.312 N 
ATOM      3  C   UNL     1      -1.293   0.155  25.159  0.00  0.00    +0.137 A 
ATOM     27  N   UNL     1      -0.792  -0.321  24.709  0.00  0.00    -0.230 NA
ATOM     28  C   UNL     1      -1.149  -1.060  24.627  0.00  0.00    +0.098 A 
ATOM     29  C   UNL     1      -1.870  -1.041  25.026  0.00  0.00    +0.079 A 
ATOM     30  C   UNL     1      -2.352  -1.711  25.038  0.00  0.00    +0.019 A 
ATOM     31  C   UNL     1      -2.113  -2.399  24.652  0.00  0.00    +0.002 A 
ATOM     32  C   UNL     1      -1.392  -2.418  24.252  0.00  0.00    +0.002 A 
ATOM     33  C   UNL     1      -0.909  -1.749  24.239  0.00  0.00    +0.021 A 
ENDBRANCH   4   3
ENDBRANCH   5   4
TORSDOF 6
ENDMDL
MODEL 8
REMARK VINA RESULT:     -11.5      1.685      3.354
REMARK  Name = 
REMARK  6 active torsions:
REMARK  status: ('A' for Active; 'I' for Inactive)
REMARK    1  A    between atoms: C_3  and  C_4
REMARK    2  A    between atoms: C_4  and  N_5
REMARK    3  A    between atoms: C_10  and  C_11
REMARK    4  A    between atoms: C_13  and  C_14
REMARK    5  A    between atoms: C_14  and  S_15
REMARK    6  A    between atoms: S_15  and  C_18
REMARK                            x       y       z     vdW  Elec       q    Type
REMARK                         _______ _______ _______ _____ _____    ______ ____
ROOT
ATOM      5  N   UNL     1      -2.793   3.266  24.662  0.00  0.00    -0.258 NA
ATOM      6  C   UNL     1      -2.313   3.856  24.980  0.00  0.00    +0.106 C 
ATOM      7  C   UNL     1      -2.704   4.179  25.631  0.00  0.00    +0.170 C 
ATOM      8  O   UNL     1      -2.423   4.787  26.114  0.00  0.00    -0.222 OA
ATOM      9  C   UNL     1      -3.426   3.789  25.715  0.00  0.00    +0.060 C 
ATOM     10  C   UNL     1      -3.480   3.224  25.116  0.00  0.00    +0.140 C 
ENDROOT
BRANCH  10  11
ATOM     11  C   UNL     1      -4.112   2.708  24.992  0.00  0.00    +0.251 A 
ATOM     12  N   UNL     1      -4.182   1.944  25.298  0.00  0.00    -0.192 NA
ATOM     13  C   UNL     1      -4.898   1.630  25.035  0.00  0.00    +0.205 A 
ATOM     25  N   UNL     1      -5.271   2.198  24.568  0.00  0.00    -0.059 NA
ATOM     26  O   UNL     1      -4.785   2.864  24.542  0.00  0.00    -0.336 OA
BRANCH  13  14
ATOM     14  C   UNL     1      -5.190   0.877  25.211  0.00  0.00    +0.224 C 
BRANCH  14  15
ATOM     15  S   UNL     1      -4.723   0.212  25.067  0.00  0.00    +0.016 S 
ATOM     16  O   UNL     1      -4.513   0.188  25.864  0.00  0.00    -0.168 OA
ATOM     17  O   UNL     1      -4.933   0.236  24.270  0.00  0.00    -0.168 OA
BRANCH  15  18
ATOM     18  C   UNL     1      -4.257  -0.454  24.923  0.00  0.00    +0.106 A 
ATOM     19  C   UNL     1      -4.292  -0.831  24.191  0.00  0.00    +0.018 A 
ATOM     20  C   UNL     1      -3.825  -1.497  24.048  0.00  0.00    -0.003 A 
ATOM     21  C   UNL     1      -3.324  -1.784  24.637  0.00  0.00    -0.022 A 
ATOM     22  C   UNL     1      -2.858  -2.450  24.494  0.00  0.00    +0.031 C 
ATOM     23  C   UNL     1      -3.290  -1.405  25.369  0.00  0.00    -0.003 A 
ATOM     24  C   UNL     1      -3.756  -0.741  25.513  0.00  0.00    +0.018 A 
ENDBRANCH  15  18
ENDBRANCH  14  15
ENDBRANCH  13  14
ENDBRANCH  10  11
BRANCH   5   4
ATOM      4  C   UNL     1      -2.616   2.799  24.005  0.00  0.00    +0.137 C 
BRANCH   4   3
ATOM      1  C   UNL     1      -2.051   1.759  22.656  0.00  0.00    +0.132 C 
ATOM      2  N   UNL     1      -1.724   1.791  23.412  0.00  0.00    -0.312 N 
ATOM      3  C   UNL     1      -1.984   2.270  24.032  0.00  0.00    +0.137 A 
ATOM     27  N   UNL     1      -1.500   2.126  24.685  0.00  0.00    -0.230 NA
ATOM     28  C   UNL     1      -0.942   1.559  24.468  0.00  0.00    +0.098 A 
ATOM     29  C   UNL     1      -1.081   1.352  23.681  0.00  0.00    +0.079 A 
ATOM     30  C   UNL     1      -0.602   0.790  23.312  0.00  0.00    +0.019 A 
ATOM     31  C   UNL     1       0.014   0.435  23.729  0.00  0.00    +0.002 A 
ATOM     32  C   UNL     1       0.153   0.642  24.516  0.00  0.00    +0.002 A 
ATOM     33  C   UNL     1      -0.325   1.203  24.885  0.00  0.00    +0.021 A 
ENDBRANCH   4   3
ENDBRANCH   5   4
TORSDOF 6
ENDMDL
MODEL 9
REMARK VINA RESULT:     -11.4      1.726      3.923
REMARK  Name = 
REMARK  6 active torsions:
REMARK  status: ('A' for Active; 'I' for Inactive)
REMARK    1  A    between atoms: C_3  and  C_4
REMARK    2  A    between atoms: C_4  and  N_5
REMARK    3  A    between atoms: C_10  and  C_11
REMARK    4  A    between atoms: C_13  and  C_14
REMARK    5  A    between atoms: C_14  and  S_15
REMARK    6  A    between atoms: S_15  and  C_18
REMARK                            x       y       z     vdW  Elec       q    Type
REMARK                         _______ _______ _______ _____ _____    ______ ____
ROOT
ATOM      5  N   UNL     1      -0.322   0.824  24.538  0.00  0.00    -0.258 NA
ATOM      6  C   UNL     1       0.391   0.895  24.128  0.00  0.00    +0.106 C 
ATOM      7  C   UNL     1       0.427   0.287  23.572  0.00  0.00    +0.170 C 
ATOM      8  O   UNL     1       1.045   0.149  23.043  0.00  0.00    -0.222 OA
ATOM      9  C   UNL     1      -0.263  -0.161  23.638  0.00  0.00    +0.060 C 
ATOM     10  C   UNL     1      -0.725   0.172  24.235  0.00  0.00    +0.140 C 
ENDROOT
BRANCH  10  11
ATOM     11  C   UNL     1      -1.463  -0.100  24.485  0.00  0.00    +0.251 A 
ATOM     12  N   UNL     1      -2.192   0.104  24.157  0.00  0.00    -0.192 NA
ATOM     13  C   UNL     1      -2.781  -0.294  24.577  0.00  0.00    +0.205 A 
ATOM     25  N   UNL     1      -2.416  -0.744  25.164  0.00  0.00    -0.059 NA
ATOM     26  O   UNL     1      -1.602  -0.624  25.107  0.00  0.00    -0.336 OA
BRANCH  13  14
ATOM     14  C   UNL     1      -3.593  -0.249  24.433  0.00  0.00    +0.224 C 
BRANCH  14  15
ATOM     15  S   UNL     1      -4.008   0.435  24.634  0.00  0.00    +0.016 S 
ATOM     16  O   UNL     1      -3.925   0.711  23.860  0.00  0.00    -0.168 OA
ATOM     17  O   UNL     1      -4.092   0.159  25.406  0.00  0.00    -0.168 OA
BRANCH  15  18
ATOM     18  C   UNL     1      -4.424   1.120  24.833  0.00  0.00    +0.106 A 
ATOM     19  C   UNL     1      -4.183   1.850  24.534  0.00  0.00    +0.018 A 
ATOM     20  C   UNL     1      -4.599   2.534  24.734  0.00  0.00    -0.003 A 
ATOM     21  C   UNL     1      -5.255   2.488  25.232  0.00  0.00    -0.022 A 
ATOM     22  C   UNL     1      -5.670   3.173  25.432  0.00  0.00    +0.031 C 
ATOM     23  C   UNL     1      -5.495   1.758  25.531  0.00  0.00    -0.003 A 
ATOM     24  C   UNL     1      -5.080   1.074  25.332  0.00  0.00    +0.018 A 
ENDBRANCH  15  18
ENDBRANCH  14  15
ENDBRANCH  13  14
ENDBRANCH  10  11
BRANCH   5   4
ATOM      4  C   UNL     1      -0.583   1.319  25.143  0.00  0.00    +0.137 C 
BRANCH   4   3
ATOM      1  C   UNL     1      -0.974   2.555  26.385  0.00  0.00    +0.132 C 
ATOM      2  N   UNL     1      -0.814   2.701  25.590  0.00  0.00    -0.312 N 
ATOM      3  C   UNL     1      -0.634   2.133  25.019  0.00  0.00    +0.137 A 
ATOM     27  N   UNL     1      -0.515   2.522  24.301  0.00  0.00    -0.230 NA
ATOM     28  C   UNL     1      -0.621   3.330  24.429  0.00  0.00    +0.098 A 
ATOM     29  C   UNL     1      -0.806   3.441  25.225  0.00  0.00    +0.079 A 
ATOM     30  C   UNL     1      -0.942   4.201  25.515  0.00  0.00    +0.019 A 
ATOM     31  C   UNL     1      -0.895   4.850  25.009  0.00  0.00    +0.002 A 
ATOM     32  C   UNL     1      -0.710   4.740  24.213  0.00  0.00    +0.002 A 
ATOM     33  C   UNL     1      -0.573   3.980  23.922  0.00  0.00    +0.021 A 
ENDBRANCH   4   3
ENDBRANCH   5   4
TORSDOF 6
ENDMDL
