MODEL 1
REMARK VINA RESULT:     -10.4      0.000      0.000
REMARK  Name = 
REMARK  8 active torsions:
REMARK  status: ('A' for Active; 'I' for Inactive)
REMARK    1  A    between atoms: O_2  and  C_3
REMARK    2  A    between atoms: C_6  and  C_7
REMARK    3  A    between atoms: C_7  and  N_8
REMARK    4  A    between atoms: C_9  and  C_11
REMARK    5  A    between atoms: N_15  and  C_16
REMARK    6  A    between atoms: C_16  and  C_17
REMARK    7  A    between atoms: C_25  and  C_26
REMARK    8  A    between atoms: C_26  and  C_27
REMARK                            x       y       z     vdW  Elec       q    Type
REMARK                         _______ _______ _______ _____ _____    ______ ____
ROOT
ATOM     11  C   UNL     1      -3.603   1.841  24.152  0.00  0.00    +0.155 C 
ATOM     12  C   UNL     1      -2.899   2.264  24.227  0.00  0.00    +0.055 C 
ATOM     13  C   UNL     1      -2.755   2.950  24.661  0.00  0.00    -0.002 A 
ATOM     14  C   UNL     1      -2.020   3.323  24.692  0.00  0.00    +0.072 A 
ATOM     15  N   UNL     1      -2.090   3.987  25.177  0.00  0.00    -0.322 N 
ATOM     19  C   UNL     1      -2.868   4.024  25.447  0.00  0.00    +0.060 A 
ATOM     20  C   UNL     1      -3.280   3.383  25.128  0.00  0.00    +0.011 A 
ATOM     21  C   UNL     1      -4.079   3.237  25.275  0.00  0.00    -0.005 A 
ATOM     22  C   UNL     1      -4.466   3.812  25.798  0.00  0.00    -0.003 A 
ATOM     23  C   UNL     1      -4.056   4.452  26.117  0.00  0.00    +0.001 A 
ATOM     24  C   UNL     1      -3.257   4.558  25.941  0.00  0.00    +0.017 A 
ATOM     25  C   UNL     1      -4.549   2.622  24.992  0.00  0.00    +0.095 C 
ATOM     30  N   UNL     1      -4.338   2.000  24.493  0.00  0.00    -0.207 NA
ENDROOT
BRANCH  11   9
ATOM      8  N   UNL     1      -3.512   0.422  24.014  0.00  0.00    -0.199 NA
ATOM      9  C   UNL     1      -3.569   1.170  23.672  0.00  0.00    +0.258 C 
ATOM     10  O   UNL     1      -3.592   1.249  22.851  0.00  0.00    -0.272 OA
BRANCH   8   7
ATOM      7  C   UNL     1      -3.478  -0.249  23.534  0.00  0.00    +0.142 C 
BRANCH   7   6
ATOM      3  C   UNL     1      -3.513  -2.503  24.554  0.00  0.00    +0.139 A 
ATOM      4  C   UNL     1      -2.846  -2.026  24.633  0.00  0.00    +0.037 A 
ATOM      5  C   UNL     1      -2.834  -1.274  24.293  0.00  0.00    +0.001 A 
ATOM      6  C   UNL     1      -3.490  -1.000  23.874  0.00  0.00    -0.000 A 
ATOM     31  C   UNL     1      -4.158  -1.479  23.796  0.00  0.00    +0.001 A 
ATOM     32  C   UNL     1      -4.169  -2.230  24.136  0.00  0.00    +0.037 A 
BRANCH   3   2
ATOM      1  C   UNL     1      -3.201  -3.373  25.644  0.00  0.00    +0.252 C 
ATOM      2  O   UNL     1      -3.525  -3.255  24.894  0.00  0.00    -0.471 OA
ENDBRANCH   3   2
ENDBRANCH   7   6
ENDBRANCH   8   7
ENDBRANCH  11   9
BRANCH  15  16
ATOM     16  C   UNL     1      -1.488   4.519  25.361  0.00  0.00    +0.132 C 
BRANCH  16  17
ATOM     17  C   UNL     1      -0.824   4.576  24.875  0.00  0.00    -0.002 C 
ATOM     18  C   UNL     1      -0.392   5.279  24.848  0.00  0.00    -0.003 C 
ENDBRANCH  16  17
ENDBRANCH  15  16
BRANCH  25  26
ATOM     26  C   UNL     1      -5.335   2.628  25.242  0.00  0.00    +0.022 C 
BRANCH  26  27
ATOM     27  C   UNL     1      -5.750   1.918  25.315  0.00  0.00    +0.002 C 
ATOM     28  C   UNL     1      -6.311   1.709  24.746  0.00  0.00    +0.000 C 
ATOM     29  C   UNL     1      -5.604   1.418  25.954  0.00  0.00    +0.000 C 
ENDBRANCH  26  27
ENDBRANCH  25  26
TORSDOF 8
ENDMDL
MODEL 2
REMARK VINA RESULT:     -10.0      1.822      5.554
REMARK  Name = 
REMARK  8 active torsions:
REMARK  status: ('A' for Active; 'I' for Inactive)
REMARK    1  A    between atoms: O_2  and  C_3
REMARK    2  A    between atoms: C_6  and  C_7
REMARK    3  A    between atoms: C_7  and  N_8
REMARK    4  A    between atoms: C_9  and  C_11
REMARK    5  A    between atoms: N_15  and  C_16
REMARK    6  A    between atoms: C_16  and  C_17
REMARK    7  A    between atoms: C_25  and  C_26
REMARK    8  A    between atoms: C_26  and  C_27
REMARK                            x       y       z     vdW  Elec       q    Type
REMARK                         _______ _______ _______ _____ _____    ______ ____
ROOT
ATOM     11  C   UNL     1      -2.355   0.907  24.042  0.00  0.00    +0.155 C 
ATOM     12  C   UNL     1      -2.789   0.206  24.059  0.00  0.00    +0.055 C 
ATOM     13  C   UNL     1      -2.546  -0.544  24.302  0.00  0.00    -0.002 A 
ATOM     14  C   UNL     1      -3.037  -1.207  24.292  0.00  0.00    +0.072 A 
ATOM     15  N   UNL     1      -2.603  -1.850  24.573  0.00  0.00    -0.322 N 
ATOM     19  C   UNL     1      -1.844  -1.585  24.757  0.00  0.00    +0.060 A 
ATOM     20  C   UNL     1      -1.808  -0.777  24.590  0.00  0.00    +0.011 A 
ATOM     21  C   UNL     1      -1.132  -0.318  24.704  0.00  0.00    -0.005 A 
ATOM     22  C   UNL     1      -0.446  -0.748  25.019  0.00  0.00    -0.003 A 
ATOM     23  C   UNL     1      -0.481  -1.555  25.186  0.00  0.00    +0.001 A 
ATOM     24  C   UNL     1      -1.180  -1.974  25.055  0.00  0.00    +0.017 A 
ATOM     25  C   UNL     1      -1.027   0.486  24.560  0.00  0.00    +0.095 C 
ATOM     30  N   UNL     1      -1.570   1.032  24.265  0.00  0.00    -0.207 NA
ENDROOT
BRANCH  11   9
ATOM      8  N   UNL     1      -3.293   1.963  24.257  0.00  0.00    -0.199 NA
ATOM      9  C   UNL     1      -2.759   1.572  23.766  0.00  0.00    +0.258 C 
ATOM     10  O   UNL     1      -2.627   1.845  22.998  0.00  0.00    -0.272 OA
BRANCH   8   7
ATOM      7  C   UNL     1      -3.696   2.628  23.980  0.00  0.00    +0.142 C 
BRANCH   7   6
ATOM      3  C   UNL     1      -5.302   3.802  25.452  0.00  0.00    +0.139 A 
ATOM      4  C   UNL     1      -5.498   3.068  25.132  0.00  0.00    +0.037 A 
ATOM      5  C   UNL     1      -4.963   2.676  24.641  0.00  0.00    +0.001 A 
ATOM      6  C   UNL     1      -4.232   3.019  24.471  0.00  0.00    -0.000 A 
ATOM     31  C   UNL     1      -4.037   3.754  24.792  0.00  0.00    +0.001 A 
ATOM     32  C   UNL     1      -4.572   4.145  25.282  0.00  0.00    +0.037 A 
BRANCH   3   2
ATOM      1  C   UNL     1      -6.213   4.879  25.679  0.00  0.00    +0.252 C 
ATOM      2  O   UNL     1      -5.838   4.194  25.943  0.00  0.00    -0.471 OA
ENDBRANCH   3   2
ENDBRANCH   7   6
ENDBRANCH   8   7
ENDBRANCH  11   9
BRANCH  15  16
ATOM     16  C   UNL     1      -2.879  -2.623  24.656  0.00  0.00    +0.132 C 
BRANCH  16  17
ATOM     17  C   UNL     1      -3.627  -2.827  24.374  0.00  0.00    -0.002 C 
ATOM     18  C   UNL     1      -3.867  -3.616  24.377  0.00  0.00    -0.003 C 
ENDBRANCH  16  17
ENDBRANCH  15  16
BRANCH  25  26
ATOM     26  C   UNL     1      -0.278   0.786  24.733  0.00  0.00    +0.022 C 
BRANCH  26  27
ATOM     27  C   UNL     1      -0.194   1.571  24.974  0.00  0.00    +0.002 C 
ATOM     28  C   UNL     1      -0.401   1.791  25.743  0.00  0.00    +0.000 C 
ATOM     29  C   UNL     1       0.098   2.135  24.448  0.00  0.00    +0.000 C 
ENDBRANCH  26  27
ENDBRANCH  25  26
TORSDOF 8
ENDMDL
MODEL 3
REMARK VINA RESULT:      -9.9      2.841      3.658
REMARK  Name = 
REMARK  8 active torsions:
REMARK  status: ('A' for Active; 'I' for Inactive)
REMARK    1  A    between atoms: O_2  and  C_3
REMARK    2  A    between atoms: C_6  and  C_7
REMARK    3  A    between atoms: C_7  and  N_8
REMARK    4  A    between atoms: C_9  and  C_11
REMARK    5  A    between atoms: N_15  and  C_16
REMARK    6  A    between atoms: C_16  and  C_17
REMARK    7  A    between atoms: C_25  and  C_26
REMARK    8  A    between atoms: C_26  and  C_27
REMARK                            x       y       z     vdW  Elec       q    Type
REMARK                         _______ _______ _______ _____ _____    ______ ____
ROOT
ATOM     11  C   UNL     1      -1.826   0.741  24.599  0.00  0.00    +0.155 C 
ATOM     12  C   UNL     1      -1.630   1.524  24.765  0.00  0.00    +0.055 C 
ATOM     13  C   UNL     1      -2.128   2.180  24.813  0.00  0.00    -0.002 A 
ATOM     14  C   UNL     1      -1.862   2.942  24.986  0.00  0.00    +0.072 A 
ATOM     15  N   UNL     1      -2.514   3.447  24.985  0.00  0.00    -0.322 N 
ATOM     19  C   UNL     1      -3.184   2.997  24.812  0.00  0.00    +0.060 A 
ATOM     20  C   UNL     1      -2.946   2.214  24.706  0.00  0.00    +0.011 A 
ATOM     21  C   UNL     1      -3.466   1.600  24.525  0.00  0.00    -0.005 A 
ATOM     22  C   UNL     1      -4.299   1.836  24.451  0.00  0.00    -0.003 A 
ATOM     23  C   UNL     1      -4.538   2.618  24.557  0.00  0.00    +0.001 A 
ATOM     24  C   UNL     1      -3.980   3.199  24.738  0.00  0.00    +0.017 A 
ATOM     25  C   UNL     1      -3.299   0.802  24.406  0.00  0.00    +0.095 C 
ATOM     30  N   UNL     1      -2.569   0.419  24.438  0.00  0.00    -0.207 NA
ENDROOT
BRANCH  11   9
ATOM      8  N   UNL     1      -0.654   0.219  23.969  0.00  0.00    -0.199 NA
ATOM      9  C   UNL     1      -1.196   0.207  24.591  0.00  0.00    +0.258 C 
ATOM     10  O   UNL     1      -1.109  -0.337  25.206  0.00  0.00    -0.272 OA
BRANCH   8   7
ATOM      7  C   UNL     1      -0.025  -0.315  23.962  0.00  0.00    +0.142 C 
BRANCH   7   6
ATOM      3  C   UNL     1       1.908   0.072  22.465  0.00  0.00    +0.139 A 
ATOM      4  C   UNL     1       1.280  -0.401  22.214  0.00  0.00    +0.037 A 
ATOM      5  C   UNL     1       0.636  -0.530  22.713  0.00  0.00    +0.001 A 
ATOM      6  C   UNL     1       0.619  -0.186  23.463  0.00  0.00    -0.000 A 
ATOM     31  C   UNL     1       1.248   0.287  23.714  0.00  0.00    +0.001 A 
ATOM     32  C   UNL     1       1.891   0.415  23.214  0.00  0.00    +0.037 A 
BRANCH   3   2
ATOM      1  C   UNL     1       3.291   0.378  22.285  0.00  0.00    +0.252 C 
ATOM      2  O   UNL     1       2.552   0.201  21.966  0.00  0.00    -0.471 OA
ENDBRANCH   3   2
ENDBRANCH   7   6
ENDBRANCH   8   7
ENDBRANCH  11   9
BRANCH  15  16
ATOM     16  C   UNL     1      -2.500   4.258  25.132  0.00  0.00    +0.132 C 
BRANCH  16  17
ATOM     17  C   UNL     1      -1.781   4.645  25.248  0.00  0.00    -0.002 C 
ATOM     18  C   UNL     1      -1.746   5.468  25.214  0.00  0.00    -0.003 C 
ENDBRANCH  16  17
ENDBRANCH  15  16
BRANCH  25  26
ATOM     26  C   UNL     1      -3.946   0.322  24.230  0.00  0.00    +0.022 C 
BRANCH  26  27
ATOM     27  C   UNL     1      -3.952  -0.467  24.473  0.00  0.00    +0.002 C 
ATOM     28  C   UNL     1      -3.857  -1.070  23.917  0.00  0.00    +0.000 C 
ATOM     29  C   UNL     1      -4.054  -0.653  25.270  0.00  0.00    +0.000 C 
ENDBRANCH  26  27
ENDBRANCH  25  26
TORSDOF 8
ENDMDL
MODEL 4
REMARK VINA RESULT:      -9.8      2.339      4.849
REMARK  Name = 
REMARK  8 active torsions:
REMARK  status: ('A' for Active; 'I' for Inactive)
REMARK    1  A    between atoms: O_2  and  C_3
REMARK    2  A    between atoms: C_6  and  C_7
REMARK    3  A    between atoms: C_7  and  N_8
REMARK    4  A    between atoms: C_9  and  C_11
REMARK    5  A    between atoms: N_15  and  C_16
REMARK    6  A    between atoms: C_16  and  C_17
REMARK    7  A    between atoms: C_25  and  C_26
REMARK    8  A    between atoms: C_26  and  C_27
REMARK                            x       y       z     vdW  Elec       q    Type
REMARK                         _______ _______ _______ _____ _____    ______ ____
ROOT
ATOM     11  C   UNL     1      -2.429   0.668  23.902  0.00  0.00    +0.155 C 
ATOM     12  C   UNL     1      -1.664   0.753  23.608  0.00  0.00    +0.055 C 
ATOM     13  C   UNL     1      -0.997   0.294  23.769  0.00  0.00    -0.002 A 
ATOM     14  C   UNL     1      -0.256   0.437  23.436  0.00  0.00    +0.072 A 
ATOM     15  N   UNL     1       0.268  -0.131  23.726  0.00  0.00    -0.322 N 
ATOM     19  C   UNL     1      -0.149  -0.625  24.238  0.00  0.00    +0.060 A 
ATOM     20  C   UNL     1      -0.932  -0.362  24.265  0.00  0.00    +0.011 A 
ATOM     21  C   UNL     1      -1.517  -0.722  24.721  0.00  0.00    -0.005 A 
ATOM     22  C   UNL     1      -1.252  -1.409  25.182  0.00  0.00    -0.003 A 
ATOM     23  C   UNL     1      -0.471  -1.673  25.155  0.00  0.00    +0.001 A 
ATOM     24  C   UNL     1       0.080  -1.280  24.683  0.00  0.00    +0.017 A 
ATOM     25  C   UNL     1      -2.311  -0.515  24.795  0.00  0.00    +0.095 C 
ATOM     30  N   UNL     1      -2.718   0.104  24.431  0.00  0.00    -0.207 NA
ENDROOT
BRANCH  11   9
ATOM      8  N   UNL     1      -3.280   1.789  24.150  0.00  0.00    -0.199 NA
ATOM      9  C   UNL     1      -2.980   1.221  23.633  0.00  0.00    +0.258 C 
ATOM     10  O   UNL     1      -3.230   1.204  22.846  0.00  0.00    -0.272 OA
BRANCH   8   7
ATOM      7  C   UNL     1      -3.831   2.341  23.879  0.00  0.00    +0.142 C 
BRANCH   7   6
ATOM      3  C   UNL     1      -5.171   3.646  25.500  0.00  0.00    +0.139 A 
ATOM      4  C   UNL     1      -4.425   3.912  25.273  0.00  0.00    +0.037 A 
ATOM      5  C   UNL     1      -3.978   3.478  24.733  0.00  0.00    +0.001 A 
ATOM      6  C   UNL     1      -4.278   2.776  24.420  0.00  0.00    -0.000 A 
ATOM     31  C   UNL     1      -5.026   2.510  24.646  0.00  0.00    +0.001 A 
ATOM     32  C   UNL     1      -5.471   2.945  25.186  0.00  0.00    +0.037 A 
BRANCH   3   2
ATOM      1  C   UNL     1      -6.112   4.686  25.774  0.00  0.00    +0.252 C 
ATOM      2  O   UNL     1      -5.618   4.081  26.040  0.00  0.00    -0.471 OA
ENDBRANCH   3   2
ENDBRANCH   7   6
ENDBRANCH   8   7
ENDBRANCH  11   9
BRANCH  15  16
ATOM     16  C   UNL     1       1.068  -0.195  23.537  0.00  0.00    +0.132 C 
BRANCH  16  17
ATOM     17  C   UNL     1       1.350   0.109  22.824  0.00  0.00    -0.002 C 
ATOM     18  C   UNL     1       2.155   0.070  22.650  0.00  0.00    -0.003 C 
ENDBRANCH  16  17
ENDBRANCH  15  16
BRANCH  25  26
ATOM     26  C   UNL     1      -2.760  -0.988  25.300  0.00  0.00    +0.022 C 
BRANCH  26  27
ATOM     27  C   UNL     1      -3.554  -1.137  25.130  0.00  0.00    +0.002 C 
ATOM     28  C   UNL     1      -3.755  -1.653  24.518  0.00  0.00    +0.000 C 
ATOM     29  C   UNL     1      -4.146  -0.769  25.571  0.00  0.00    +0.000 C 
ENDBRANCH  26  27
ENDBRANCH  25  26
TORSDOF 8
ENDMDL
MODEL 5
REMARK VINA RESULT:      -9.4      1.096      2.678
REMARK  Name = 
REMARK  8 active torsions:
REMARK  status: ('A' for Active; 'I' for Inactive)
REMARK    1  A    between atoms: O_2  and  C_3
REMARK    2  A    between atoms: C_6  and  C_7
REMARK    3  A    between atoms: C_7  and  N_8
REMARK    4  A    between atoms: C_9  and  C_11
REMARK    5  A    between atoms: N_15  and  C_16
REMARK    6  A    between atoms: C_16  and  C_17
REMARK    7  A    between atoms: C_25  and  C_26
REMARK    8  A    between atoms: C_26  and  C_27
REMARK                            x       y       z     vdW  Elec       q    Type
REMARK                         _______ _______ _______ _____ _____    ______ ____
ROOT
ATOM     11  C   UNL     1      -2.703   1.826  24.056  0.00  0.00    +0.155 C 
ATOM     12  C   UNL     1      -3.418   2.179  24.267  0.00  0.00    +0.055 C 
ATOM     13  C   UNL     1      -3.543   2.855  24.723  0.00  0.00    -0.002 A 
ATOM     14  C   UNL     1      -4.291   3.155  24.896  0.00  0.00    +0.072 A 
ATOM     15  N   UNL     1      -4.195   3.830  25.361  0.00  0.00    -0.322 N 
ATOM     19  C   UNL     1      -3.387   3.948  25.475  0.00  0.00    +0.060 A 
ATOM     20  C   UNL     1      -2.983   3.345  25.081  0.00  0.00    +0.011 A 
ATOM     21  C   UNL     1      -2.160   3.279  25.071  0.00  0.00    -0.005 A 
ATOM     22  C   UNL     1      -1.738   3.897  25.511  0.00  0.00    -0.003 A 
ATOM     23  C   UNL     1      -2.141   4.500  25.905  0.00  0.00    +0.001 A 
ATOM     24  C   UNL     1      -2.965   4.525  25.887  0.00  0.00    +0.017 A 
ATOM     25  C   UNL     1      -1.695   2.708  24.701  0.00  0.00    +0.095 C 
ATOM     30  N   UNL     1      -1.936   2.061  24.249  0.00  0.00    -0.207 NA
ENDROOT
BRANCH  11   9
ATOM      8  N   UNL     1      -2.974   0.428  23.935  0.00  0.00    -0.199 NA
ATOM      9  C   UNL     1      -2.762   1.147  23.590  0.00  0.00    +0.258 C 
ATOM     10  O   UNL     1      -2.610   1.189  22.780  0.00  0.00    -0.272 OA
BRANCH   8   7
ATOM      7  C   UNL     1      -3.033  -0.250  23.468  0.00  0.00    +0.142 C 
BRANCH   7   6
ATOM      3  C   UNL     1      -3.470  -2.444  24.526  0.00  0.00    +0.139 A 
ATOM      4  C   UNL     1      -2.714  -2.115  24.556  0.00  0.00    +0.037 A 
ATOM      5  C   UNL     1      -2.568  -1.384  24.204  0.00  0.00    +0.001 A 
ATOM      6  C   UNL     1      -3.178  -0.982  23.821  0.00  0.00    -0.000 A 
ATOM     31  C   UNL     1      -3.934  -1.311  23.790  0.00  0.00    +0.001 A 
ATOM     32  C   UNL     1      -4.079  -2.042  24.143  0.00  0.00    +0.037 A 
BRANCH   3   2
ATOM      1  C   UNL     1      -3.295  -3.347  25.619  0.00  0.00    +0.252 C 
ATOM      2  O   UNL     1      -3.616  -3.176  24.878  0.00  0.00    -0.471 OA
ENDBRANCH   3   2
ENDBRANCH   7   6
ENDBRANCH   8   7
ENDBRANCH  11   9
BRANCH  15  16
ATOM     16  C   UNL     1      -4.800   4.305  25.659  0.00  0.00    +0.132 C 
BRANCH  16  17
ATOM     17  C   UNL     1      -5.588   4.112  25.509  0.00  0.00    -0.002 C 
ATOM     18  C   UNL     1      -6.186   4.647  25.701  0.00  0.00    -0.003 C 
ENDBRANCH  16  17
ENDBRANCH  15  16
BRANCH  25  26
ATOM     26  C   UNL     1      -0.880   2.795  24.795  0.00  0.00    +0.022 C 
BRANCH  26  27
ATOM     27  C   UNL     1      -0.407   2.130  24.921  0.00  0.00    +0.002 C 
ATOM     28  C   UNL     1       0.095   1.862  24.323  0.00  0.00    +0.000 C 
ATOM     29  C   UNL     1      -0.435   1.735  25.645  0.00  0.00    +0.000 C 
ENDBRANCH  26  27
ENDBRANCH  25  26
TORSDOF 8
ENDMDL
MODEL 6
REMARK VINA RESULT:      -9.1      2.644      4.251
REMARK  Name = 
REMARK  8 active torsions:
REMARK  status: ('A' for Active; 'I' for Inactive)
REMARK    1  A    between atoms: O_2  and  C_3
REMARK    2  A    between atoms: C_6  and  C_7
REMARK    3  A    between atoms: C_7  and  N_8
REMARK    4  A    between atoms: C_9  and  C_11
REMARK    5  A    between atoms: N_15  and  C_16
REMARK    6  A    between atoms: C_16  and  C_17
REMARK    7  A    between atoms: C_25  and  C_26
REMARK    8  A    between atoms: C_26  and  C_27
REMARK                            x       y       z     vdW  Elec       q    Type
REMARK                         _______ _______ _______ _____ _____    ______ ____
ROOT
ATOM     11  C   UNL     1      -1.876   1.457  25.147  0.00  0.00    +0.155 C 
ATOM     12  C   UNL     1      -2.664   1.293  24.970  0.00  0.00    +0.055 C 
ATOM     13  C   UNL     1      -3.310   1.807  24.971  0.00  0.00    -0.002 A 
ATOM     14  C   UNL     1      -4.078   1.572  24.782  0.00  0.00    +0.072 A 
ATOM     15  N   UNL     1      -4.569   2.233  24.843  0.00  0.00    -0.322 N 
ATOM     19  C   UNL     1      -4.104   2.876  25.069  0.00  0.00    +0.060 A 
ATOM     20  C   UNL     1      -3.325   2.613  25.148  0.00  0.00    +0.011 A 
ATOM     21  C   UNL     1      -2.699   3.103  25.368  0.00  0.00    -0.005 A 
ATOM     22  C   UNL     1      -2.916   3.931  25.514  0.00  0.00    -0.003 A 
ATOM     23  C   UNL     1      -3.694   4.195  25.435  0.00  0.00    +0.001 A 
ATOM     24  C   UNL     1      -4.288   3.667  25.212  0.00  0.00    +0.017 A 
ATOM     25  C   UNL     1      -1.904   2.909  25.465  0.00  0.00    +0.095 C 
ATOM     30  N   UNL     1      -1.537   2.177  25.367  0.00  0.00    -0.207 NA
ENDROOT
BRANCH  11   9
ATOM      8  N   UNL     1      -0.899   0.711  24.418  0.00  0.00    -0.199 NA
ATOM      9  C   UNL     1      -1.356   0.818  25.096  0.00  0.00    +0.258 C 
ATOM     10  O   UNL     1      -1.294   0.286  25.724  0.00  0.00    -0.272 OA
BRANCH   8   7
ATOM      7  C   UNL     1      -0.380   0.071  24.368  0.00  0.00    +0.142 C 
BRANCH   7   6
ATOM      3  C   UNL     1       1.410   0.062  22.659  0.00  0.00    +0.139 A 
ATOM      4  C   UNL     1       0.790  -0.480  22.610  0.00  0.00    +0.037 A 
ATOM      5  C   UNL     1       0.194  -0.477  23.179  0.00  0.00    +0.001 A 
ATOM      6  C   UNL     1       0.217   0.068  23.798  0.00  0.00    -0.000 A 
ATOM     31  C   UNL     1       0.837   0.610  23.847  0.00  0.00    +0.001 A 
ATOM     32  C   UNL     1       1.433   0.607  23.278  0.00  0.00    +0.037 A 
BRANCH   3   2
ATOM      1  C   UNL     1       2.798   0.092  22.321  0.00  0.00    +0.252 C 
ATOM      2  O   UNL     1       2.007   0.059  22.089  0.00  0.00    -0.471 OA
ENDBRANCH   3   2
ENDBRANCH   7   6
ENDBRANCH   8   7
ENDBRANCH  11   9
BRANCH  15  16
ATOM     16  C   UNL     1      -5.381   2.249  24.703  0.00  0.00    +0.132 C 
BRANCH  16  17
ATOM     17  C   UNL     1      -5.847   1.597  24.900  0.00  0.00    -0.002 C 
ATOM     18  C   UNL     1      -6.663   1.624  24.784  0.00  0.00    -0.003 C 
ENDBRANCH  16  17
ENDBRANCH  15  16
BRANCH  25  26
ATOM     26  C   UNL     1      -1.409   3.529  25.691  0.00  0.00    +0.022 C 
BRANCH  26  27
ATOM     27  C   UNL     1      -0.642   3.575  25.390  0.00  0.00    +0.002 C 
ATOM     28  C   UNL     1      -0.002   3.329  25.851  0.00  0.00    +0.000 C 
ATOM     29  C   UNL     1      -0.515   3.867  24.629  0.00  0.00    +0.000 C 
ENDBRANCH  26  27
ENDBRANCH  25  26
TORSDOF 8
ENDMDL
MODEL 7
REMARK VINA RESULT:      -8.9      2.774      4.594
REMARK  Name = 
REMARK  8 active torsions:
REMARK  status: ('A' for Active; 'I' for Inactive)
REMARK    1  A    between atoms: O_2  and  C_3
REMARK    2  A    between atoms: C_6  and  C_7
REMARK    3  A    between atoms: C_7  and  N_8
REMARK    4  A    between atoms: C_9  and  C_11
REMARK    5  A    between atoms: N_15  and  C_16
REMARK    6  A    between atoms: C_16  and  C_17
REMARK    7  A    between atoms: C_25  and  C_26
REMARK    8  A    between atoms: C_26  and  C_27
REMARK                            x       y       z     vdW  Elec       q    Type
REMARK                         _______ _______ _______ _____ _____    ______ ____
ROOT
ATOM     11  C   UNL     1      -1.946   1.411  25.023  0.00  0.00    +0.155 C 
ATOM     12  C   UNL     1      -2.212   0.656  24.826  0.00  0.00    +0.055 C 
ATOM     13  C   UNL     1      -2.987   0.394  24.721  0.00  0.00    -0.002 A 
ATOM     14  C   UNL     1      -3.183  -0.383  24.523  0.00  0.00    +0.072 A 
ATOM     15  N   UNL     1      -4.004  -0.433  24.467  0.00  0.00    -0.322 N 
ATOM     19  C   UNL     1      -4.317   0.312  24.630  0.00  0.00    +0.060 A 
ATOM     20  C   UNL     1      -3.689   0.824  24.788  0.00  0.00    +0.011 A 
ATOM     21  C   UNL     1      -3.787   1.622  24.975  0.00  0.00    -0.005 A 
ATOM     22  C   UNL     1      -4.611   1.894  24.997  0.00  0.00    -0.003 A 
ATOM     23  C   UNL     1      -5.240   1.384  24.840  0.00  0.00    +0.001 A 
ATOM     24  C   UNL     1      -5.093   0.592  24.657  0.00  0.00    +0.017 A 
ATOM     25  C   UNL     1      -3.210   2.185  25.142  0.00  0.00    +0.095 C 
ATOM     30  N   UNL     1      -2.390   2.092  25.164  0.00  0.00    -0.207 NA
ENDROOT
BRANCH  11   9
ATOM      8  N   UNL     1      -0.643   1.324  24.444  0.00  0.00    -0.199 NA
ATOM      9  C   UNL     1      -1.128   1.497  25.088  0.00  0.00    +0.258 C 
ATOM     10  O   UNL     1      -0.796   1.758  25.797  0.00  0.00    -0.272 OA
BRANCH   8   7
ATOM      7  C   UNL     1       0.175   1.410  24.509  0.00  0.00    +0.142 C 
BRANCH   7   6
ATOM      3  C   UNL     1       1.668   0.353  22.843  0.00  0.00    +0.139 A 
ATOM      4  C   UNL     1       1.897   1.051  23.216  0.00  0.00    +0.037 A 
ATOM      5  C   UNL     1       1.400   1.404  23.772  0.00  0.00    +0.001 A 
ATOM      6  C   UNL     1       0.673   1.058  23.954  0.00  0.00    -0.000 A 
ATOM     31  C   UNL     1       0.444   0.358  23.580  0.00  0.00    +0.001 A 
ATOM     32  C   UNL     1       0.942   0.007  23.025  0.00  0.00    +0.037 A 
BRANCH   3   2
ATOM      1  C   UNL     1       2.984   0.040  22.383  0.00  0.00    +0.252 C 
ATOM      2  O   UNL     1       2.166   0.000  22.287  0.00  0.00    -0.471 OA
ENDBRANCH   3   2
ENDBRANCH   7   6
ENDBRANCH   8   7
ENDBRANCH  11   9
BRANCH  15  16
ATOM     16  C   UNL     1      -4.438  -1.110  24.280  0.00  0.00    +0.132 C 
BRANCH  16  17
ATOM     17  C   UNL     1      -4.050  -1.826  24.151  0.00  0.00    -0.002 C 
ATOM     18  C   UNL     1      -4.448  -2.450  23.787  0.00  0.00    -0.003 C 
ENDBRANCH  16  17
ENDBRANCH  15  16
BRANCH  25  26
ATOM     26  C   UNL     1      -3.487   2.944  25.311  0.00  0.00    +0.022 C 
BRANCH  26  27
ATOM     27  C   UNL     1      -3.052   3.604  25.075  0.00  0.00    +0.002 C 
ATOM     28  C   UNL     1      -3.053   3.837  24.283  0.00  0.00    +0.000 C 
ATOM     29  C   UNL     1      -2.616   4.031  25.630  0.00  0.00    +0.000 C 
ENDBRANCH  26  27
ENDBRANCH  25  26
TORSDOF 8
ENDMDL
MODEL 8
REMARK VINA RESULT:      -8.7      2.079      4.515
REMARK  Name = 
REMARK  8 active torsions:
REMARK  status: ('A' for Active; 'I' for Inactive)
REMARK    1  A    between atoms: O_2  and  C_3
REMARK    2  A    between atoms: C_6  and  C_7
REMARK    3  A    between atoms: C_7  and  N_8
REMARK    4  A    between atoms: C_9  and  C_11
REMARK    5  A    between atoms: N_15  and  C_16
REMARK    6  A    between atoms: C_16  and  C_17
REMARK    7  A    between atoms: C_25  and  C_26
REMARK    8  A    between atoms: C_26  and  C_27
REMARK                            x       y       z     vdW  Elec       q    Type
REMARK                         _______ _______ _______ _____ _____    ______ ____
ROOT
ATOM     11  C   UNL     1      -2.479   2.410  24.049  0.00  0.00    +0.155 C 
ATOM     12  C   UNL     1      -2.304   1.605  24.002  0.00  0.00    +0.055 C 
ATOM     13  C   UNL     1      -1.577   1.229  24.104  0.00  0.00    -0.002 A 
ATOM     14  C   UNL     1      -1.474   0.413  24.043  0.00  0.00    +0.072 A 
ATOM     15  N   UNL     1      -0.678   0.245  24.178  0.00  0.00    -0.322 N 
ATOM     19  C   UNL     1      -0.288   0.958  24.323  0.00  0.00    +0.060 A 
ATOM     20  C   UNL     1      -0.844   1.566  24.278  0.00  0.00    +0.011 A 
ATOM     21  C   UNL     1      -0.658   2.362  24.392  0.00  0.00    -0.005 A 
ATOM     22  C   UNL     1       0.178   2.522  24.568  0.00  0.00    -0.003 A 
ATOM     23  C   UNL     1       0.734   1.914  24.614  0.00  0.00    +0.001 A 
ATOM     24  C   UNL     1       0.500   1.132  24.491  0.00  0.00    +0.017 A 
ATOM     25  C   UNL     1      -1.158   3.017  24.362  0.00  0.00    +0.095 C 
ATOM     30  N   UNL     1      -1.968   3.038  24.209  0.00  0.00    -0.207 NA
ENDROOT
BRANCH  11   9
ATOM      8  N   UNL     1      -3.827   2.500  24.514  0.00  0.00    -0.199 NA
ATOM      9  C   UNL     1      -3.268   2.614  23.919  0.00  0.00    +0.258 C 
ATOM     10  O   UNL     1      -3.496   2.932  23.192  0.00  0.00    -0.272 OA
BRANCH   8   7
ATOM      7  C   UNL     1      -4.616   2.704  24.383  0.00  0.00    +0.142 C 
BRANCH   7   6
ATOM      3  C   UNL     1      -6.335   2.148  26.074  0.00  0.00    +0.139 A 
ATOM      4  C   UNL     1      -6.261   1.687  25.394  0.00  0.00    +0.037 A 
ATOM      5  C   UNL     1      -5.688   1.872  24.831  0.00  0.00    +0.001 A 
ATOM      6  C   UNL     1      -5.189   2.519  24.946  0.00  0.00    -0.000 A 
ATOM     31  C   UNL     1      -5.263   2.980  25.627  0.00  0.00    +0.001 A 
ATOM     32  C   UNL     1      -5.836   2.795  26.189  0.00  0.00    +0.037 A 
BRANCH   3   2
ATOM      1  C   UNL     1      -6.731   1.437  27.247  0.00  0.00    +0.252 C 
ATOM      2  O   UNL     1      -6.908   1.963  26.638  0.00  0.00    -0.471 OA
ENDBRANCH   3   2
ENDBRANCH   7   6
ENDBRANCH   8   7
ENDBRANCH  11   9
BRANCH  15  16
ATOM     16  C   UNL     1      -0.331  -0.503  24.170  0.00  0.00    +0.132 C 
BRANCH  16  17
ATOM     17  C   UNL     1      -0.781  -1.169  24.357  0.00  0.00    -0.002 C 
ATOM     18  C   UNL     1      -0.407  -1.866  24.591  0.00  0.00    -0.003 C 
ENDBRANCH  16  17
ENDBRANCH  15  16
BRANCH  25  26
ATOM     26  C   UNL     1      -0.801   3.747  24.503  0.00  0.00    +0.022 C 
BRANCH  26  27
ATOM     27  C   UNL     1      -1.182   4.308  24.975  0.00  0.00    +0.002 C 
ATOM     28  C   UNL     1      -1.349   4.136  25.765  0.00  0.00    +0.000 C 
ATOM     29  C   UNL     1      -1.395   5.038  24.656  0.00  0.00    +0.000 C 
ENDBRANCH  26  27
ENDBRANCH  25  26
TORSDOF 8
ENDMDL
