MODEL 1
REMARK VINA RESULT:     -10.7      0.000      0.000
REMARK  Name = 
REMARK  7 active torsions:
REMARK  status: ('A' for Active; 'I' for Inactive)
REMARK    1  A    between atoms: C_5  and  C_6
REMARK    2  A    between atoms: C_6  and  C_7
REMARK    3  A    between atoms: N_9  and  C_10
REMARK    4  A    between atoms: C_10  and  C_11
REMARK    5  A    between atoms: C_14  and  C_15
REMARK    6  A    between atoms: C_15  and  N_16
REMARK    7  A    between atoms: C_17  and  C_19
REMARK                            x       y       z     vdW  Elec       q    Type
REMARK                         _______ _______ _______ _____ _____    ______ ____
ROOT
ATOM      1  O   UNL     1      -5.912   3.469  25.702  0.00  0.00    -0.218 OA
ATOM      2  C   UNL     1      -5.436   2.841  25.457  0.00  0.00    +0.213 C 
ATOM      3  C   UNL     1      -5.702   2.128  25.139  0.00  0.00    +0.212 C 
ATOM      4  O   UNL     1      -6.490   1.917  25.010  0.00  0.00    -0.218 OA
ATOM      5  C   UNL     1      -5.042   1.661  24.972  0.00  0.00    +0.157 C 
ATOM     13  O   UNL     1      -4.369   2.087  25.187  0.00  0.00    -0.351 OA
ATOM     14  C   UNL     1      -4.613   2.816  25.487  0.00  0.00    +0.170 C 
ENDROOT
BRANCH   5   6
ATOM      6  C   UNL     1      -5.053   0.904  24.647  0.00  0.00    +0.119 C 
BRANCH   6   7
ATOM      7  C   UNL     1      -4.347   0.490  24.538  0.00  0.00    +0.245 C 
ATOM      8  O   UNL     1      -3.784   0.772  24.006  0.00  0.00    -0.273 OA
ATOM      9  N   UNL     1      -4.205  -0.203  24.960  0.00  0.00    -0.191 NA
BRANCH   9  10
ATOM     10  C   UNL     1      -3.500  -0.617  24.851  0.00  0.00    +0.191 C 
BRANCH  10  11
ATOM     11  C   UNL     1      -3.422  -1.385  25.139  0.00  0.00    -0.054 C 
ATOM     12  C   UNL     1      -3.344  -2.154  25.427  0.00  0.00    -0.012 C 
ENDBRANCH  10  11
ENDBRANCH   9  10
ENDBRANCH   6   7
ENDBRANCH   5   6
BRANCH  14  15
ATOM     15  C   UNL     1      -4.119   3.416  25.768  0.00  0.00    +0.148 C 
BRANCH  15  16
ATOM     16  N   UNL     1      -3.346   3.477  25.488  0.00  0.00    -0.199 NA
ATOM     17  C   UNL     1      -2.813   3.986  25.860  0.00  0.00    +0.265 C 
ATOM     18  O   UNL     1      -3.054   4.432  26.511  0.00  0.00    -0.268 OA
BRANCH  17  19
ATOM     19  C   UNL     1      -2.039   4.048  25.581  0.00  0.00    +0.057 A 
ATOM     20  C   UNL     1      -1.543   3.390  25.590  0.00  0.00    +0.005 A 
ATOM     21  C   UNL     1      -0.769   3.452  25.311  0.00  0.00    +0.002 A 
ATOM     22  C   UNL     1      -0.491   4.173  25.023  0.00  0.00    +0.030 A 
ATOM     23  C   UNL     1      -0.988   4.832  25.014  0.00  0.00    +0.140 A 
ATOM     24  F   UNL     1      -0.710   5.554  24.725  0.00  0.00    -0.204 F 
ATOM     25  C   UNL     1      -1.762   4.770  25.293  0.00  0.00    +0.034 A 
ENDBRANCH  17  19
ENDBRANCH  15  16
ENDBRANCH  14  15
TORSDOF 7
ENDMDL
MODEL 2
REMARK VINA RESULT:     -10.2      1.764      3.276
REMARK  Name = 
REMARK  7 active torsions:
REMARK  status: ('A' for Active; 'I' for Inactive)
REMARK    1  A    between atoms: C_5  and  C_6
REMARK    2  A    between atoms: C_6  and  C_7
REMARK    3  A    between atoms: N_9  and  C_10
REMARK    4  A    between atoms: C_10  and  C_11
REMARK    5  A    between atoms: C_14  and  C_15
REMARK    6  A    between atoms: C_15  and  N_16
REMARK    7  A    between atoms: C_17  and  C_19
REMARK                            x       y       z     vdW  Elec       q    Type
REMARK                         _______ _______ _______ _____ _____    ______ ____
ROOT
ATOM      1  O   UNL     1      -0.274  -0.415  24.911  0.00  0.00    -0.218 OA
ATOM      2  C   UNL     1      -1.072  -0.205  24.911  0.00  0.00    +0.213 C 
ATOM      3  C   UNL     1      -1.700  -0.690  24.684  0.00  0.00    +0.212 C 
ATOM      4  O   UNL     1      -1.641  -1.470  24.419  0.00  0.00    -0.218 OA
ATOM      5  C   UNL     1      -2.399  -0.260  24.770  0.00  0.00    +0.157 C 
ATOM     13  O   UNL     1      -2.202   0.491  25.049  0.00  0.00    -0.351 OA
ATOM     14  C   UNL     1      -1.382   0.524  25.136  0.00  0.00    +0.170 C 
ENDROOT
BRANCH   5   6
ATOM      6  C   UNL     1      -3.160  -0.532  24.605  0.00  0.00    +0.119 C 
BRANCH   6   7
ATOM      7  C   UNL     1      -3.803  -0.246  25.035  0.00  0.00    +0.245 C 
ATOM      8  O   UNL     1      -3.995  -0.582  25.763  0.00  0.00    -0.273 OA
ATOM      9  N   UNL     1      -4.255   0.376  24.737  0.00  0.00    -0.191 NA
BRANCH   9  10
ATOM     10  C   UNL     1      -4.898   0.663  25.167  0.00  0.00    +0.191 C 
BRANCH  10  11
ATOM     11  C   UNL     1      -5.216   1.403  24.991  0.00  0.00    -0.054 C 
ATOM     12  C   UNL     1      -5.534   2.143  24.815  0.00  0.00    -0.012 C 
ENDBRANCH  10  11
ENDBRANCH   9  10
ENDBRANCH   6   7
ENDBRANCH   5   6
BRANCH  14  15
ATOM     15  C   UNL     1      -0.948   1.174  25.402  0.00  0.00    +0.148 C 
BRANCH  15  16
ATOM     16  N   UNL     1      -1.232   1.938  25.276  0.00  0.00    -0.199 NA
ATOM     17  C   UNL     1      -0.871   2.579  25.651  0.00  0.00    +0.265 C 
ATOM     18  O   UNL     1      -0.227   2.454  26.152  0.00  0.00    -0.268 OA
BRANCH  17  19
ATOM     19  C   UNL     1      -1.154   3.343  25.526  0.00  0.00    +0.057 A 
ATOM     20  C   UNL     1      -1.915   3.547  25.769  0.00  0.00    +0.005 A 
ATOM     21  C   UNL     1      -2.198   4.311  25.644  0.00  0.00    +0.002 A 
ATOM     22  C   UNL     1      -1.719   4.873  25.275  0.00  0.00    +0.030 A 
ATOM     23  C   UNL     1      -0.957   4.669  25.031  0.00  0.00    +0.140 A 
ATOM     24  F   UNL     1      -0.479   5.231  24.662  0.00  0.00    -0.204 F 
ATOM     25  C   UNL     1      -0.675   3.905  25.156  0.00  0.00    +0.034 A 
ENDBRANCH  17  19
ENDBRANCH  15  16
ENDBRANCH  14  15
TORSDOF 7
ENDMDL
MODEL 3
REMARK VINA RESULT:     -10.2      1.993      4.502
REMARK  Name = 
REMARK  7 active torsions:
REMARK  status: ('A' for Active; 'I' for Inactive)
REMARK    1  A    between atoms: C_5  and  C_6
REMARK    2  A    between atoms: C_6  and  C_7
REMARK    3  A    between atoms: N_9  and  C_10
REMARK    4  A    between atoms: C_10  and  C_11
REMARK    5  A    between atoms: C_14  and  C_15
REMARK    6  A    between atoms: C_15  and  N_16
REMARK    7  A    between atoms: C_17  and  C_19
REMARK                            x       y       z     vdW  Elec       q    Type
REMARK                         _______ _______ _______ _____ _____    ______ ____
ROOT
ATOM      1  O   UNL     1      -6.154   2.021  25.065  0.00  0.00    -0.218 OA
ATOM      2  C   UNL     1      -5.357   2.221  25.135  0.00  0.00    +0.213 C 
ATOM      3  C   UNL     1      -5.061   2.942  25.405  0.00  0.00    +0.212 C 
ATOM      4  O   UNL     1      -5.509   3.590  25.652  0.00  0.00    -0.218 OA
ATOM      5  C   UNL     1      -4.236   2.903  25.385  0.00  0.00    +0.157 C 
ATOM     13  O   UNL     1      -4.024   2.158  25.103  0.00  0.00    -0.351 OA
ATOM     14  C   UNL     1      -4.716   1.736  24.949  0.00  0.00    +0.170 C 
ENDROOT
BRANCH   5   6
ATOM      6  C   UNL     1      -3.717   3.504  25.608  0.00  0.00    +0.119 C 
BRANCH   6   7
ATOM      7  C   UNL     1      -2.962   3.541  25.277  0.00  0.00    +0.245 C 
ATOM      8  O   UNL     1      -2.868   3.783  24.494  0.00  0.00    -0.273 OA
ATOM      9  N   UNL     1      -2.303   3.338  25.727  0.00  0.00    -0.191 NA
BRANCH   9  10
ATOM     10  C   UNL     1      -1.548   3.376  25.396  0.00  0.00    +0.191 C 
BRANCH  10  11
ATOM     11  C   UNL     1      -0.914   3.006  25.771  0.00  0.00    -0.054 C 
ATOM     12  C   UNL     1      -0.278   2.636  26.145  0.00  0.00    -0.012 C 
ENDBRANCH  10  11
ENDBRANCH   9  10
ENDBRANCH   6   7
ENDBRANCH   5   6
BRANCH  14  15
ATOM     15  C   UNL     1      -4.760   0.965  24.658  0.00  0.00    +0.148 C 
BRANCH  15  16
ATOM     16  N   UNL     1      -4.189   0.411  24.872  0.00  0.00    -0.199 NA
ATOM     17  C   UNL     1      -4.172  -0.328  24.504  0.00  0.00    +0.265 C 
ATOM     18  O   UNL     1      -4.729  -0.511  23.923  0.00  0.00    -0.268 OA
BRANCH  17  19
ATOM     19  C   UNL     1      -3.601  -0.883  24.717  0.00  0.00    +0.057 A 
ATOM     20  C   UNL     1      -2.801  -0.687  24.679  0.00  0.00    +0.005 A 
ATOM     21  C   UNL     1      -2.229  -1.242  24.892  0.00  0.00    +0.002 A 
ATOM     22  C   UNL     1      -2.457  -1.993  25.144  0.00  0.00    +0.030 A 
ATOM     23  C   UNL     1      -3.258  -2.189  25.183  0.00  0.00    +0.140 A 
ATOM     24  F   UNL     1      -3.486  -2.941  25.436  0.00  0.00    -0.204 F 
ATOM     25  C   UNL     1      -3.830  -1.634  24.970  0.00  0.00    +0.034 A 
ENDBRANCH  17  19
ENDBRANCH  15  16
ENDBRANCH  14  15
TORSDOF 7
ENDMDL
MODEL 4
REMARK VINA RESULT:     -10.1      2.491      5.111
REMARK  Name = 
REMARK  7 active torsions:
REMARK  status: ('A' for Active; 'I' for Inactive)
REMARK    1  A    between atoms: C_5  and  C_6
REMARK    2  A    between atoms: C_6  and  C_7
REMARK    3  A    between atoms: N_9  and  C_10
REMARK    4  A    between atoms: C_10  and  C_11
REMARK    5  A    between atoms: C_14  and  C_15
REMARK    6  A    between atoms: C_15  and  N_16
REMARK    7  A    between atoms: C_17  and  C_19
REMARK                            x       y       z     vdW  Elec       q    Type
REMARK                         _______ _______ _______ _____ _____    ______ ____
ROOT
ATOM      1  O   UNL     1      -0.198   1.603  25.551  0.00  0.00    -0.218 OA
ATOM      2  C   UNL     1      -0.979   1.816  25.391  0.00  0.00    +0.213 C 
ATOM      3  C   UNL     1      -1.303   2.570  25.478  0.00  0.00    +0.212 C 
ATOM      4  O   UNL     1      -0.904   3.243  25.741  0.00  0.00    -0.218 OA
ATOM      5  C   UNL     1      -2.097   2.533  25.257  0.00  0.00    +0.157 C 
ATOM     13  O   UNL     1      -2.263   1.756  25.033  0.00  0.00    -0.351 OA
ATOM     14  C   UNL     1      -1.572   1.314  25.116  0.00  0.00    +0.170 C 
ENDROOT
BRANCH   5   6
ATOM      6  C   UNL     1      -2.631   3.162  25.259  0.00  0.00    +0.119 C 
BRANCH   6   7
ATOM      7  C   UNL     1      -3.331   3.111  24.825  0.00  0.00    +0.245 C 
ATOM      8  O   UNL     1      -3.324   3.258  24.013  0.00  0.00    -0.273 OA
ATOM      9  N   UNL     1      -4.037   2.914  25.202  0.00  0.00    -0.191 NA
BRANCH   9  10
ATOM     10  C   UNL     1      -4.737   2.863  24.768  0.00  0.00    +0.191 C 
BRANCH  10  11
ATOM     11  C   UNL     1      -5.384   2.454  25.074  0.00  0.00    -0.054 C 
ATOM     12  C   UNL     1      -6.030   2.043  25.380  0.00  0.00    -0.012 C 
ENDBRANCH  10  11
ENDBRANCH   9  10
ENDBRANCH   6   7
ENDBRANCH   5   6
BRANCH  14  15
ATOM     15  C   UNL     1      -1.488   0.509  24.952  0.00  0.00    +0.148 C 
BRANCH  15  16
ATOM     16  N   UNL     1      -2.156   0.034  24.870  0.00  0.00    -0.199 NA
ATOM     17  C   UNL     1      -2.077  -0.752  24.628  0.00  0.00    +0.265 C 
ATOM     18  O   UNL     1      -1.328  -1.060  24.470  0.00  0.00    -0.268 OA
BRANCH  17  19
ATOM     19  C   UNL     1      -2.745  -1.228  24.545  0.00  0.00    +0.057 A 
ATOM     20  C   UNL     1      -3.357  -0.996  24.043  0.00  0.00    +0.005 A 
ATOM     21  C   UNL     1      -4.025  -1.472  23.960  0.00  0.00    +0.002 A 
ATOM     22  C   UNL     1      -4.082  -2.181  24.379  0.00  0.00    +0.030 A 
ATOM     23  C   UNL     1      -3.470  -2.412  24.882  0.00  0.00    +0.140 A 
ATOM     24  F   UNL     1      -3.526  -3.121  25.301  0.00  0.00    -0.204 F 
ATOM     25  C   UNL     1      -2.801  -1.936  24.965  0.00  0.00    +0.034 A 
ENDBRANCH  17  19
ENDBRANCH  15  16
ENDBRANCH  14  15
TORSDOF 7
ENDMDL
MODEL 5
REMARK VINA RESULT:     -10.0      2.455      3.988
REMARK  Name = 
REMARK  7 active torsions:
REMARK  status: ('A' for Active; 'I' for Inactive)
REMARK    1  A    between atoms: C_5  and  C_6
REMARK    2  A    between atoms: C_6  and  C_7
REMARK    3  A    between atoms: N_9  and  C_10
REMARK    4  A    between atoms: C_10  and  C_11
REMARK    5  A    between atoms: C_14  and  C_15
REMARK    6  A    between atoms: C_15  and  N_16
REMARK    7  A    between atoms: C_17  and  C_19
REMARK                            x       y       z     vdW  Elec       q    Type
REMARK                         _______ _______ _______ _____ _____    ______ ____
ROOT
ATOM      1  O   UNL     1      -0.738   2.468  23.870  0.00  0.00    -0.218 OA
ATOM      2  C   UNL     1      -1.102   1.748  24.045  0.00  0.00    +0.213 C 
ATOM      3  C   UNL     1      -0.716   1.039  24.214  0.00  0.00    +0.212 C 
ATOM      4  O   UNL     1       0.101   0.924  24.239  0.00  0.00    -0.218 OA
ATOM      5  C   UNL     1      -1.291   0.463  24.355  0.00  0.00    +0.157 C 
ATOM     13  O   UNL     1      -2.031   0.818  24.272  0.00  0.00    -0.351 OA
ATOM     14  C   UNL     1      -1.914   1.611  24.081  0.00  0.00    +0.170 C 
ENDROOT
BRANCH   5   6
ATOM      6  C   UNL     1      -1.149  -0.327  24.544  0.00  0.00    +0.119 C 
BRANCH   6   7
ATOM      7  C   UNL     1      -1.699  -0.750  24.991  0.00  0.00    +0.245 C 
ATOM      8  O   UNL     1      -1.775  -0.601  25.799  0.00  0.00    -0.273 OA
ATOM      9  N   UNL     1      -2.173  -1.320  24.631  0.00  0.00    -0.191 NA
BRANCH   9  10
ATOM     10  C   UNL     1      -2.723  -1.743  25.077  0.00  0.00    +0.191 C 
BRANCH  10  11
ATOM     11  C   UNL     1      -3.241  -2.267  24.707  0.00  0.00    -0.054 C 
ATOM     12  C   UNL     1      -3.758  -2.791  24.335  0.00  0.00    -0.012 C 
ENDBRANCH  10  11
ENDBRANCH   9  10
ENDBRANCH   6   7
ENDBRANCH   5   6
BRANCH  14  15
ATOM     15  C   UNL     1      -2.507   2.171  23.948  0.00  0.00    +0.148 C 
BRANCH  15  16
ATOM     16  N   UNL     1      -3.181   2.177  24.422  0.00  0.00    -0.199 NA
ATOM     17  C   UNL     1      -3.821   2.659  24.223  0.00  0.00    +0.265 C 
ATOM     18  O   UNL     1      -3.784   3.135  23.550  0.00  0.00    -0.268 OA
BRANCH  17  19
ATOM     19  C   UNL     1      -4.496   2.666  24.697  0.00  0.00    +0.057 A 
ATOM     20  C   UNL     1      -4.569   3.219  25.303  0.00  0.00    +0.005 A 
ATOM     21  C   UNL     1      -5.244   3.226  25.777  0.00  0.00    +0.002 A 
ATOM     22  C   UNL     1      -5.847   2.678  25.644  0.00  0.00    +0.030 A 
ATOM     23  C   UNL     1      -5.774   2.124  25.036  0.00  0.00    +0.140 A 
ATOM     24  F   UNL     1      -6.376   1.576  24.903  0.00  0.00    -0.204 F 
ATOM     25  C   UNL     1      -5.098   2.117  24.563  0.00  0.00    +0.034 A 
ENDBRANCH  17  19
ENDBRANCH  15  16
ENDBRANCH  14  15
TORSDOF 7
ENDMDL
MODEL 6
REMARK VINA RESULT:     -10.0      2.456      4.575
REMARK  Name = 
REMARK  7 active torsions:
REMARK  status: ('A' for Active; 'I' for Inactive)
REMARK    1  A    between atoms: C_5  and  C_6
REMARK    2  A    between atoms: C_6  and  C_7
REMARK    3  A    between atoms: N_9  and  C_10
REMARK    4  A    between atoms: C_10  and  C_11
REMARK    5  A    between atoms: C_14  and  C_15
REMARK    6  A    between atoms: C_15  and  N_16
REMARK    7  A    between atoms: C_17  and  C_19
REMARK                            x       y       z     vdW  Elec       q    Type
REMARK                         _______ _______ _______ _____ _____    ______ ____
ROOT
ATOM      1  O   UNL     1      -4.415   3.388  24.947  0.00  0.00    -0.218 OA
ATOM      2  C   UNL     1      -3.664   3.053  24.874  0.00  0.00    +0.213 C 
ATOM      3  C   UNL     1      -2.956   3.467  24.786  0.00  0.00    +0.212 C 
ATOM      4  O   UNL     1      -2.873   4.288  24.757  0.00  0.00    -0.218 OA
ATOM      5  C   UNL     1      -2.343   2.917  24.733  0.00  0.00    +0.157 C 
ATOM     13  O   UNL     1      -2.674   2.163  24.788  0.00  0.00    -0.351 OA
ATOM     14  C   UNL     1      -3.490   2.247  24.875  0.00  0.00    +0.170 C 
ENDROOT
BRANCH   5   6
ATOM      6  C   UNL     1      -1.542   3.090  24.642  0.00  0.00    +0.119 C 
BRANCH   6   7
ATOM      7  C   UNL     1      -0.972   2.534  24.858  0.00  0.00    +0.245 C 
ATOM      8  O   UNL     1      -0.758   2.451  25.651  0.00  0.00    -0.273 OA
ATOM      9  N   UNL     1      -0.616   2.062  24.284  0.00  0.00    -0.191 NA
BRANCH   9  10
ATOM     10  C   UNL     1      -0.046   1.506  24.500  0.00  0.00    +0.191 C 
BRANCH  10  11
ATOM     11  C   UNL     1       0.127   0.875  23.999  0.00  0.00    -0.054 C 
ATOM     12  C   UNL     1       0.300   0.243  23.499  0.00  0.00    -0.012 C 
ENDBRANCH  10  11
ENDBRANCH   9  10
ENDBRANCH   6   7
ENDBRANCH   5   6
BRANCH  14  15
ATOM     15  C   UNL     1      -4.036   1.633  24.950  0.00  0.00    +0.148 C 
BRANCH  15  16
ATOM     16  N   UNL     1      -3.793   0.852  24.854  0.00  0.00    -0.199 NA
ATOM     17  C   UNL     1      -4.322   0.235  24.998  0.00  0.00    +0.265 C 
ATOM     18  O   UNL     1      -5.094   0.401  25.237  0.00  0.00    -0.268 OA
BRANCH  17  19
ATOM     19  C   UNL     1      -4.080  -0.548  24.903  0.00  0.00    +0.057 A 
ATOM     20  C   UNL     1      -3.584  -0.897  25.461  0.00  0.00    +0.005 A 
ATOM     21  C   UNL     1      -3.341  -1.680  25.366  0.00  0.00    +0.002 A 
ATOM     22  C   UNL     1      -3.595  -2.114  24.712  0.00  0.00    +0.030 A 
ATOM     23  C   UNL     1      -4.091  -1.764  24.153  0.00  0.00    +0.140 A 
ATOM     24  F   UNL     1      -4.345  -2.198  23.498  0.00  0.00    -0.204 F 
ATOM     25  C   UNL     1      -4.334  -0.981  24.248  0.00  0.00    +0.034 A 
ENDBRANCH  17  19
ENDBRANCH  15  16
ENDBRANCH  14  15
TORSDOF 7
ENDMDL
MODEL 7
REMARK VINA RESULT:      -7.8     16.049     18.451
REMARK  Name = 
REMARK  7 active torsions:
REMARK  status: ('A' for Active; 'I' for Inactive)
REMARK    1  A    between atoms: C_5  and  C_6
REMARK    2  A    between atoms: C_6  and  C_7
REMARK    3  A    between atoms: N_9  and  C_10
REMARK    4  A    between atoms: C_10  and  C_11
REMARK    5  A    between atoms: C_14  and  C_15
REMARK    6  A    between atoms: C_15  and  N_16
REMARK    7  A    between atoms: C_17  and  C_19
REMARK                            x       y       z     vdW  Elec       q    Type
REMARK                         _______ _______ _______ _____ _____    ______ ____
ROOT
ATOM      1  O   UNL     1      12.051   8.895  17.726  0.00  0.00    -0.218 OA
ATOM      2  C   UNL     1      11.985   8.707  18.527  0.00  0.00    +0.213 C 
ATOM      3  C   UNL     1      11.281   8.588  18.940  0.00  0.00    +0.212 C 
ATOM      4  O   UNL     1      10.519   8.634  18.625  0.00  0.00    -0.218 OA
ATOM      5  C   UNL     1      11.471   8.413  19.724  0.00  0.00    +0.157 C 
ATOM     13  O   UNL     1      12.293   8.425  19.794  0.00  0.00    -0.351 OA
ATOM     14  C   UNL     1      12.610   8.607  19.055  0.00  0.00    +0.170 C 
ENDROOT
BRANCH   5   6
ATOM      6  C   UNL     1      10.935   8.254  20.329  0.00  0.00    +0.119 C 
BRANCH   6   7
ATOM      7  C   UNL     1      11.163   7.792  20.973  0.00  0.00    +0.245 C 
ATOM      8  O   UNL     1      11.585   8.132  21.596  0.00  0.00    -0.273 OA
ATOM      9  N   UNL     1      10.970   6.991  20.996  0.00  0.00    -0.191 NA
BRANCH   9  10
ATOM     10  C   UNL     1      11.199   6.529  21.640  0.00  0.00    +0.191 C 
BRANCH  10  11
ATOM     11  C   UNL     1      11.029   5.722  21.651  0.00  0.00    -0.054 C 
ATOM     12  C   UNL     1      10.859   4.915  21.662  0.00  0.00    -0.012 C 
ENDBRANCH  10  11
ENDBRANCH   9  10
ENDBRANCH   6   7
ENDBRANCH   5   6
BRANCH  14  15
ATOM     15  C   UNL     1      13.413   8.676  18.874  0.00  0.00    +0.148 C 
BRANCH  15  16
ATOM     16  N   UNL     1      13.951   8.130  19.176  0.00  0.00    -0.199 NA
ATOM     17  C   UNL     1      14.761   8.243  19.062  0.00  0.00    +0.265 C 
ATOM     18  O   UNL     1      15.030   8.902  18.645  0.00  0.00    -0.268 OA
BRANCH  17  19
ATOM     19  C   UNL     1      15.301   7.697  19.363  0.00  0.00    +0.057 A 
ATOM     20  C   UNL     1      15.636   7.816  20.107  0.00  0.00    +0.005 A 
ATOM     21  C   UNL     1      16.176   7.270  20.409  0.00  0.00    +0.002 A 
ATOM     22  C   UNL     1      16.380   6.604  19.967  0.00  0.00    +0.030 A 
ATOM     23  C   UNL     1      16.044   6.485  19.222  0.00  0.00    +0.140 A 
ATOM     24  F   UNL     1      16.249   5.819  18.780  0.00  0.00    -0.204 F 
ATOM     25  C   UNL     1      15.505   7.031  18.920  0.00  0.00    +0.034 A 
ENDBRANCH  17  19
ENDBRANCH  15  16
ENDBRANCH  14  15
TORSDOF 7
ENDMDL
MODEL 8
REMARK VINA RESULT:      -7.5     16.078     18.487
REMARK  Name = 
REMARK  7 active torsions:
REMARK  status: ('A' for Active; 'I' for Inactive)
REMARK    1  A    between atoms: C_5  and  C_6
REMARK    2  A    between atoms: C_6  and  C_7
REMARK    3  A    between atoms: N_9  and  C_10
REMARK    4  A    between atoms: C_10  and  C_11
REMARK    5  A    between atoms: C_14  and  C_15
REMARK    6  A    between atoms: C_15  and  N_16
REMARK    7  A    between atoms: C_17  and  C_19
REMARK                            x       y       z     vdW  Elec       q    Type
REMARK                         _______ _______ _______ _____ _____    ______ ____
ROOT
ATOM      1  O   UNL     1      15.273   6.496  19.859  0.00  0.00    -0.218 OA
ATOM      2  C   UNL     1      14.708   6.891  19.405  0.00  0.00    +0.213 C 
ATOM      3  C   UNL     1      14.734   7.000  18.588  0.00  0.00    +0.212 C 
ATOM      4  O   UNL     1      15.330   6.735  18.081  0.00  0.00    -0.218 OA
ATOM      5  C   UNL     1      14.060   7.422  18.365  0.00  0.00    +0.157 C 
ATOM     13  O   UNL     1      13.618   7.572  19.045  0.00  0.00    -0.351 OA
ATOM     14  C   UNL     1      14.019   7.244  19.688  0.00  0.00    +0.170 C 
ENDROOT
BRANCH   5   6
ATOM      6  C   UNL     1      13.864   7.652  17.598  0.00  0.00    +0.119 C 
BRANCH   6   7
ATOM      7  C   UNL     1      13.388   8.315  17.475  0.00  0.00    +0.245 C 
ATOM      8  O   UNL     1      13.666   9.064  17.678  0.00  0.00    -0.273 OA
ATOM      9  N   UNL     1      12.637   8.228  17.148  0.00  0.00    -0.191 NA
BRANCH   9  10
ATOM     10  C   UNL     1      12.161   8.891  17.024  0.00  0.00    +0.191 C 
BRANCH  10  11
ATOM     11  C   UNL     1      11.409   8.805  16.698  0.00  0.00    -0.054 C 
ATOM     12  C   UNL     1      10.655   8.719  16.373  0.00  0.00    -0.012 C 
ENDBRANCH  10  11
ENDBRANCH   9  10
ENDBRANCH   6   7
ENDBRANCH   5   6
BRANCH  14  15
ATOM     15  C   UNL     1      13.772   7.265  20.475  0.00  0.00    +0.148 C 
BRANCH  15  16
ATOM     16  N   UNL     1      12.970   7.222  20.657  0.00  0.00    -0.199 NA
ATOM     17  C   UNL     1      12.713   7.366  21.429  0.00  0.00    +0.265 C 
ATOM     18  O   UNL     1      13.261   7.553  22.016  0.00  0.00    -0.268 OA
BRANCH  17  19
ATOM     19  C   UNL     1      11.910   7.324  21.611  0.00  0.00    +0.057 A 
ATOM     20  C   UNL     1      11.520   6.598  21.590  0.00  0.00    +0.005 A 
ATOM     21  C   UNL     1      10.717   6.555  21.773  0.00  0.00    +0.002 A 
ATOM     22  C   UNL     1      10.303   7.239  21.977  0.00  0.00    +0.030 A 
ATOM     23  C   UNL     1      10.694   7.966  21.998  0.00  0.00    +0.140 A 
ATOM     24  F   UNL     1      10.280   8.650  22.203  0.00  0.00    -0.204 F 
ATOM     25  C   UNL     1      11.497   8.009  21.816  0.00  0.00    +0.034 A 
ENDBRANCH  17  19
ENDBRANCH  15  16
ENDBRANCH  14  15
TORSDOF 7
ENDMDL
MODEL 9
REMARK VINA RESULT:      -7.3     16.401     18.428
REMARK  Name = 
REMARK  7 active torsions:
REMARK  status: ('A' for Active; 'I' for Inactive)
REMARK    1  A    between atoms: C_5  and  C_6
REMARK    2  A    between atoms: C_6  and  C_7
REMARK    3  A    between atoms: N_9  and  C_10
REMARK    4  A    between atoms: C_10  and  C_11
REMARK    5  A    between atoms: C_14  and  C_15
REMARK    6  A    between atoms: C_15  and  N_16
REMARK    7  A    between atoms: C_17  and  C_19
REMARK                            x       y       z     vdW  Elec       q    Type
REMARK                         _______ _______ _______ _____ _____    ______ ____
ROOT
ATOM      1  O   UNL     1      11.697   6.599  22.045  0.00  0.00    -0.218 OA
ATOM      2  C   UNL     1      11.780   7.154  21.440  0.00  0.00    +0.213 C 
ATOM      3  C   UNL     1      11.167   7.480  20.995  0.00  0.00    +0.212 C 
ATOM      4  O   UNL     1      10.363   7.311  21.077  0.00  0.00    -0.218 OA
ATOM      5  C   UNL     1      11.497   8.007  20.452  0.00  0.00    +0.157 C 
ATOM     13  O   UNL     1      12.315   8.005  20.563  0.00  0.00    -0.351 OA
ATOM     14  C   UNL     1      12.489   7.478  21.173  0.00  0.00    +0.170 C 
ENDROOT
BRANCH   5   6
ATOM      6  C   UNL     1      11.084   8.456  19.898  0.00  0.00    +0.119 C 
BRANCH   6   7
ATOM      7  C   UNL     1      11.442   8.664  19.184  0.00  0.00    +0.245 C 
ATOM      8  O   UNL     1      12.146   9.093  19.187  0.00  0.00    -0.273 OA
ATOM      9  N   UNL     1      11.096   8.443  18.469  0.00  0.00    -0.191 NA
BRANCH   9  10
ATOM     10  C   UNL     1      11.454   8.651  17.756  0.00  0.00    +0.191 C 
BRANCH  10  11
ATOM     11  C   UNL     1      11.033   8.592  17.050  0.00  0.00    -0.054 C 
ATOM     12  C   UNL     1      10.610   8.535  16.344  0.00  0.00    -0.012 C 
ENDBRANCH  10  11
ENDBRANCH   9  10
ENDBRANCH   6   7
ENDBRANCH   5   6
BRANCH  14  15
ATOM     15  C   UNL     1      13.242   7.305  21.465  0.00  0.00    +0.148 C 
BRANCH  15  16
ATOM     16  N   UNL     1      13.884   7.261  20.950  0.00  0.00    -0.199 NA
ATOM     17  C   UNL     1      14.650   7.207  21.250  0.00  0.00    +0.265 C 
ATOM     18  O   UNL     1      14.773   7.196  22.066  0.00  0.00    -0.268 OA
BRANCH  17  19
ATOM     19  C   UNL     1      15.293   7.163  20.736  0.00  0.00    +0.057 A 
ATOM     20  C   UNL     1      15.776   7.821  20.621  0.00  0.00    +0.005 A 
ATOM     21  C   UNL     1      16.419   7.778  20.107  0.00  0.00    +0.002 A 
ATOM     22  C   UNL     1      16.579   7.075  19.705  0.00  0.00    +0.030 A 
ATOM     23  C   UNL     1      16.096   6.416  19.820  0.00  0.00    +0.140 A 
ATOM     24  F   UNL     1      16.257   5.713  19.419  0.00  0.00    -0.204 F 
ATOM     25  C   UNL     1      15.453   6.459  20.335  0.00  0.00    +0.034 A 
ENDBRANCH  17  19
ENDBRANCH  15  16
ENDBRANCH  14  15
TORSDOF 7
ENDMDL
