MODEL 1
REMARK VINA RESULT:     -11.3      0.000      0.000
REMARK  Name = 
REMARK  6 active torsions:
REMARK  status: ('A' for Active; 'I' for Inactive)
REMARK    1  A    between atoms: C_2  and  C_3
REMARK    2  A    between atoms: C_2  and  C_25
REMARK    3  A    between atoms: C_10  and  N_11
REMARK    4  A    between atoms: C_12  and  C_14
REMARK    5  A    between atoms: N_27  and  C_28
REMARK    6  A    between atoms: C_28  and  C_29
REMARK                            x       y       z     vdW  Elec       q    Type
REMARK                         _______ _______ _______ _____ _____    ______ ____
ROOT
ATOM      3  C   UNL     1      -4.411   2.830  24.555  0.00  0.00    +0.039 C 
ATOM      4  C   UNL     1      -5.062   2.791  25.061  0.00  0.00    +0.003 C 
ATOM      5  C   UNL     1      -5.337   2.060  25.325  0.00  0.00    +0.000 C 
ATOM      6  C   UNL     1      -4.962   1.367  25.083  0.00  0.00    +0.002 C 
ATOM      7  C   UNL     1      -5.612   1.329  25.588  0.00  0.00    +0.000 C 
ATOM      8  C   UNL     1      -5.237   0.635  25.346  0.00  0.00    +0.002 C 
ATOM      9  C   UNL     1      -4.862  -0.058  25.105  0.00  0.00    +0.022 C 
ATOM     10  C   UNL     1      -4.210  -0.020  24.598  0.00  0.00    +0.096 C 
ATOM     20  C   UNL     1      -3.935   0.711  24.335  0.00  0.00    +0.022 C 
ATOM     21  C   UNL     1      -3.285   0.749  23.829  0.00  0.00    +0.002 C 
ATOM     22  C   UNL     1      -4.310   1.405  24.577  0.00  0.00    +0.032 C 
ATOM     23  C   UNL     1      -4.036   2.136  24.313  0.00  0.00    +0.152 C 
ATOM     24  O   UNL     1      -3.385   2.174  23.808  0.00  0.00    -0.223 OA
ENDROOT
BRANCH  10  11
ATOM     11  N   UNL     1      -3.835  -0.714  24.357  0.00  0.00    -0.202 NA
ATOM     12  C   UNL     1      -3.597  -1.271  24.916  0.00  0.00    +0.284 C 
ATOM     13  O   UNL     1      -3.733  -1.134  25.719  0.00  0.00    -0.267 OA
BRANCH  12  14
ATOM     14  C   UNL     1      -3.221  -1.965  24.674  0.00  0.00    +0.155 A 
ATOM     15  C   UNL     1      -3.669  -2.614  24.434  0.00  0.00    +0.123 A 
ATOM     16  N   UNL     1      -3.294  -3.308  24.192  0.00  0.00    -0.239 NA
ATOM     17  C   UNL     1      -2.470  -3.352  24.191  0.00  0.00    +0.120 A 
ATOM     18  C   UNL     1      -2.021  -2.702  24.432  0.00  0.00    +0.120 A 
ATOM     19  N   UNL     1      -2.398  -2.009  24.673  0.00  0.00    -0.236 NA
ENDBRANCH  12  14
ENDBRANCH  10  11
BRANCH   3   2
ATOM      1  C   UNL     1      -4.292   3.810  23.520  0.00  0.00    +0.010 C 
ATOM      2  C   UNL     1      -4.136   3.562  24.292  0.00  0.00    +0.081 C 
BRANCH   2  25
ATOM     25  C   UNL     1      -3.704   4.047  24.801  0.00  0.00    +0.241 C 
ATOM     26  O   UNL     1      -4.088   4.457  25.405  0.00  0.00    -0.273 OA
ATOM     27  N   UNL     1      -2.887   4.122  24.705  0.00  0.00    -0.197 NA
BRANCH  27  28
ATOM     28  C   UNL     1      -2.455   4.606  25.213  0.00  0.00    +0.179 C 
BRANCH  28  29
ATOM     29  C   UNL     1      -1.637   4.667  25.130  0.00  0.00    +0.145 A 
ATOM     30  C   UNL     1      -1.220   5.347  24.919  0.00  0.00    +0.038 A 
ATOM     31  C   UNL     1      -0.417   5.158  24.902  0.00  0.00    +0.043 A 
ATOM     32  C   UNL     1      -0.338   4.361  25.103  0.00  0.00    +0.179 A 
ATOM     33  O   UNL     1      -1.092   4.057  25.244  0.00  0.00    -0.453 OA
ENDBRANCH  28  29
ENDBRANCH  27  28
ENDBRANCH   2  25
ENDBRANCH   3   2
TORSDOF 6
ENDMDL
MODEL 2
REMARK VINA RESULT:     -10.0      1.126      5.227
REMARK  Name = 
REMARK  6 active torsions:
REMARK  status: ('A' for Active; 'I' for Inactive)
REMARK    1  A    between atoms: C_2  and  C_3
REMARK    2  A    between atoms: C_2  and  C_25
REMARK    3  A    between atoms: C_10  and  N_11
REMARK    4  A    between atoms: C_12  and  C_14
REMARK    5  A    between atoms: N_27  and  C_28
REMARK    6  A    between atoms: C_28  and  C_29
REMARK                            x       y       z     vdW  Elec       q    Type
REMARK                         _______ _______ _______ _____ _____    ______ ____
ROOT
ATOM      3  C   UNL     1      -4.179   0.104  24.439  0.00  0.00    +0.039 C 
ATOM      4  C   UNL     1      -4.875   0.262  24.854  0.00  0.00    +0.003 C 
ATOM      5  C   UNL     1      -5.021   1.022  25.139  0.00  0.00    +0.000 C 
ATOM      6  C   UNL     1      -4.473   1.624  25.010  0.00  0.00    +0.002 C 
ATOM      7  C   UNL     1      -5.168   1.782  25.424  0.00  0.00    +0.000 C 
ATOM      8  C   UNL     1      -4.619   2.384  25.295  0.00  0.00    +0.002 C 
ATOM      9  C   UNL     1      -4.071   2.986  25.166  0.00  0.00    +0.022 C 
ATOM     10  C   UNL     1      -3.374   2.828  24.751  0.00  0.00    +0.096 C 
ATOM     20  C   UNL     1      -3.228   2.068  24.466  0.00  0.00    +0.022 C 
ATOM     21  C   UNL     1      -2.532   1.910  24.052  0.00  0.00    +0.002 C 
ATOM     22  C   UNL     1      -3.776   1.466  24.595  0.00  0.00    +0.032 C 
ATOM     23  C   UNL     1      -3.630   0.706  24.310  0.00  0.00    +0.152 C 
ATOM     24  O   UNL     1      -2.935   0.548  23.896  0.00  0.00    -0.223 OA
ENDROOT
BRANCH  10  11
ATOM     11  N   UNL     1      -2.825   3.431  24.622  0.00  0.00    -0.202 NA
ATOM     12  C   UNL     1      -2.468   3.808  25.262  0.00  0.00    +0.284 C 
ATOM     13  O   UNL     1      -2.660   3.582  26.034  0.00  0.00    -0.267 OA
BRANCH  12  14
ATOM     14  C   UNL     1      -1.920   4.411  25.133  0.00  0.00    +0.155 A 
ATOM     15  C   UNL     1      -2.148   5.199  25.205  0.00  0.00    +0.123 A 
ATOM     16  N   UNL     1      -1.599   5.802  25.076  0.00  0.00    -0.239 NA
ATOM     17  C   UNL     1      -0.822   5.615  24.875  0.00  0.00    +0.120 A 
ATOM     18  C   UNL     1      -0.592   4.825  24.803  0.00  0.00    +0.120 A 
ATOM     19  N   UNL     1      -1.142   4.223  24.933  0.00  0.00    -0.236 NA
ENDBRANCH  12  14
ENDBRANCH  10  11
BRANCH   3   2
ATOM      1  C   UNL     1      -4.254  -0.860  23.386  0.00  0.00    +0.010 C 
ATOM      2  C   UNL     1      -4.032  -0.656  24.154  0.00  0.00    +0.081 C 
BRANCH   2  25
ATOM     25  C   UNL     1      -3.664  -1.214  24.638  0.00  0.00    +0.241 C 
ATOM     26  O   UNL     1      -4.084  -1.565  25.256  0.00  0.00    -0.273 OA
ATOM     27  N   UNL     1      -2.876  -1.421  24.504  0.00  0.00    -0.197 NA
BRANCH  27  28
ATOM     28  C   UNL     1      -2.508  -1.978  24.988  0.00  0.00    +0.179 C 
BRANCH  28  29
ATOM     29  C   UNL     1      -1.685  -2.004  25.035  0.00  0.00    +0.145 A 
ATOM     30  C   UNL     1      -1.188  -2.487  24.588  0.00  0.00    +0.038 A 
ATOM     31  C   UNL     1      -0.411  -2.333  24.816  0.00  0.00    +0.043 A 
ATOM     32  C   UNL     1      -0.427  -1.753  25.404  0.00  0.00    +0.179 A 
ATOM     33  O   UNL     1      -1.215  -1.550  25.540  0.00  0.00    -0.453 OA
ENDBRANCH  28  29
ENDBRANCH  27  28
ENDBRANCH   2  25
ENDBRANCH   3   2
TORSDOF 6
ENDMDL
MODEL 3
REMARK VINA RESULT:     -10.0      3.521      5.378
REMARK  Name = 
REMARK  6 active torsions:
REMARK  status: ('A' for Active; 'I' for Inactive)
REMARK    1  A    between atoms: C_2  and  C_3
REMARK    2  A    between atoms: C_2  and  C_25
REMARK    3  A    between atoms: C_10  and  N_11
REMARK    4  A    between atoms: C_12  and  C_14
REMARK    5  A    between atoms: N_27  and  C_28
REMARK    6  A    between atoms: C_28  and  C_29
REMARK                            x       y       z     vdW  Elec       q    Type
REMARK                         _______ _______ _______ _____ _____    ______ ____
ROOT
ATOM      3  C   UNL     1      -0.055   0.696  24.017  0.00  0.00    +0.039 C 
ATOM      4  C   UNL     1       0.360   1.407  24.091  0.00  0.00    +0.003 C 
ATOM      5  C   UNL     1      -0.028   2.084  24.356  0.00  0.00    +0.000 C 
ATOM      6  C   UNL     1      -0.830   2.053  24.546  0.00  0.00    +0.002 C 
ATOM      7  C   UNL     1      -0.416   2.762  24.620  0.00  0.00    +0.000 C 
ATOM      8  C   UNL     1      -1.218   2.731  24.811  0.00  0.00    +0.002 C 
ATOM      9  C   UNL     1      -2.020   2.700  25.002  0.00  0.00    +0.022 C 
ATOM     10  C   UNL     1      -2.434   1.989  24.927  0.00  0.00    +0.096 C 
ATOM     20  C   UNL     1      -2.046   1.312  24.663  0.00  0.00    +0.022 C 
ATOM     21  C   UNL     1      -2.460   0.602  24.589  0.00  0.00    +0.002 C 
ATOM     22  C   UNL     1      -1.244   1.342  24.472  0.00  0.00    +0.032 C 
ATOM     23  C   UNL     1      -0.856   0.665  24.208  0.00  0.00    +0.152 C 
ATOM     24  O   UNL     1      -1.270  -0.045  24.133  0.00  0.00    -0.223 OA
ENDROOT
BRANCH  10  11
ATOM     11  N   UNL     1      -3.236   1.958  25.118  0.00  0.00    -0.202 NA
ATOM     12  C   UNL     1      -3.726   2.600  24.951  0.00  0.00    +0.284 C 
ATOM     13  O   UNL     1      -3.413   3.275  24.591  0.00  0.00    -0.267 OA
BRANCH  12  14
ATOM     14  C   UNL     1      -4.528   2.570  25.141  0.00  0.00    +0.155 A 
ATOM     15  C   UNL     1      -4.819   3.009  25.775  0.00  0.00    +0.123 A 
ATOM     16  N   UNL     1      -5.621   2.979  25.966  0.00  0.00    -0.239 NA
ATOM     17  C   UNL     1      -6.132   2.507  25.522  0.00  0.00    +0.120 A 
ATOM     18  C   UNL     1      -5.841   2.066  24.887  0.00  0.00    +0.120 A 
ATOM     19  N   UNL     1      -5.039   2.098  24.698  0.00  0.00    -0.236 NA
ENDBRANCH  12  14
ENDBRANCH  10  11
BRANCH   3   2
ATOM      1  C   UNL     1       0.210  -0.705  24.131  0.00  0.00    +0.010 C 
ATOM      2  C   UNL     1       0.334   0.018  23.752  0.00  0.00    +0.081 C 
BRANCH   2  25
ATOM     25  C   UNL     1       0.847   0.063  23.108  0.00  0.00    +0.241 C 
ATOM     26  O   UNL     1       0.545   0.095  22.340  0.00  0.00    -0.273 OA
ATOM     27  N   UNL     1       1.664   0.075  23.231  0.00  0.00    -0.197 NA
BRANCH  27  28
ATOM     28  C   UNL     1       2.177   0.120  22.587  0.00  0.00    +0.179 C 
BRANCH  28  29
ATOM     29  C   UNL     1       2.987   0.210  22.711  0.00  0.00    +0.145 A 
ATOM     30  C   UNL     1       3.430   0.888  22.551  0.00  0.00    +0.038 A 
ATOM     31  C   UNL     1       4.214   0.734  22.758  0.00  0.00    +0.043 A 
ATOM     32  C   UNL     1       4.256  -0.039  23.045  0.00  0.00    +0.179 A 
ATOM     33  O   UNL     1       3.497  -0.363  23.016  0.00  0.00    -0.453 OA
ENDBRANCH  28  29
ENDBRANCH  27  28
ENDBRANCH   2  25
ENDBRANCH   3   2
TORSDOF 6
ENDMDL
MODEL 4
REMARK VINA RESULT:      -9.8      2.747      4.392
REMARK  Name = 
REMARK  6 active torsions:
REMARK  status: ('A' for Active; 'I' for Inactive)
REMARK    1  A    between atoms: C_2  and  C_3
REMARK    2  A    between atoms: C_2  and  C_25
REMARK    3  A    between atoms: C_10  and  N_11
REMARK    4  A    between atoms: C_12  and  C_14
REMARK    5  A    between atoms: N_27  and  C_28
REMARK    6  A    between atoms: C_28  and  C_29
REMARK                            x       y       z     vdW  Elec       q    Type
REMARK                         _______ _______ _______ _____ _____    ______ ____
ROOT
ATOM      3  C   UNL     1      -2.426   3.500  25.148  0.00  0.00    +0.039 C 
ATOM      4  C   UNL     1      -2.051   3.670  25.864  0.00  0.00    +0.003 C 
ATOM      5  C   UNL     1      -1.335   3.306  26.051  0.00  0.00    +0.000 C 
ATOM      6  C   UNL     1      -0.993   2.773  25.524  0.00  0.00    +0.002 C 
ATOM      7  C   UNL     1      -0.619   2.943  26.238  0.00  0.00    +0.000 C 
ATOM      8  C   UNL     1      -0.277   2.408  25.711  0.00  0.00    +0.002 C 
ATOM      9  C   UNL     1       0.065   1.874  25.184  0.00  0.00    +0.022 C 
ATOM     10  C   UNL     1      -0.310   1.704  24.468  0.00  0.00    +0.096 C 
ATOM     20  C   UNL     1      -1.026   2.068  24.281  0.00  0.00    +0.022 C 
ATOM     21  C   UNL     1      -1.401   1.897  23.566  0.00  0.00    +0.002 C 
ATOM     22  C   UNL     1      -1.368   2.602  24.808  0.00  0.00    +0.032 C 
ATOM     23  C   UNL     1      -2.084   2.966  24.621  0.00  0.00    +0.152 C 
ATOM     24  O   UNL     1      -2.459   2.796  23.906  0.00  0.00    -0.223 OA
ENDROOT
BRANCH  10  11
ATOM     11  N   UNL     1       0.032   1.169  23.940  0.00  0.00    -0.202 NA
ATOM     12  C   UNL     1       0.848   1.170  23.823  0.00  0.00    +0.284 C 
ATOM     13  O   UNL     1       1.323   1.707  24.233  0.00  0.00    -0.267 OA
BRANCH  12  14
ATOM     14  C   UNL     1       1.190   0.636  23.295  0.00  0.00    +0.155 A 
ATOM     15  C   UNL     1       0.759  -0.014  23.028  0.00  0.00    +0.123 A 
ATOM     16  N   UNL     1       1.101  -0.548  22.501  0.00  0.00    -0.239 NA
ATOM     17  C   UNL     1       1.876  -0.432  22.241  0.00  0.00    +0.120 A 
ATOM     18  C   UNL     1       2.308   0.218  22.509  0.00  0.00    +0.120 A 
ATOM     19  N   UNL     1       1.965   0.752  23.036  0.00  0.00    -0.236 NA
ENDBRANCH  12  14
ENDBRANCH  10  11
BRANCH   3   2
ATOM      1  C   UNL     1      -3.198   4.349  24.296  0.00  0.00    +0.010 C 
ATOM      2  C   UNL     1      -3.142   3.864  24.961  0.00  0.00    +0.081 C 
BRANCH   2  25
ATOM     25  C   UNL     1      -3.803   3.744  25.440  0.00  0.00    +0.241 C 
ATOM     26  O   UNL     1      -3.866   4.138  26.163  0.00  0.00    -0.273 OA
ATOM     27  N   UNL     1      -4.401   3.229  25.197  0.00  0.00    -0.197 NA
BRANCH  27  28
ATOM     28  C   UNL     1      -5.061   3.108  25.675  0.00  0.00    +0.179 C 
BRANCH  28  29
ATOM     29  C   UNL     1      -5.577   2.484  25.518  0.00  0.00    +0.145 A 
ATOM     30  C   UNL     1      -5.849   1.929  26.065  0.00  0.00    +0.038 A 
ATOM     31  C   UNL     1      -6.352   1.408  25.669  0.00  0.00    +0.043 A 
ATOM     32  C   UNL     1      -6.390   1.641  24.878  0.00  0.00    +0.179 A 
ATOM     33  O   UNL     1      -5.911   2.306  24.784  0.00  0.00    -0.453 OA
ENDBRANCH  28  29
ENDBRANCH  27  28
ENDBRANCH   2  25
ENDBRANCH   3   2
TORSDOF 6
ENDMDL
MODEL 5
REMARK VINA RESULT:      -9.7      2.538      4.975
REMARK  Name = 
REMARK  6 active torsions:
REMARK  status: ('A' for Active; 'I' for Inactive)
REMARK    1  A    between atoms: C_2  and  C_3
REMARK    2  A    between atoms: C_2  and  C_25
REMARK    3  A    between atoms: C_10  and  N_11
REMARK    4  A    between atoms: C_12  and  C_14
REMARK    5  A    between atoms: N_27  and  C_28
REMARK    6  A    between atoms: C_28  and  C_29
REMARK                            x       y       z     vdW  Elec       q    Type
REMARK                         _______ _______ _______ _____ _____    ______ ____
ROOT
ATOM      3  C   UNL     1      -1.750  -1.093  24.714  0.00  0.00    +0.039 C 
ATOM      4  C   UNL     1      -2.278  -1.678  24.467  0.00  0.00    +0.003 C 
ATOM      5  C   UNL     1      -3.088  -1.522  24.454  0.00  0.00    +0.000 C 
ATOM      6  C   UNL     1      -3.370  -0.783  24.686  0.00  0.00    +0.002 C 
ATOM      7  C   UNL     1      -3.897  -1.367  24.440  0.00  0.00    +0.000 C 
ATOM      8  C   UNL     1      -4.180  -0.627  24.672  0.00  0.00    +0.002 C 
ATOM      9  C   UNL     1      -4.462   0.112  24.904  0.00  0.00    +0.022 C 
ATOM     10  C   UNL     1      -3.934   0.697  25.151  0.00  0.00    +0.096 C 
ATOM     20  C   UNL     1      -3.124   0.541  25.165  0.00  0.00    +0.022 C 
ATOM     21  C   UNL     1      -2.596   1.125  25.411  0.00  0.00    +0.002 C 
ATOM     22  C   UNL     1      -2.841  -0.199  24.932  0.00  0.00    +0.032 C 
ATOM     23  C   UNL     1      -2.032  -0.354  24.946  0.00  0.00    +0.152 C 
ATOM     24  O   UNL     1      -1.504   0.230  25.193  0.00  0.00    -0.223 OA
ENDROOT
BRANCH  10  11
ATOM     11  N   UNL     1      -4.217   1.436  25.383  0.00  0.00    -0.202 NA
ATOM     12  C   UNL     1      -4.813   1.805  24.950  0.00  0.00    +0.284 C 
ATOM     13  O   UNL     1      -5.128   1.434  24.282  0.00  0.00    -0.267 OA
BRANCH  12  14
ATOM     14  C   UNL     1      -5.096   2.544  25.182  0.00  0.00    +0.155 A 
ATOM     15  C   UNL     1      -5.735   2.598  25.700  0.00  0.00    +0.123 A 
ATOM     16  N   UNL     1      -6.018   3.338  25.932  0.00  0.00    -0.239 NA
ATOM     17  C   UNL     1      -5.661   4.024  25.646  0.00  0.00    +0.120 A 
ATOM     18  C   UNL     1      -5.021   3.970  25.127  0.00  0.00    +0.120 A 
ATOM     19  N   UNL     1      -4.739   3.231  24.895  0.00  0.00    -0.236 NA
ENDBRANCH  12  14
ENDBRANCH  10  11
BRANCH   3   2
ATOM      1  C   UNL     1      -0.561  -1.407  25.444  0.00  0.00    +0.010 C 
ATOM      2  C   UNL     1      -0.940  -1.249  24.728  0.00  0.00    +0.081 C 
BRANCH   2  25
ATOM     25  C   UNL     1      -0.508  -1.247  24.025  0.00  0.00    +0.241 C 
ATOM     26  O   UNL     1      -0.653  -1.821  23.450  0.00  0.00    -0.273 OA
ATOM     27  N   UNL     1       0.070  -0.671  23.897  0.00  0.00    -0.197 NA
BRANCH  27  28
ATOM     28  C   UNL     1       0.501  -0.669  23.195  0.00  0.00    +0.179 C 
BRANCH  28  29
ATOM     29  C   UNL     1       1.135  -0.150  23.101  0.00  0.00    +0.145 A 
ATOM     30  C   UNL     1       1.837  -0.308  22.697  0.00  0.00    +0.038 A 
ATOM     31  C   UNL     1       2.313   0.364  22.741  0.00  0.00    +0.043 A 
ATOM     32  C   UNL     1       1.905   0.938  23.172  0.00  0.00    +0.179 A 
ATOM     33  O   UNL     1       1.177   0.621  23.394  0.00  0.00    -0.453 OA
ENDBRANCH  28  29
ENDBRANCH  27  28
ENDBRANCH   2  25
ENDBRANCH   3   2
TORSDOF 6
ENDMDL
MODEL 6
REMARK VINA RESULT:      -9.5      2.789      4.190
REMARK  Name = 
REMARK  6 active torsions:
REMARK  status: ('A' for Active; 'I' for Inactive)
REMARK    1  A    between atoms: C_2  and  C_3
REMARK    2  A    between atoms: C_2  and  C_25
REMARK    3  A    between atoms: C_10  and  N_11
REMARK    4  A    between atoms: C_12  and  C_14
REMARK    5  A    between atoms: N_27  and  C_28
REMARK    6  A    between atoms: C_28  and  C_29
REMARK                            x       y       z     vdW  Elec       q    Type
REMARK                         _______ _______ _______ _____ _____    ______ ____
ROOT
ATOM      3  C   UNL     1      -3.509   0.028  24.827  0.00  0.00    +0.039 C 
ATOM      4  C   UNL     1      -3.404  -0.493  25.460  0.00  0.00    +0.003 C 
ATOM      5  C   UNL     1      -2.648  -0.761  25.652  0.00  0.00    +0.000 C 
ATOM      6  C   UNL     1      -1.997  -0.510  25.212  0.00  0.00    +0.002 C 
ATOM      7  C   UNL     1      -1.893  -1.029  25.844  0.00  0.00    +0.000 C 
ATOM      8  C   UNL     1      -1.241  -0.778  25.404  0.00  0.00    +0.002 C 
ATOM      9  C   UNL     1      -0.590  -0.527  24.965  0.00  0.00    +0.022 C 
ATOM     10  C   UNL     1      -0.695  -0.006  24.332  0.00  0.00    +0.096 C 
ATOM     20  C   UNL     1      -1.451   0.262  24.140  0.00  0.00    +0.022 C 
ATOM     21  C   UNL     1      -1.556   0.782  23.508  0.00  0.00    +0.002 C 
ATOM     22  C   UNL     1      -2.103   0.011  24.580  0.00  0.00    +0.032 C 
ATOM     23  C   UNL     1      -2.858   0.279  24.388  0.00  0.00    +0.152 C 
ATOM     24  O   UNL     1      -2.963   0.799  23.756  0.00  0.00    -0.223 OA
ENDROOT
BRANCH  10  11
ATOM     11  N   UNL     1      -0.044   0.245  23.893  0.00  0.00    -0.202 NA
ATOM     12  C   UNL     1       0.532  -0.297  23.661  0.00  0.00    +0.284 C 
ATOM     13  O   UNL     1       0.457  -1.093  23.869  0.00  0.00    -0.267 OA
BRANCH  12  14
ATOM     14  C   UNL     1       1.184  -0.046  23.222  0.00  0.00    +0.155 A 
ATOM     15  C   UNL     1       1.326  -0.365  22.475  0.00  0.00    +0.123 A 
ATOM     16  N   UNL     1       1.978  -0.114  22.035  0.00  0.00    -0.239 NA
ATOM     17  C   UNL     1       2.487   0.457  22.344  0.00  0.00    +0.120 A 
ATOM     18  C   UNL     1       2.345   0.776  23.092  0.00  0.00    +0.120 A 
ATOM     19  N   UNL     1       1.694   0.524  23.530  0.00  0.00    -0.236 NA
ENDBRANCH  12  14
ENDBRANCH  10  11
BRANCH   3   2
ATOM      1  C   UNL     1      -4.598   0.108  23.904  0.00  0.00    +0.010 C 
ATOM      2  C   UNL     1      -4.265   0.296  24.636  0.00  0.00    +0.081 C 
BRANCH   2  25
ATOM     25  C   UNL     1      -4.690   0.753  25.176  0.00  0.00    +0.241 C 
ATOM     26  O   UNL     1      -5.078   0.390  25.808  0.00  0.00    -0.273 OA
ATOM     27  N   UNL     1      -4.726   1.573  25.086  0.00  0.00    -0.197 NA
BRANCH  27  28
ATOM     28  C   UNL     1      -5.150   2.028  25.626  0.00  0.00    +0.179 C 
BRANCH  28  29
ATOM     29  C   UNL     1      -5.150   2.851  25.562  0.00  0.00    +0.145 A 
ATOM     30  C   UNL     1      -4.492   3.344  25.638  0.00  0.00    +0.038 A 
ATOM     31  C   UNL     1      -4.744   4.122  25.533  0.00  0.00    +0.043 A 
ATOM     32  C   UNL     1      -5.557   4.111  25.392  0.00  0.00    +0.179 A 
ATOM     33  O   UNL     1      -5.808   3.325  25.410  0.00  0.00    -0.453 OA
ENDBRANCH  28  29
ENDBRANCH  27  28
ENDBRANCH   2  25
ENDBRANCH   3   2
TORSDOF 6
ENDMDL
MODEL 7
REMARK VINA RESULT:      -9.3      2.253      6.367
REMARK  Name = 
REMARK  6 active torsions:
REMARK  status: ('A' for Active; 'I' for Inactive)
REMARK    1  A    between atoms: C_2  and  C_3
REMARK    2  A    between atoms: C_2  and  C_25
REMARK    3  A    between atoms: C_10  and  N_11
REMARK    4  A    between atoms: C_12  and  C_14
REMARK    5  A    between atoms: N_27  and  C_28
REMARK    6  A    between atoms: C_28  and  C_29
REMARK                            x       y       z     vdW  Elec       q    Type
REMARK                         _______ _______ _______ _____ _____    ______ ____
ROOT
ATOM      3  C   UNL     1      -0.541  -0.908  24.807  0.00  0.00    +0.039 C 
ATOM      4  C   UNL     1      -0.066  -0.959  24.132  0.00  0.00    +0.003 C 
ATOM      5  C   UNL     1       0.189  -0.271  23.756  0.00  0.00    +0.000 C 
ATOM      6  C   UNL     1      -0.029   0.466  24.051  0.00  0.00    +0.002 C 
ATOM      7  C   UNL     1       0.444   0.416  23.379  0.00  0.00    +0.000 C 
ATOM      8  C   UNL     1       0.226   1.155  23.675  0.00  0.00    +0.002 C 
ATOM      9  C   UNL     1       0.008   1.893  23.970  0.00  0.00    +0.022 C 
ATOM     10  C   UNL     1      -0.467   1.943  24.645  0.00  0.00    +0.096 C 
ATOM     20  C   UNL     1      -0.722   1.256  25.021  0.00  0.00    +0.022 C 
ATOM     21  C   UNL     1      -1.196   1.306  25.695  0.00  0.00    +0.002 C 
ATOM     22  C   UNL     1      -0.504   0.517  24.726  0.00  0.00    +0.032 C 
ATOM     23  C   UNL     1      -0.759  -0.170  25.102  0.00  0.00    +0.152 C 
ATOM     24  O   UNL     1      -1.233  -0.120  25.776  0.00  0.00    -0.223 OA
ENDROOT
BRANCH  10  11
ATOM     11  N   UNL     1      -0.685   2.682  24.940  0.00  0.00    -0.202 NA
ATOM     12  C   UNL     1      -1.020   3.245  24.440  0.00  0.00    +0.284 C 
ATOM     13  O   UNL     1      -1.138   3.069  23.641  0.00  0.00    -0.267 OA
BRANCH  12  14
ATOM     14  C   UNL     1      -1.239   3.983  24.735  0.00  0.00    +0.155 A 
ATOM     15  C   UNL     1      -0.708   4.614  24.705  0.00  0.00    +0.123 A 
ATOM     16  N   UNL     1      -0.926   5.352  25.001  0.00  0.00    -0.239 NA
ATOM     17  C   UNL     1      -1.676   5.460  25.327  0.00  0.00    +0.120 A 
ATOM     18  C   UNL     1      -2.208   4.829  25.358  0.00  0.00    +0.120 A 
ATOM     19  N   UNL     1      -1.989   4.091  25.062  0.00  0.00    -0.236 NA
ENDBRANCH  12  14
ENDBRANCH  10  11
BRANCH   3   2
ATOM      1  C   UNL     1      -0.561  -1.755  25.958  0.00  0.00    +0.010 C 
ATOM      2  C   UNL     1      -0.796  -1.597  25.183  0.00  0.00    +0.081 C 
BRANCH   2  25
ATOM     25  C   UNL     1      -1.287  -2.127  24.785  0.00  0.00    +0.241 C 
ATOM     26  O   UNL     1      -0.961  -2.775  24.392  0.00  0.00    -0.273 OA
ATOM     27  N   UNL     1      -2.104  -2.009  24.779  0.00  0.00    -0.197 NA
BRANCH  27  28
ATOM     28  C   UNL     1      -2.594  -2.538  24.381  0.00  0.00    +0.179 C 
BRANCH  28  29
ATOM     29  C   UNL     1      -3.363  -2.318  24.181  0.00  0.00    +0.145 A 
ATOM     30  C   UNL     1      -4.005  -2.829  24.084  0.00  0.00    +0.038 A 
ATOM     31  C   UNL     1      -4.664  -2.375  23.886  0.00  0.00    +0.043 A 
ATOM     32  C   UNL     1      -4.431  -1.583  23.861  0.00  0.00    +0.179 A 
ATOM     33  O   UNL     1      -3.627  -1.548  24.043  0.00  0.00    -0.453 OA
ENDBRANCH  28  29
ENDBRANCH  27  28
ENDBRANCH   2  25
ENDBRANCH   3   2
TORSDOF 6
ENDMDL
MODEL 8
REMARK VINA RESULT:      -9.0      2.051      5.669
REMARK  Name = 
REMARK  6 active torsions:
REMARK  status: ('A' for Active; 'I' for Inactive)
REMARK    1  A    between atoms: C_2  and  C_3
REMARK    2  A    between atoms: C_2  and  C_25
REMARK    3  A    between atoms: C_10  and  N_11
REMARK    4  A    between atoms: C_12  and  C_14
REMARK    5  A    between atoms: N_27  and  C_28
REMARK    6  A    between atoms: C_28  and  C_29
REMARK                            x       y       z     vdW  Elec       q    Type
REMARK                         _______ _______ _______ _____ _____    ______ ____
ROOT
ATOM      3  C   UNL     1      -0.717   0.746  24.482  0.00  0.00    +0.039 C 
ATOM      4  C   UNL     1      -0.159   1.099  24.979  0.00  0.00    +0.003 C 
ATOM      5  C   UNL     1      -0.349   1.791  25.385  0.00  0.00    +0.000 C 
ATOM      6  C   UNL     1      -1.094   2.130  25.295  0.00  0.00    +0.002 C 
ATOM      7  C   UNL     1      -0.538   2.483  25.791  0.00  0.00    +0.000 C 
ATOM      8  C   UNL     1      -1.285   2.823  25.701  0.00  0.00    +0.002 C 
ATOM      9  C   UNL     1      -2.030   3.163  25.611  0.00  0.00    +0.022 C 
ATOM     10  C   UNL     1      -2.588   2.810  25.114  0.00  0.00    +0.096 C 
ATOM     20  C   UNL     1      -2.398   2.118  24.708  0.00  0.00    +0.022 C 
ATOM     21  C   UNL     1      -2.955   1.766  24.212  0.00  0.00    +0.002 C 
ATOM     22  C   UNL     1      -1.652   1.778  24.798  0.00  0.00    +0.032 C 
ATOM     23  C   UNL     1      -1.462   1.086  24.392  0.00  0.00    +0.152 C 
ATOM     24  O   UNL     1      -2.019   0.733  23.895  0.00  0.00    -0.223 OA
ENDROOT
BRANCH  10  11
ATOM     11  N   UNL     1      -3.334   3.151  25.024  0.00  0.00    -0.202 NA
ATOM     12  C   UNL     1      -3.771   3.368  25.689  0.00  0.00    +0.284 C 
ATOM     13  O   UNL     1      -3.462   3.244  26.445  0.00  0.00    -0.267 OA
BRANCH  12  14
ATOM     14  C   UNL     1      -4.517   3.708  25.599  0.00  0.00    +0.155 A 
ATOM     15  C   UNL     1      -5.191   3.295  25.835  0.00  0.00    +0.123 A 
ATOM     16  N   UNL     1      -5.937   3.636  25.745  0.00  0.00    -0.239 NA
ATOM     17  C   UNL     1      -6.009   4.390  25.419  0.00  0.00    +0.120 A 
ATOM     18  C   UNL     1      -5.335   4.804  25.183  0.00  0.00    +0.120 A 
ATOM     19  N   UNL     1      -4.589   4.463  25.273  0.00  0.00    -0.236 NA
ENDBRANCH  12  14
ENDBRANCH  10  11
BRANCH   3   2
ATOM      1  C   UNL     1      -0.245   0.092  23.300  0.00  0.00    +0.010 C 
ATOM      2  C   UNL     1      -0.526   0.053  24.075  0.00  0.00    +0.081 C 
BRANCH   2  25
ATOM     25  C   UNL     1      -0.617  -0.679  24.445  0.00  0.00    +0.241 C 
ATOM     26  O   UNL     1      -0.012  -0.981  24.918  0.00  0.00    -0.273 OA
ATOM     27  N   UNL     1      -1.314  -1.110  24.341  0.00  0.00    -0.197 NA
BRANCH  27  28
ATOM     28  C   UNL     1      -1.404  -1.842  24.710  0.00  0.00    +0.179 C 
BRANCH  28  29
ATOM     29  C   UNL     1      -2.134  -2.226  24.690  0.00  0.00    +0.145 A 
ATOM     30  C   UNL     1      -2.724  -2.177  25.265  0.00  0.00    +0.038 A 
ATOM     31  C   UNL     1      -3.356  -2.648  25.022  0.00  0.00    +0.043 A 
ATOM     32  C   UNL     1      -3.156  -2.989  24.297  0.00  0.00    +0.179 A 
ATOM     33  O   UNL     1      -2.401  -2.728  24.092  0.00  0.00    -0.453 OA
ENDBRANCH  28  29
ENDBRANCH  27  28
ENDBRANCH   2  25
ENDBRANCH   3   2
TORSDOF 6
ENDMDL
MODEL 9
REMARK VINA RESULT:      -8.8      1.713      3.246
REMARK  Name = 
REMARK  6 active torsions:
REMARK  status: ('A' for Active; 'I' for Inactive)
REMARK    1  A    between atoms: C_2  and  C_3
REMARK    2  A    between atoms: C_2  and  C_25
REMARK    3  A    between atoms: C_10  and  N_11
REMARK    4  A    between atoms: C_12  and  C_14
REMARK    5  A    between atoms: N_27  and  C_28
REMARK    6  A    between atoms: C_28  and  C_29
REMARK                            x       y       z     vdW  Elec       q    Type
REMARK                         _______ _______ _______ _____ _____    ______ ____
ROOT
ATOM      3  C   UNL     1      -1.905   3.328  25.323  0.00  0.00    +0.039 C 
ATOM      4  C   UNL     1      -1.262   3.425  25.833  0.00  0.00    +0.003 C 
ATOM      5  C   UNL     1      -0.774   2.784  26.006  0.00  0.00    +0.000 C 
ATOM      6  C   UNL     1      -0.926   2.046  25.671  0.00  0.00    +0.002 C 
ATOM      7  C   UNL     1      -0.285   2.143  26.180  0.00  0.00    +0.000 C 
ATOM      8  C   UNL     1      -0.437   1.405  25.844  0.00  0.00    +0.002 C 
ATOM      9  C   UNL     1      -0.590   0.667  25.509  0.00  0.00    +0.022 C 
ATOM     10  C   UNL     1      -1.232   0.570  25.000  0.00  0.00    +0.096 C 
ATOM     20  C   UNL     1      -1.721   1.211  24.826  0.00  0.00    +0.022 C 
ATOM     21  C   UNL     1      -2.363   1.114  24.317  0.00  0.00    +0.002 C 
ATOM     22  C   UNL     1      -1.569   1.950  25.162  0.00  0.00    +0.032 C 
ATOM     23  C   UNL     1      -2.057   2.590  24.988  0.00  0.00    +0.152 C 
ATOM     24  O   UNL     1      -2.699   2.494  24.479  0.00  0.00    -0.223 OA
ENDROOT
BRANCH  10  11
ATOM     11  N   UNL     1      -1.385  -0.168  24.664  0.00  0.00    -0.202 NA
ATOM     12  C   UNL     1      -1.514  -0.823  25.148  0.00  0.00    +0.284 C 
ATOM     13  O   UNL     1      -1.492  -0.740  25.970  0.00  0.00    -0.267 OA
BRANCH  12  14
ATOM     14  C   UNL     1      -1.667  -1.561  24.813  0.00  0.00    +0.155 A 
ATOM     15  C   UNL     1      -1.057  -1.987  24.458  0.00  0.00    +0.123 A 
ATOM     16  N   UNL     1      -1.209  -2.726  24.123  0.00  0.00    -0.239 NA
ATOM     17  C   UNL     1      -1.972  -3.038  24.143  0.00  0.00    +0.120 A 
ATOM     18  C   UNL     1      -2.583  -2.611  24.499  0.00  0.00    +0.120 A 
ATOM     19  N   UNL     1      -2.430  -1.873  24.833  0.00  0.00    -0.236 NA
ENDBRANCH  12  14
ENDBRANCH  10  11
BRANCH   3   2
ATOM      1  C   UNL     1      -2.219   4.462  24.512  0.00  0.00    +0.010 C 
ATOM      2  C   UNL     1      -2.394   3.970  25.150  0.00  0.00    +0.081 C 
BRANCH   2  25
ATOM     25  C   UNL     1      -3.058   4.119  25.616  0.00  0.00    +0.241 C 
ATOM     26  O   UNL     1      -2.987   4.571  26.304  0.00  0.00    -0.273 OA
ATOM     27  N   UNL     1      -3.794   3.817  25.395  0.00  0.00    -0.197 NA
BRANCH  27  28
ATOM     28  C   UNL     1      -4.458   3.966  25.860  0.00  0.00    +0.179 C 
BRANCH  28  29
ATOM     29  C   UNL     1      -5.096   3.444  25.848  0.00  0.00    +0.145 A 
ATOM     30  C   UNL     1      -5.609   3.319  25.213  0.00  0.00    +0.038 A 
ATOM     31  C   UNL     1      -6.164   2.754  25.442  0.00  0.00    +0.043 A 
ATOM     32  C   UNL     1      -5.995   2.529  26.218  0.00  0.00    +0.179 A 
ATOM     33  O   UNL     1      -5.335   2.956  26.469  0.00  0.00    -0.453 OA
ENDBRANCH  28  29
ENDBRANCH  27  28
ENDBRANCH   2  25
ENDBRANCH   3   2
TORSDOF 6
ENDMDL
MODEL 10
REMARK VINA RESULT:      -8.5      2.032      3.468
REMARK  Name = 
REMARK  6 active torsions:
REMARK  status: ('A' for Active; 'I' for Inactive)
REMARK    1  A    between atoms: C_2  and  C_3
REMARK    2  A    between atoms: C_2  and  C_25
REMARK    3  A    between atoms: C_10  and  N_11
REMARK    4  A    between atoms: C_12  and  C_14
REMARK    5  A    between atoms: N_27  and  C_28
REMARK    6  A    between atoms: C_28  and  C_29
REMARK                            x       y       z     vdW  Elec       q    Type
REMARK                         _______ _______ _______ _____ _____    ______ ____
ROOT
ATOM      3  C   UNL     1      -0.192   2.108  25.269  0.00  0.00    +0.039 C 
ATOM      4  C   UNL     1       0.306   2.119  24.610  0.00  0.00    +0.003 C 
ATOM      5  C   UNL     1       0.333   1.469  24.104  0.00  0.00    +0.000 C 
ATOM      6  C   UNL     1      -0.135   0.808  24.255  0.00  0.00    +0.002 C 
ATOM      7  C   UNL     1       0.361   0.819  23.597  0.00  0.00    +0.000 C 
ATOM      8  C   UNL     1      -0.107   0.157  23.748  0.00  0.00    +0.002 C 
ATOM      9  C   UNL     1      -0.576  -0.504  23.900  0.00  0.00    +0.022 C 
ATOM     10  C   UNL     1      -1.074  -0.516  24.559  0.00  0.00    +0.096 C 
ATOM     20  C   UNL     1      -1.102   0.134  25.065  0.00  0.00    +0.022 C 
ATOM     21  C   UNL     1      -1.599   0.123  25.723  0.00  0.00    +0.002 C 
ATOM     22  C   UNL     1      -0.633   0.796  24.914  0.00  0.00    +0.032 C 
ATOM     23  C   UNL     1      -0.661   1.446  25.420  0.00  0.00    +0.152 C 
ATOM     24  O   UNL     1      -1.158   1.435  26.079  0.00  0.00    -0.223 OA
ENDROOT
BRANCH  10  11
ATOM     11  N   UNL     1      -1.543  -1.178  24.710  0.00  0.00    -0.202 NA
ATOM     12  C   UNL     1      -2.172  -1.361  24.210  0.00  0.00    +0.284 C 
ATOM     13  O   UNL     1      -2.334  -0.881  23.557  0.00  0.00    -0.267 OA
BRANCH  12  14
ATOM     14  C   UNL     1      -2.641  -2.023  24.361  0.00  0.00    +0.155 A 
ATOM     15  C   UNL     1      -3.460  -1.945  24.417  0.00  0.00    +0.123 A 
ATOM     16  N   UNL     1      -3.929  -2.607  24.568  0.00  0.00    -0.239 NA
ATOM     17  C   UNL     1      -3.577  -3.347  24.663  0.00  0.00    +0.120 A 
ATOM     18  C   UNL     1      -2.757  -3.426  24.607  0.00  0.00    +0.120 A 
ATOM     19  N   UNL     1      -2.290  -2.763  24.456  0.00  0.00    -0.236 NA
ENDBRANCH  12  14
ENDBRANCH  10  11
BRANCH   3   2
ATOM      1  C   UNL     1       0.179   2.738  26.498  0.00  0.00    +0.010 C 
ATOM      2  C   UNL     1      -0.220   2.758  25.776  0.00  0.00    +0.081 C 
BRANCH   2  25
ATOM     25  C   UNL     1      -0.646   3.431  25.560  0.00  0.00    +0.241 C 
ATOM     26  O   UNL     1      -0.268   4.053  25.171  0.00  0.00    -0.273 OA
ATOM     27  N   UNL     1      -1.452   3.481  25.732  0.00  0.00    -0.197 NA
BRANCH  27  28
ATOM     28  C   UNL     1      -1.879   4.153  25.516  0.00  0.00    +0.179 C 
BRANCH  28  29
ATOM     29  C   UNL     1      -2.700   4.116  25.446  0.00  0.00    +0.145 A 
ATOM     30  C   UNL     1      -3.242   4.162  26.066  0.00  0.00    +0.038 A 
ATOM     31  C   UNL     1      -4.000   4.101  25.746  0.00  0.00    +0.043 A 
ATOM     32  C   UNL     1      -3.926   4.018  24.928  0.00  0.00    +0.179 A 
ATOM     33  O   UNL     1      -3.122   4.027  24.743  0.00  0.00    -0.453 OA
ENDBRANCH  28  29
ENDBRANCH  27  28
ENDBRANCH   2  25
ENDBRANCH   3   2
TORSDOF 6
ENDMDL
