MODEL 1
REMARK VINA RESULT:      -9.2      0.000      0.000
REMARK  Name = 
REMARK  8 active torsions:
REMARK  status: ('A' for Active; 'I' for Inactive)
REMARK    1  A    between atoms: C_2  and  C_3
REMARK    2  A    between atoms: C_3  and  N_4
REMARK    3  A    between atoms: C_8  and  C_9
REMARK    4  A    between atoms: C_11  and  C_14
REMARK    5  A    between atoms: C_18  and  O_19
REMARK    6  A    between atoms: O_19  and  C_20
REMARK    7  A    between atoms: C_20  and  C_21
REMARK    8  A    between atoms: C_21  and  O_22
REMARK                            x       y       z     vdW  Elec       q    Type
REMARK                         _______ _______ _______ _____ _____    ______ ____
ROOT
ATOM      9  C   UNL     1      -3.692  -0.295  24.124  0.00  0.00    +0.251 A 
ATOM     10  N   UNL     1      -3.989   0.255  24.662  0.00  0.00    -0.190 NA
ATOM     11  C   UNL     1      -3.927   1.004  24.322  0.00  0.00    +0.204 A 
ATOM     12  N   UNL     1      -3.591   0.918  23.574  0.00  0.00    -0.056 NA
ATOM     13  O   UNL     1      -3.445   0.115  23.451  0.00  0.00    -0.336 OA
ENDROOT
BRANCH  11  14
ATOM     14  C   UNL     1      -4.160   1.716  24.670  0.00  0.00    +0.045 A 
ATOM     15  C   UNL     1      -4.959   1.923  24.688  0.00  0.00    +0.024 A 
ATOM     16  C   UNL     1      -5.192   2.634  25.035  0.00  0.00    +0.102 A 
ATOM     17  N   UNL     1      -4.628   3.137  25.364  0.00  0.00    -0.210 NA
ATOM     18  C   UNL     1      -3.829   2.929  25.345  0.00  0.00    +0.225 A 
ATOM     24  C   UNL     1      -3.596   2.219  24.999  0.00  0.00    +0.061 A 
BRANCH  18  19
ATOM     19  O   UNL     1      -3.264   3.433  25.675  0.00  0.00    -0.457 OA
BRANCH  19  20
ATOM     20  C   UNL     1      -2.809   3.917  25.186  0.00  0.00    +0.239 C 
BRANCH  20  21
ATOM     21  C   UNL     1      -2.130   4.281  25.481  0.00  0.00    +0.189 C 
BRANCH  21  22
ATOM     22  O   UNL     1      -1.793   4.917  25.076  0.00  0.00    -0.347 OA
ATOM     23  C   UNL     1      -0.974   4.968  24.997  0.00  0.00    +0.174 C 
ENDBRANCH  21  22
ENDBRANCH  20  21
ENDBRANCH  19  20
ENDBRANCH  18  19
ENDBRANCH  11  14
BRANCH   9   8
ATOM      4  N   UNL     1      -2.994  -1.526  24.520  0.00  0.00    -0.266 NA
ATOM      5  C   UNL     1      -3.192  -2.327  24.546  0.00  0.00    +0.073 C 
ATOM      6  C   UNL     1      -3.969  -2.406  24.278  0.00  0.00    +0.019 C 
ATOM      7  C   UNL     1      -4.250  -1.654  24.088  0.00  0.00    +0.027 C 
ATOM      8  C   UNL     1      -3.648  -1.110  24.237  0.00  0.00    +0.138 C 
BRANCH   4   3
ATOM      3  C   UNL     1      -2.269  -1.200  24.739  0.00  0.00    +0.072 C 
BRANCH   3   2
ATOM      1  C   UNL     1      -0.926  -1.364  25.199  0.00  0.00    +0.001 C 
ATOM      2  C   UNL     1      -1.642  -1.692  24.953  0.00  0.00    +0.017 C 
ENDBRANCH   3   2
ENDBRANCH   4   3
ENDBRANCH   9   8
TORSDOF 8
ENDMDL
MODEL 2
REMARK VINA RESULT:      -8.9      1.526      4.767
REMARK  Name = 
REMARK  8 active torsions:
REMARK  status: ('A' for Active; 'I' for Inactive)
REMARK    1  A    between atoms: C_2  and  C_3
REMARK    2  A    between atoms: C_3  and  N_4
REMARK    3  A    between atoms: C_8  and  C_9
REMARK    4  A    between atoms: C_11  and  C_14
REMARK    5  A    between atoms: C_18  and  O_19
REMARK    6  A    between atoms: O_19  and  C_20
REMARK    7  A    between atoms: C_20  and  C_21
REMARK    8  A    between atoms: C_21  and  O_22
REMARK                            x       y       z     vdW  Elec       q    Type
REMARK                         _______ _______ _______ _____ _____    ______ ____
ROOT
ATOM      9  C   UNL     1      -2.658   3.981  25.548  0.00  0.00    +0.251 A 
ATOM     10  N   UNL     1      -3.088   3.431  25.109  0.00  0.00    -0.190 NA
ATOM     11  C   UNL     1      -3.767   3.238  25.536  0.00  0.00    +0.204 A 
ATOM     12  N   UNL     1      -3.757   3.668  26.240  0.00  0.00    -0.056 NA
ATOM     13  O   UNL     1      -3.072   4.128  26.248  0.00  0.00    -0.336 OA
ENDROOT
BRANCH  11  14
ATOM     14  C   UNL     1      -4.354   2.707  25.302  0.00  0.00    +0.045 A 
ATOM     15  C   UNL     1      -5.149   2.886  25.437  0.00  0.00    +0.024 A 
ATOM     16  C   UNL     1      -5.736   2.356  25.202  0.00  0.00    +0.102 A 
ATOM     17  N   UNL     1      -5.529   1.648  24.834  0.00  0.00    -0.210 NA
ATOM     18  C   UNL     1      -4.734   1.469  24.699  0.00  0.00    +0.225 A 
ATOM     24  C   UNL     1      -4.147   1.999  24.934  0.00  0.00    +0.061 A 
BRANCH  18  19
ATOM     19  O   UNL     1      -4.527   0.761  24.331  0.00  0.00    -0.457 OA
BRANCH  19  20
ATOM     20  C   UNL     1      -4.404   0.082  24.783  0.00  0.00    +0.239 C 
BRANCH  20  21
ATOM     21  C   UNL     1      -4.128  -0.608  24.425  0.00  0.00    +0.189 C 
BRANCH  21  22
ATOM     22  O   UNL     1      -4.029  -1.294  24.874  0.00  0.00    -0.347 OA
ATOM     23  C   UNL     1      -3.709  -1.971  24.528  0.00  0.00    +0.174 C 
ENDBRANCH  21  22
ENDBRANCH  20  21
ENDBRANCH  19  20
ENDBRANCH  18  19
ENDBRANCH  11  14
BRANCH   9   8
ATOM      4  N   UNL     1      -1.196   3.977  25.398  0.00  0.00    -0.266 NA
ATOM      5  C   UNL     1      -0.637   4.512  25.112  0.00  0.00    +0.073 C 
ATOM      6  C   UNL     1      -1.037   5.191  24.866  0.00  0.00    +0.019 C 
ATOM      7  C   UNL     1      -1.843   5.074  25.000  0.00  0.00    +0.027 C 
ATOM      8  C   UNL     1      -1.941   4.323  25.328  0.00  0.00    +0.138 C 
BRANCH   4   3
ATOM      3  C   UNL     1      -1.037   3.226  25.700  0.00  0.00    +0.072 C 
BRANCH   3   2
ATOM      1  C   UNL     1      -0.096   2.236  26.121  0.00  0.00    +0.001 C 
ATOM      2  C   UNL     1      -0.257   2.969  25.778  0.00  0.00    +0.017 C 
ENDBRANCH   3   2
ENDBRANCH   4   3
ENDBRANCH   9   8
TORSDOF 8
ENDMDL
MODEL 3
REMARK VINA RESULT:      -8.5      2.114      5.649
REMARK  Name = 
REMARK  8 active torsions:
REMARK  status: ('A' for Active; 'I' for Inactive)
REMARK    1  A    between atoms: C_2  and  C_3
REMARK    2  A    between atoms: C_3  and  N_4
REMARK    3  A    between atoms: C_8  and  C_9
REMARK    4  A    between atoms: C_11  and  C_14
REMARK    5  A    between atoms: C_18  and  O_19
REMARK    6  A    between atoms: O_19  and  C_20
REMARK    7  A    between atoms: C_20  and  C_21
REMARK    8  A    between atoms: C_21  and  O_22
REMARK                            x       y       z     vdW  Elec       q    Type
REMARK                         _______ _______ _______ _____ _____    ______ ____
ROOT
ATOM      9  C   UNL     1      -0.957   3.031  25.410  0.00  0.00    +0.251 A 
ATOM     10  N   UNL     1      -0.939   2.438  24.837  0.00  0.00    -0.190 NA
ATOM     11  C   UNL     1      -0.641   1.752  25.188  0.00  0.00    +0.204 A 
ATOM     12  N   UNL     1      -0.477   1.922  25.978  0.00  0.00    -0.056 NA
ATOM     13  O   UNL     1      -0.671   2.712  26.116  0.00  0.00    -0.336 OA
ENDROOT
BRANCH  11  14
ATOM     14  C   UNL     1      -0.529   1.025  24.815  0.00  0.00    +0.045 A 
ATOM     15  C   UNL     1      -0.028   0.970  24.161  0.00  0.00    +0.024 A 
ATOM     16  C   UNL     1       0.085   0.244  23.788  0.00  0.00    +0.102 A 
ATOM     17  N   UNL     1      -0.302  -0.428  24.068  0.00  0.00    -0.210 NA
ATOM     18  C   UNL     1      -0.804  -0.373  24.722  0.00  0.00    +0.225 A 
ATOM     24  C   UNL     1      -0.916   0.353  25.095  0.00  0.00    +0.061 A 
BRANCH  18  19
ATOM     19  O   UNL     1      -1.191  -1.046  25.002  0.00  0.00    -0.457 OA
BRANCH  19  20
ATOM     20  C   UNL     1      -1.774  -1.406  24.542  0.00  0.00    +0.239 C 
BRANCH  20  21
ATOM     21  C   UNL     1      -2.211  -2.035  24.849  0.00  0.00    +0.189 C 
BRANCH  21  22
ATOM     22  O   UNL     1      -2.686  -2.489  24.348  0.00  0.00    -0.347 OA
ATOM     23  C   UNL     1      -3.459  -2.674  24.570  0.00  0.00    +0.174 C 
ENDBRANCH  21  22
ENDBRANCH  20  21
ENDBRANCH  19  20
ENDBRANCH  18  19
ENDBRANCH  11  14
BRANCH   9   8
ATOM      4  N   UNL     1      -1.988   4.079  25.397  0.00  0.00    -0.266 NA
ATOM      5  C   UNL     1      -1.997   4.886  25.227  0.00  0.00    +0.073 C 
ATOM      6  C   UNL     1      -1.230   5.112  25.022  0.00  0.00    +0.019 C 
ATOM      7  C   UNL     1      -0.748   4.444  25.066  0.00  0.00    +0.027 C 
ATOM      8  C   UNL     1      -1.215   3.805  25.297  0.00  0.00    +0.138 C 
BRANCH   4   3
ATOM      3  C   UNL     1      -2.637   3.625  25.626  0.00  0.00    +0.072 C 
BRANCH   3   2
ATOM      1  C   UNL     1      -4.046   3.505  25.833  0.00  0.00    +0.001 C 
ATOM      2  C   UNL     1      -3.381   3.974  25.695  0.00  0.00    +0.017 C 
ENDBRANCH   3   2
ENDBRANCH   4   3
ENDBRANCH   9   8
TORSDOF 8
ENDMDL
MODEL 4
REMARK VINA RESULT:      -8.4      1.368      4.418
REMARK  Name = 
REMARK  8 active torsions:
REMARK  status: ('A' for Active; 'I' for Inactive)
REMARK    1  A    between atoms: C_2  and  C_3
REMARK    2  A    between atoms: C_3  and  N_4
REMARK    3  A    between atoms: C_8  and  C_9
REMARK    4  A    between atoms: C_11  and  C_14
REMARK    5  A    between atoms: C_18  and  O_19
REMARK    6  A    between atoms: O_19  and  C_20
REMARK    7  A    between atoms: C_20  and  C_21
REMARK    8  A    between atoms: C_21  and  O_22
REMARK                            x       y       z     vdW  Elec       q    Type
REMARK                         _______ _______ _______ _____ _____    ______ ____
ROOT
ATOM      9  C   UNL     1      -4.464   1.644  24.812  0.00  0.00    +0.251 A 
ATOM     10  N   UNL     1      -4.157   0.981  25.195  0.00  0.00    -0.190 NA
ATOM     11  C   UNL     1      -3.807   0.498  24.625  0.00  0.00    +0.204 A 
ATOM     12  N   UNL     1      -3.898   0.861  23.890  0.00  0.00    -0.056 NA
ATOM     13  O   UNL     1      -4.304   1.570  24.005  0.00  0.00    -0.336 OA
ENDROOT
BRANCH  11  14
ATOM     14  C   UNL     1      -3.432  -0.224  24.764  0.00  0.00    +0.045 A 
ATOM     15  C   UNL     1      -3.880  -0.912  24.854  0.00  0.00    +0.024 A 
ATOM     16  C   UNL     1      -3.506  -1.633  24.993  0.00  0.00    +0.102 A 
ATOM     17  N   UNL     1      -2.684  -1.668  25.044  0.00  0.00    -0.210 NA
ATOM     18  C   UNL     1      -2.235  -0.980  24.955  0.00  0.00    +0.225 A 
ATOM     24  C   UNL     1      -2.610  -0.259  24.815  0.00  0.00    +0.061 A 
BRANCH  18  19
ATOM     19  O   UNL     1      -1.412  -1.015  25.006  0.00  0.00    -0.457 OA
BRANCH  19  20
ATOM     20  C   UNL     1      -0.956  -0.992  24.319  0.00  0.00    +0.239 C 
BRANCH  20  21
ATOM     21  C   UNL     1      -0.170  -0.744  24.354  0.00  0.00    +0.189 C 
BRANCH  21  22
ATOM     22  O   UNL     1       0.320  -0.834  23.695  0.00  0.00    -0.347 OA
ATOM     23  C   UNL     1       0.673  -0.173  23.350  0.00  0.00    +0.174 C 
ENDBRANCH  21  22
ENDBRANCH  20  21
ENDBRANCH  19  20
ENDBRANCH  18  19
ENDBRANCH  11  14
BRANCH   9   8
ATOM      4  N   UNL     1      -4.520   2.972  25.439  0.00  0.00    -0.266 NA
ATOM      5  C   UNL     1      -5.117   3.442  25.760  0.00  0.00    +0.073 C 
ATOM      6  C   UNL     1      -5.830   3.030  25.692  0.00  0.00    +0.019 C 
ATOM      7  C   UNL     1      -5.671   2.307  25.328  0.00  0.00    +0.027 C 
ATOM      8  C   UNL     1      -4.862   2.271  25.172  0.00  0.00    +0.138 C 
BRANCH   4   3
ATOM      3  C   UNL     1      -3.720   3.171  25.393  0.00  0.00    +0.072 C 
BRANCH   3   2
ATOM      1  C   UNL     1      -2.641   4.045  25.730  0.00  0.00    +0.001 C 
ATOM      2  C   UNL     1      -3.445   3.861  25.753  0.00  0.00    +0.017 C 
ENDBRANCH   3   2
ENDBRANCH   4   3
ENDBRANCH   9   8
TORSDOF 8
ENDMDL
MODEL 5
REMARK VINA RESULT:      -8.4      2.273      3.565
REMARK  Name = 
REMARK  8 active torsions:
REMARK  status: ('A' for Active; 'I' for Inactive)
REMARK    1  A    between atoms: C_2  and  C_3
REMARK    2  A    between atoms: C_3  and  N_4
REMARK    3  A    between atoms: C_8  and  C_9
REMARK    4  A    between atoms: C_11  and  C_14
REMARK    5  A    between atoms: C_18  and  O_19
REMARK    6  A    between atoms: O_19  and  C_20
REMARK    7  A    between atoms: C_20  and  C_21
REMARK    8  A    between atoms: C_21  and  O_22
REMARK                            x       y       z     vdW  Elec       q    Type
REMARK                         _______ _______ _______ _____ _____    ______ ____
ROOT
ATOM      9  C   UNL     1      -0.232   1.649  24.841  0.00  0.00    +0.251 A 
ATOM     10  N   UNL     1      -0.806   2.222  24.691  0.00  0.00    -0.190 NA
ATOM     11  C   UNL     1      -0.731   2.813  25.262  0.00  0.00    +0.204 A 
ATOM     12  N   UNL     1      -0.111   2.606  25.764  0.00  0.00    -0.056 NA
ATOM     13  O   UNL     1       0.198   1.886  25.504  0.00  0.00    -0.336 OA
ENDROOT
BRANCH  11  14
ATOM     14  C   UNL     1      -1.195   3.493  25.321  0.00  0.00    +0.045 A 
ATOM     15  C   UNL     1      -0.890   4.223  25.081  0.00  0.00    +0.024 A 
ATOM     16  C   UNL     1      -1.353   4.902  25.139  0.00  0.00    +0.102 A 
ATOM     17  N   UNL     1      -2.120   4.854  25.437  0.00  0.00    -0.210 NA
ATOM     18  C   UNL     1      -2.425   4.125  25.676  0.00  0.00    +0.225 A 
ATOM     24  C   UNL     1      -1.962   3.445  25.618  0.00  0.00    +0.061 A 
BRANCH  18  19
ATOM     19  O   UNL     1      -3.193   4.077  25.974  0.00  0.00    -0.457 OA
BRANCH  19  20
ATOM     20  C   UNL     1      -3.803   3.791  25.497  0.00  0.00    +0.239 C 
BRANCH  20  21
ATOM     21  C   UNL     1      -4.539   3.619  25.827  0.00  0.00    +0.189 C 
BRANCH  21  22
ATOM     22  O   UNL     1      -5.167   3.396  25.339  0.00  0.00    -0.347 OA
ATOM     23  C   UNL     1      -5.697   2.815  25.588  0.00  0.00    +0.174 C 
ENDBRANCH  21  22
ENDBRANCH  20  21
ENDBRANCH  19  20
ENDBRANCH  18  19
ENDBRANCH  11  14
BRANCH   9   8
ATOM      4  N   UNL     1      -0.431   0.219  24.567  0.00  0.00    -0.266 NA
ATOM      5  C   UNL     1      -0.164  -0.308  23.992  0.00  0.00    +0.073 C 
ATOM      6  C   UNL     1       0.325   0.108  23.473  0.00  0.00    +0.019 C 
ATOM      7  C   UNL     1       0.359   0.891  23.728  0.00  0.00    +0.027 C 
ATOM      8  C   UNL     1      -0.109   0.960  24.404  0.00  0.00    +0.138 C 
BRANCH   4   3
ATOM      3  C   UNL     1      -0.934   0.036  25.195  0.00  0.00    +0.072 C 
BRANCH   3   2
ATOM      1  C   UNL     1      -1.800  -0.893  25.850  0.00  0.00    +0.001 C 
ATOM      2  C   UNL     1      -1.226  -0.731  25.280  0.00  0.00    +0.017 C 
ENDBRANCH   3   2
ENDBRANCH   4   3
ENDBRANCH   9   8
TORSDOF 8
ENDMDL
MODEL 6
REMARK VINA RESULT:      -8.3      1.960      3.803
REMARK  Name = 
REMARK  8 active torsions:
REMARK  status: ('A' for Active; 'I' for Inactive)
REMARK    1  A    between atoms: C_2  and  C_3
REMARK    2  A    between atoms: C_3  and  N_4
REMARK    3  A    between atoms: C_8  and  C_9
REMARK    4  A    between atoms: C_11  and  C_14
REMARK    5  A    between atoms: C_18  and  O_19
REMARK    6  A    between atoms: O_19  and  C_20
REMARK    7  A    between atoms: C_20  and  C_21
REMARK    8  A    between atoms: C_21  and  O_22
REMARK                            x       y       z     vdW  Elec       q    Type
REMARK                         _______ _______ _______ _____ _____    ______ ____
ROOT
ATOM      9  C   UNL     1      -4.279   3.050  25.000  0.00  0.00    +0.251 A 
ATOM     10  N   UNL     1      -3.534   3.134  25.344  0.00  0.00    -0.190 NA
ATOM     11  C   UNL     1      -3.076   3.608  24.847  0.00  0.00    +0.204 A 
ATOM     12  N   UNL     1      -3.538   3.816  24.196  0.00  0.00    -0.056 NA
ATOM     13  O   UNL     1      -4.282   3.471  24.290  0.00  0.00    -0.336 OA
ENDROOT
BRANCH  11  14
ATOM     14  C   UNL     1      -2.293   3.834  24.977  0.00  0.00    +0.045 A 
ATOM     15  C   UNL     1      -2.106   4.631  25.083  0.00  0.00    +0.024 A 
ATOM     16  C   UNL     1      -1.325   4.858  25.214  0.00  0.00    +0.102 A 
ATOM     17  N   UNL     1      -0.729   4.288  25.239  0.00  0.00    -0.210 NA
ATOM     18  C   UNL     1      -0.916   3.490  25.133  0.00  0.00    +0.225 A 
ATOM     24  C   UNL     1      -1.698   3.264  25.002  0.00  0.00    +0.061 A 
BRANCH  18  19
ATOM     19  O   UNL     1      -0.319   2.921  25.157  0.00  0.00    -0.457 OA
BRANCH  19  20
ATOM     20  C   UNL     1      -0.125   2.497  24.476  0.00  0.00    +0.239 C 
BRANCH  20  21
ATOM     21  C   UNL     1       0.299   1.793  24.535  0.00  0.00    +0.189 C 
BRANCH  21  22
ATOM     22  O   UNL     1       0.647   1.464  23.862  0.00  0.00    -0.347 OA
ATOM     23  C   UNL     1       0.594   0.653  23.724  0.00  0.00    +0.174 C 
ENDBRANCH  21  22
ENDBRANCH  20  21
ENDBRANCH  19  20
ENDBRANCH  18  19
ENDBRANCH  11  14
BRANCH   9   8
ATOM      4  N   UNL     1      -5.039   1.811  25.217  0.00  0.00    -0.266 NA
ATOM      5  C   UNL     1      -5.733   1.614  25.618  0.00  0.00    +0.073 C 
ATOM      6  C   UNL     1      -6.033   2.303  25.960  0.00  0.00    +0.019 C 
ATOM      7  C   UNL     1      -5.525   2.924  25.770  0.00  0.00    +0.027 C 
ATOM      8  C   UNL     1      -4.911   2.620  25.311  0.00  0.00    +0.138 C 
BRANCH   4   3
ATOM      3  C   UNL     1      -4.559   1.288  24.796  0.00  0.00    +0.072 C 
BRANCH   3   2
ATOM      1  C   UNL     1      -4.216  -0.045  24.417  0.00  0.00    +0.001 C 
ATOM      2  C   UNL     1      -4.705   0.477  24.827  0.00  0.00    +0.017 C 
ENDBRANCH   3   2
ENDBRANCH   4   3
ENDBRANCH   9   8
TORSDOF 8
ENDMDL
MODEL 7
REMARK VINA RESULT:      -8.2      1.948      3.056
REMARK  Name = 
REMARK  8 active torsions:
REMARK  status: ('A' for Active; 'I' for Inactive)
REMARK    1  A    between atoms: C_2  and  C_3
REMARK    2  A    between atoms: C_3  and  N_4
REMARK    3  A    between atoms: C_8  and  C_9
REMARK    4  A    between atoms: C_11  and  C_14
REMARK    5  A    between atoms: C_18  and  O_19
REMARK    6  A    between atoms: O_19  and  C_20
REMARK    7  A    between atoms: C_20  and  C_21
REMARK    8  A    between atoms: C_21  and  O_22
REMARK                            x       y       z     vdW  Elec       q    Type
REMARK                         _______ _______ _______ _____ _____    ______ ____
ROOT
ATOM      9  C   UNL     1      -2.349  -0.655  24.886  0.00  0.00    +0.251 A 
ATOM     10  N   UNL     1      -1.928  -0.078  24.474  0.00  0.00    -0.190 NA
ATOM     11  C   UNL     1      -1.285   0.149  24.939  0.00  0.00    +0.204 A 
ATOM     12  N   UNL     1      -1.309  -0.287  25.638  0.00  0.00    -0.056 NA
ATOM     13  O   UNL     1      -1.967  -0.784  25.606  0.00  0.00    -0.336 OA
ENDROOT
BRANCH  11  14
ATOM     14  C   UNL     1      -0.717   0.714  24.740  0.00  0.00    +0.045 A 
ATOM     15  C   UNL     1      -0.132   0.533  24.185  0.00  0.00    +0.024 A 
ATOM     16  C   UNL     1       0.435   1.097  23.986  0.00  0.00    +0.102 A 
ATOM     17  N   UNL     1       0.420   1.841  24.341  0.00  0.00    -0.210 NA
ATOM     18  C   UNL     1      -0.164   2.022  24.896  0.00  0.00    +0.225 A 
ATOM     24  C   UNL     1      -0.732   1.458  25.095  0.00  0.00    +0.061 A 
BRANCH  18  19
ATOM     19  O   UNL     1      -0.179   2.766  25.251  0.00  0.00    -0.457 OA
BRANCH  19  20
ATOM     20  C   UNL     1      -0.561   3.394  24.875  0.00  0.00    +0.239 C 
BRANCH  20  21
ATOM     21  C   UNL     1      -0.754   4.074  25.301  0.00  0.00    +0.189 C 
BRANCH  21  22
ATOM     22  O   UNL     1      -0.796   4.803  24.915  0.00  0.00    -0.347 OA
ATOM     23  C   UNL     1      -1.435   5.307  25.054  0.00  0.00    +0.174 C 
ENDBRANCH  21  22
ENDBRANCH  20  21
ENDBRANCH  19  20
ENDBRANCH  18  19
ENDBRANCH  11  14
BRANCH   9   8
ATOM      4  N   UNL     1      -3.793  -0.716  24.618  0.00  0.00    -0.266 NA
ATOM      5  C   UNL     1      -4.307  -1.285  24.314  0.00  0.00    +0.073 C 
ATOM      6  C   UNL     1      -3.863  -1.957  24.132  0.00  0.00    +0.019 C 
ATOM      7  C   UNL     1      -3.076  -1.802  24.324  0.00  0.00    +0.027 C 
ATOM      8  C   UNL     1      -3.032  -1.035  24.625  0.00  0.00    +0.138 C 
BRANCH   4   3
ATOM      3  C   UNL     1      -4.004   0.040  24.872  0.00  0.00    +0.072 C 
BRANCH   3   2
ATOM      1  C   UNL     1      -4.997   1.050  25.063  0.00  0.00    +0.001 C 
ATOM      2  C   UNL     1      -4.789   0.289  24.822  0.00  0.00    +0.017 C 
ENDBRANCH   3   2
ENDBRANCH   4   3
ENDBRANCH   9   8
TORSDOF 8
ENDMDL
MODEL 8
REMARK VINA RESULT:      -6.9     17.095     19.570
REMARK  Name = 
REMARK  8 active torsions:
REMARK  status: ('A' for Active; 'I' for Inactive)
REMARK    1  A    between atoms: C_2  and  C_3
REMARK    2  A    between atoms: C_3  and  N_4
REMARK    3  A    between atoms: C_8  and  C_9
REMARK    4  A    between atoms: C_11  and  C_14
REMARK    5  A    between atoms: C_18  and  O_19
REMARK    6  A    between atoms: O_19  and  C_20
REMARK    7  A    between atoms: C_20  and  C_21
REMARK    8  A    between atoms: C_21  and  O_22
REMARK                            x       y       z     vdW  Elec       q    Type
REMARK                         _______ _______ _______ _____ _____    ______ ____
ROOT
ATOM      9  C   UNL     1      15.589   7.163  19.165  0.00  0.00    +0.251 A 
ATOM     10  N   UNL     1      14.822   6.861  19.198  0.00  0.00    -0.190 NA
ATOM     11  C   UNL     1      14.304   7.453  18.948  0.00  0.00    +0.204 A 
ATOM     12  N   UNL     1      14.750   8.120  18.761  0.00  0.00    -0.056 NA
ATOM     13  O   UNL     1      15.544   7.942  18.895  0.00  0.00    -0.336 OA
ENDROOT
BRANCH  11  14
ATOM     14  C   UNL     1      13.483   7.388  18.895  0.00  0.00    +0.045 A 
ATOM     15  C   UNL     1      13.107   7.490  18.166  0.00  0.00    +0.024 A 
ATOM     16  C   UNL     1      12.287   7.426  18.112  0.00  0.00    +0.102 A 
ATOM     17  N   UNL     1      11.842   7.260  18.786  0.00  0.00    -0.210 NA
ATOM     18  C   UNL     1      12.217   7.158  19.514  0.00  0.00    +0.225 A 
ATOM     24  C   UNL     1      13.037   7.222  19.568  0.00  0.00    +0.061 A 
BRANCH  18  19
ATOM     19  O   UNL     1      11.770   6.992  20.188  0.00  0.00    -0.457 OA
BRANCH  19  20
ATOM     20  C   UNL     1      11.404   7.606  20.601  0.00  0.00    +0.239 C 
BRANCH  20  21
ATOM     21  C   UNL     1      10.992   7.446  21.298  0.00  0.00    +0.189 C 
BRANCH  21  22
ATOM     22  O   UNL     1      10.552   8.043  21.662  0.00  0.00    -0.347 OA
ATOM     23  C   UNL     1      10.510   8.080  22.485  0.00  0.00    +0.174 C 
ENDBRANCH  21  22
ENDBRANCH  20  21
ENDBRANCH  19  20
ENDBRANCH  18  19
ENDBRANCH  11  14
BRANCH   9   8
ATOM      4  N   UNL     1      16.789   6.948  19.986  0.00  0.00    -0.266 NA
ATOM      5  C   UNL     1      17.405   6.400  19.987  0.00  0.00    +0.073 C 
ATOM      6  C   UNL     1      17.276   5.871  19.367  0.00  0.00    +0.019 C 
ATOM      7  C   UNL     1      16.580   6.093  18.984  0.00  0.00    +0.027 C 
ATOM      8  C   UNL     1      16.278   6.758  19.367  0.00  0.00    +0.138 C 
BRANCH   4   3
ATOM      3  C   UNL     1      16.699   7.577  20.513  0.00  0.00    +0.072 C 
BRANCH   3   2
ATOM      1  C   UNL     1      17.205   8.370  21.589  0.00  0.00    +0.001 C 
ATOM      2  C   UNL     1      17.266   7.709  21.098  0.00  0.00    +0.017 C 
ENDBRANCH   3   2
ENDBRANCH   4   3
ENDBRANCH   9   8
TORSDOF 8
ENDMDL
MODEL 9
REMARK VINA RESULT:      -6.6     16.059     18.648
REMARK  Name = 
REMARK  8 active torsions:
REMARK  status: ('A' for Active; 'I' for Inactive)
REMARK    1  A    between atoms: C_2  and  C_3
REMARK    2  A    between atoms: C_3  and  N_4
REMARK    3  A    between atoms: C_8  and  C_9
REMARK    4  A    between atoms: C_11  and  C_14
REMARK    5  A    between atoms: C_18  and  O_19
REMARK    6  A    between atoms: O_19  and  C_20
REMARK    7  A    between atoms: C_20  and  C_21
REMARK    8  A    between atoms: C_21  and  O_22
REMARK                            x       y       z     vdW  Elec       q    Type
REMARK                         _______ _______ _______ _____ _____    ______ ____
ROOT
ATOM      9  C   UNL     1      12.680   7.581  21.501  0.00  0.00    +0.251 A 
ATOM     10  N   UNL     1      12.954   7.512  20.726  0.00  0.00    -0.190 NA
ATOM     11  C   UNL     1      13.773   7.410  20.754  0.00  0.00    +0.204 A 
ATOM     12  N   UNL     1      14.004   7.416  21.546  0.00  0.00    -0.056 NA
ATOM     13  O   UNL     1      13.329   7.522  22.008  0.00  0.00    -0.336 OA
ENDROOT
BRANCH  11  14
ATOM     14  C   UNL     1      14.273   7.318  20.104  0.00  0.00    +0.045 A 
ATOM     15  C   UNL     1      14.832   6.710  20.097  0.00  0.00    +0.024 A 
ATOM     16  C   UNL     1      15.332   6.618  19.448  0.00  0.00    +0.102 A 
ATOM     17  N   UNL     1      15.274   7.132  18.806  0.00  0.00    -0.210 NA
ATOM     18  C   UNL     1      14.715   7.740  18.814  0.00  0.00    +0.225 A 
ATOM     24  C   UNL     1      14.215   7.833  19.463  0.00  0.00    +0.061 A 
BRANCH  18  19
ATOM     19  O   UNL     1      14.658   8.255  18.171  0.00  0.00    -0.457 OA
BRANCH  19  20
ATOM     20  C   UNL     1      14.295   8.004  17.474  0.00  0.00    +0.239 C 
BRANCH  20  21
ATOM     21  C   UNL     1      14.121   8.549  16.880  0.00  0.00    +0.189 C 
BRANCH  21  22
ATOM     22  O   UNL     1      13.842   8.287  16.148  0.00  0.00    -0.347 OA
ATOM     23  C   UNL     1      13.933   8.759  15.478  0.00  0.00    +0.174 C 
ENDBRANCH  21  22
ENDBRANCH  20  21
ENDBRANCH  19  20
ENDBRANCH  18  19
ENDBRANCH  11  14
BRANCH   9   8
ATOM      4  N   UNL     1      11.319   7.102  21.785  0.00  0.00    -0.266 NA
ATOM      5  C   UNL     1      10.616   7.455  22.032  0.00  0.00    +0.073 C 
ATOM      6  C   UNL     1      10.757   8.263  22.130  0.00  0.00    +0.019 C 
ATOM      7  C   UNL     1      11.547   8.407  21.942  0.00  0.00    +0.027 C 
ATOM      8  C   UNL     1      11.895   7.691  21.729  0.00  0.00    +0.138 C 
BRANCH   4   3
ATOM      3  C   UNL     1      11.428   6.301  21.622  0.00  0.00    +0.072 C 
BRANCH   3   2
ATOM      1  C   UNL     1      10.918   4.966  21.579  0.00  0.00    +0.001 C 
ATOM      2  C   UNL     1      10.806   5.770  21.730  0.00  0.00    +0.017 C 
ENDBRANCH   3   2
ENDBRANCH   4   3
ENDBRANCH   9   8
TORSDOF 8
ENDMDL
MODEL 10
REMARK VINA RESULT:      -6.6     17.910     19.476
REMARK  Name = 
REMARK  8 active torsions:
REMARK  status: ('A' for Active; 'I' for Inactive)
REMARK    1  A    between atoms: C_2  and  C_3
REMARK    2  A    between atoms: C_3  and  N_4
REMARK    3  A    between atoms: C_8  and  C_9
REMARK    4  A    between atoms: C_11  and  C_14
REMARK    5  A    between atoms: C_18  and  O_19
REMARK    6  A    between atoms: O_19  and  C_20
REMARK    7  A    between atoms: C_20  and  C_21
REMARK    8  A    between atoms: C_21  and  O_22
REMARK                            x       y       z     vdW  Elec       q    Type
REMARK                         _______ _______ _______ _____ _____    ______ ____
ROOT
ATOM      9  C   UNL     1      14.871   6.851  19.946  0.00  0.00    +0.251 A 
ATOM     10  N   UNL     1      14.383   7.407  19.583  0.00  0.00    -0.190 NA
ATOM     11  C   UNL     1      13.645   7.379  19.952  0.00  0.00    +0.204 A 
ATOM     12  N   UNL     1      13.677   6.804  20.543  0.00  0.00    -0.056 NA
ATOM     13  O   UNL     1      14.435   6.477  20.539  0.00  0.00    -0.336 OA
ENDROOT
BRANCH  11  14
ATOM     14  C   UNL     1      12.989   7.843  19.763  0.00  0.00    +0.045 A 
ATOM     15  C   UNL     1      12.772   8.469  20.256  0.00  0.00    +0.024 A 
ATOM     16  C   UNL     1      12.117   8.933  20.068  0.00  0.00    +0.102 A 
ATOM     17  N   UNL     1      11.679   8.772  19.389  0.00  0.00    -0.210 NA
ATOM     18  C   UNL     1      11.896   8.146  18.896  0.00  0.00    +0.225 A 
ATOM     24  C   UNL     1      12.551   7.682  19.084  0.00  0.00    +0.061 A 
BRANCH  18  19
ATOM     19  O   UNL     1      11.457   7.986  18.216  0.00  0.00    -0.457 OA
BRANCH  19  20
ATOM     20  C   UNL     1      11.545   8.461  17.547  0.00  0.00    +0.239 C 
BRANCH  20  21
ATOM     21  C   UNL     1      10.997   8.415  16.933  0.00  0.00    +0.189 C 
BRANCH  21  22
ATOM     22  O   UNL     1      11.237   8.553  16.155  0.00  0.00    -0.347 OA
ATOM     23  C   UNL     1      10.823   9.089  15.684  0.00  0.00    +0.174 C 
ENDBRANCH  21  22
ENDBRANCH  20  21
ENDBRANCH  19  20
ENDBRANCH  18  19
ENDBRANCH  11  14
BRANCH   9   8
ATOM      4  N   UNL     1      16.321   7.032  20.103  0.00  0.00    -0.266 NA
ATOM      5  C   UNL     1      16.991   6.719  19.739  0.00  0.00    +0.073 C 
ATOM      6  C   UNL     1      16.741   6.187  19.159  0.00  0.00    +0.019 C 
ATOM      7  C   UNL     1      15.917   6.172  19.167  0.00  0.00    +0.027 C 
ATOM      8  C   UNL     1      15.656   6.694  19.750  0.00  0.00    +0.138 C 
BRANCH   4   3
ATOM      3  C   UNL     1      16.317   7.586  20.714  0.00  0.00    +0.072 C 
BRANCH   3   2
ATOM      1  C   UNL     1      17.022   8.472  21.586  0.00  0.00    +0.001 C 
ATOM      2  C   UNL     1      17.028   7.886  21.005  0.00  0.00    +0.017 C 
ENDBRANCH   3   2
ENDBRANCH   4   3
ENDBRANCH   9   8
TORSDOF 8
ENDMDL
