REMARK  Name = 
REMARK  5 active torsions:
REMARK  status: ('A' for Active; 'I' for Inactive)
REMARK    1  A    between atoms: C_2  and  C_3
REMARK    2  A    between atoms: C_8  and  C_9
REMARK    3  A    between atoms: C_9  and  C_10
REMARK    4  A    between atoms: N_12  and  C_13
REMARK    5  A    between atoms: C_16  and  C_18
REMARK                            x       y       z     vdW  Elec       q    Type
REMARK                         _______ _______ _______ _____ _____    ______ ____
ROOT
ATOM      3  C   UNL     1       6.128   4.014   0.000  0.00  0.00    +0.020 C 
ATOM      4  C   UNL     1       6.843   4.427   0.000  0.00  0.00    +0.093 C 
ATOM      5  N   UNL     1       7.557   4.014   0.000  0.00  0.00    -0.280 N 
ATOM      6  C   UNL     1       7.557   3.189   0.000  0.00  0.00    +0.093 C 
ATOM      7  C   UNL     1       6.843   2.777   0.000  0.00  0.00    +0.022 C 
ATOM      8  C   UNL     1       6.128   3.189   0.000  0.00  0.00    +0.012 C 
ATOM     16  C   UNL     1       8.272   4.427   0.000  0.00  0.00    +0.225 C 
ATOM     17  O   UNL     1       8.272   5.252   0.000  0.00  0.00    -0.275 OA
ENDROOT
BRANCH  16  18
ATOM     18  C   UNL     1       8.986   4.014   0.000  0.00  0.00    +0.077 C 
ATOM     19  C   UNL     1       9.811   4.014   0.000  0.00  0.00    +0.010 C 
ATOM     20  C   UNL     1       9.399   3.300   0.000  0.00  0.00    +0.010 C 
ENDBRANCH  16  18
BRANCH   3   2
ATOM      1  C   UNL     1       4.699   4.014   0.000  0.00  0.00    +0.000 C 
ATOM      2  C   UNL     1       5.414   4.427   0.000  0.00  0.00    +0.002 C 
ENDBRANCH   3   2
BRANCH   8   9
ATOM      9  C   UNL     1       5.414   2.777   0.000  0.00  0.00    +0.087 C 
BRANCH   9  10
ATOM     10  C   UNL     1       5.414   1.952   0.000  0.00  0.00    +0.241 C 
ATOM     11  O   UNL     1       6.128   1.540   0.000  0.00  0.00    -0.273 OA
ATOM     12  N   UNL     1       4.699   1.540   0.000  0.00  0.00    -0.207 NA
BRANCH  12  13
ATOM     13  C   UNL     1       4.699   0.715   0.000  0.00  0.00    +0.095 C 
ATOM     14  C   UNL     1       5.112   0.000   0.000  0.00  0.00    +0.023 C 
ATOM     15  C   UNL     1       4.287   0.000   0.000  0.00  0.00    +0.023 C 
ENDBRANCH  12  13
ENDBRANCH   9  10
ENDBRANCH   8   9
TORSDOF 5
