REMARK  Name = 
REMARK  4 active torsions:
REMARK  status: ('A' for Active; 'I' for Inactive)
REMARK    1  A    between atoms: O_2  and  C_3
REMARK    2  A    between atoms: C_3  and  C_4
REMARK    3  A    between atoms: N_6  and  C_7
REMARK    4  A    between atoms: C_19  and  C_21
REMARK                            x       y       z     vdW  Elec       q    Type
REMARK                         _______ _______ _______ _____ _____    ______ ____
ROOT
ATOM      7  C   UNL     1       4.635   1.645   0.000  0.00  0.00    +0.117 C 
ATOM      8  C   UNL     1       4.311   2.404   0.000  0.00  0.00    +0.053 C 
ATOM      9  C   UNL     1       3.489   2.330   0.000  0.00  0.00    +0.155 C 
ATOM     10  N   UNL     1       3.305   1.525   0.000  0.00  0.00    -0.270 N 
ATOM     11  C   UNL     1       4.014   1.102   0.000  0.00  0.00    +0.115 C 
ATOM     12  C   UNL     1       2.562   1.167   0.000  0.00  0.00    +0.246 C 
ATOM     13  O   UNL     1       2.562   0.342   0.000  0.00  0.00    -0.273 OA
ATOM     14  C   UNL     1       1.819   1.525   0.000  0.00  0.00    +0.172 C 
ATOM     15  C   UNL     1       1.635   2.330   0.000  0.00  0.00    +0.124 C 
ATOM     16  C   UNL     1       0.814   2.404   0.000  0.00  0.00    +0.045 C 
ATOM     17  C   UNL     1       0.489   1.645   0.000  0.00  0.00    +0.096 C 
ATOM     18  N   UNL     1       1.111   1.102   0.000  0.00  0.00    -0.267 N 
ATOM     19  C   UNL     1       1.037   0.281   0.000  0.00  0.00    +0.265 C 
ATOM     20  O   UNL     1       1.711  -0.194   0.000  0.00  0.00    -0.268 OA
ATOM     27  N   UNL     1       2.150   2.975   0.000  0.00  0.00    -0.204 NA
ATOM     28  C   UNL     1       2.975   2.975   0.000  0.00  0.00    +0.260 C 
ATOM     29  O   UNL     1       3.333   3.718   0.000  0.00  0.00    -0.272 OA
ENDROOT
BRANCH  19  21
ATOM     21  C   UNL     1       0.288  -0.066   0.000  0.00  0.00    +0.114 A 
ATOM     22  C   UNL     1       0.129  -0.876   0.000  0.00  0.00    +0.023 A 
ATOM     23  C   UNL     1      -0.691  -0.974   0.000  0.00  0.00    +0.020 A 
ATOM     24  C   UNL     1      -1.037  -0.226   0.000  0.00  0.00    +0.076 A 
ATOM     25  N   UNL     1      -0.432   0.335   0.000  0.00  0.00    -0.320 N 
ATOM     26  C   UNL     1      -0.531   1.155   0.000  0.00  0.00    +0.131 C 
ENDBRANCH  19  21
BRANCH   7   6
ATOM      4  C   UNL     1       6.000   2.066   0.000  0.00  0.00    +0.272 C 
ATOM      5  O   UNL     1       5.757   2.854   0.000  0.00  0.00    -0.271 OA
ATOM      6  N   UNL     1       5.439   1.461   0.000  0.00  0.00    -0.203 NA
BRANCH   4   3
ATOM      3  C   UNL     1       6.805   1.883   0.000  0.00  0.00    +0.229 C 
BRANCH   3   2
ATOM      1  C   UNL     1       8.170   2.304   0.000  0.00  0.00    +0.175 C 
ATOM      2  O   UNL     1       7.366   2.487   0.000  0.00  0.00    -0.342 OA
ENDBRANCH   3   2
ENDBRANCH   4   3
ENDBRANCH   7   6
TORSDOF 4
