MODEL 1
REMARK VINA RESULT:     -10.8      0.000      0.000
REMARK  Name = 
REMARK  8 active torsions:
REMARK  status: ('A' for Active; 'I' for Inactive)
REMARK    1  A    between atoms: C_2  and  C_4
REMARK    2  A    between atoms: C_6  and  C_7
REMARK    3  A    between atoms: C_7  and  C_8
REMARK    4  A    between atoms: C_21  and  C_22
REMARK    5  A    between atoms: C_22  and  N_23
REMARK    6  A    between atoms: C_24  and  C_26
REMARK    7  A    between atoms: C_26  and  C_27
REMARK    8  A    between atoms: C_27  and  C_28
REMARK                            x       y       z     vdW  Elec       q    Type
REMARK                         _______ _______ _______ _____ _____    ______ ____
ROOT
ATOM      4  C   UNL     1      -4.331   1.614  24.632  0.00  0.00    +0.006 C 
ATOM      5  C   UNL     1      -4.276   0.922  24.186  0.00  0.00    +0.005 C 
ATOM      6  C   UNL     1      -3.625   0.798  23.696  0.00  0.00    +0.026 C 
ATOM     18  C   UNL     1      -3.027   1.365  23.652  0.00  0.00    -0.048 C 
ATOM     19  C   UNL     1      -2.375   1.240  23.162  0.00  0.00    +0.026 C 
ATOM     20  C   UNL     1      -3.081   2.056  24.098  0.00  0.00    -0.033 C 
ATOM     21  C   UNL     1      -3.734   2.181  24.589  0.00  0.00    +0.043 C 
ENDROOT
BRANCH   4   2
ATOM      1  C   UNL     1      -5.623   2.182  24.852  0.00  0.00    +0.000 C 
ATOM      2  C   UNL     1      -4.983   1.738  25.122  0.00  0.00    +0.000 C 
ATOM      3  C   UNL     1      -4.994   1.419  25.882  0.00  0.00    +0.000 C 
ENDBRANCH   4   2
BRANCH   6   7
ATOM      7  C   UNL     1      -3.570   0.106  23.249  0.00  0.00    +0.070 C 
BRANCH   7   8
ATOM      8  C   UNL     1      -3.523  -0.626  23.625  0.00  0.00    +0.139 A 
ATOM      9  N   UNL     1      -4.104  -1.213  23.620  0.00  0.00    -0.229 NA
ATOM     10  C   UNL     1      -3.828  -1.850  24.065  0.00  0.00    +0.100 A 
ATOM     11  C   UNL     1      -3.076  -1.658  24.345  0.00  0.00    +0.096 A 
ATOM     12  N   UNL     1      -2.888  -0.902  24.073  0.00  0.00    -0.230 NA
ATOM     13  C   UNL     1      -2.660  -2.197  24.811  0.00  0.00    -0.003 A 
ATOM     14  C   UNL     1      -1.908  -2.006  25.091  0.00  0.00    +0.033 C 
ATOM     15  C   UNL     1      -2.995  -2.927  24.997  0.00  0.00    -0.003 A 
ATOM     16  C   UNL     1      -3.748  -3.119  24.717  0.00  0.00    +0.001 A 
ATOM     17  C   UNL     1      -4.164  -2.580  24.250  0.00  0.00    +0.021 A 
ENDBRANCH   7   8
ENDBRANCH   6   7
BRANCH  21  22
ATOM     22  C   UNL     1      -3.788   2.873  25.035  0.00  0.00    +0.119 C 
BRANCH  22  23
ATOM     23  N   UNL     1      -3.301   3.515  24.859  0.00  0.00    -0.205 NA
ATOM     24  C   UNL     1      -3.077   4.038  25.456  0.00  0.00    +0.242 C 
ATOM     25  O   UNL     1      -3.340   3.920  26.229  0.00  0.00    -0.273 OA
BRANCH  24  26
ATOM     26  C   UNL     1      -2.590   4.680  25.280  0.00  0.00    +0.099 C 
BRANCH  26  27
ATOM     27  C   UNL     1      -1.793   4.665  25.498  0.00  0.00    +0.124 C 
BRANCH  27  28
ATOM     28  C   UNL     1      -1.254   5.164  25.122  0.00  0.00    +0.365 C 
ATOM     29  O   UNL     1      -0.544   4.859  24.831  0.00  0.00    -0.246 OA
ATOM     30  O   UNL     1      -1.425   5.966  25.035  0.00  0.00    -0.246 OA
ENDBRANCH  27  28
ENDBRANCH  26  27
ENDBRANCH  24  26
ENDBRANCH  22  23
ENDBRANCH  21  22
TORSDOF 8
ENDMDL
MODEL 2
REMARK VINA RESULT:     -10.6      3.135      4.795
REMARK  Name = 
REMARK  8 active torsions:
REMARK  status: ('A' for Active; 'I' for Inactive)
REMARK    1  A    between atoms: C_2  and  C_4
REMARK    2  A    between atoms: C_6  and  C_7
REMARK    3  A    between atoms: C_7  and  C_8
REMARK    4  A    between atoms: C_21  and  C_22
REMARK    5  A    between atoms: C_22  and  N_23
REMARK    6  A    between atoms: C_24  and  C_26
REMARK    7  A    between atoms: C_26  and  C_27
REMARK    8  A    between atoms: C_27  and  C_28
REMARK                            x       y       z     vdW  Elec       q    Type
REMARK                         _______ _______ _______ _____ _____    ______ ____
ROOT
ATOM      4  C   UNL     1      -1.489   1.647  24.565  0.00  0.00    +0.006 C 
ATOM      5  C   UNL     1      -2.137   2.152  24.489  0.00  0.00    +0.005 C 
ATOM      6  C   UNL     1      -2.482   2.272  23.750  0.00  0.00    +0.026 C 
ATOM     18  C   UNL     1      -2.179   1.887  23.086  0.00  0.00    -0.048 C 
ATOM     19  C   UNL     1      -2.524   2.008  22.345  0.00  0.00    +0.026 C 
ATOM     20  C   UNL     1      -1.531   1.383  23.161  0.00  0.00    -0.033 C 
ATOM     21  C   UNL     1      -1.185   1.262  23.901  0.00  0.00    +0.043 C 
ENDROOT
BRANCH   4   2
ATOM      1  C   UNL     1      -1.333   0.855  25.743  0.00  0.00    +0.000 C 
ATOM      2  C   UNL     1      -1.144   1.527  25.304  0.00  0.00    +0.000 C 
ATOM      3  C   UNL     1      -0.609   2.078  25.604  0.00  0.00    +0.000 C 
ENDBRANCH   4   2
BRANCH   6   7
ATOM      7  C   UNL     1      -3.130   2.777  23.673  0.00  0.00    +0.070 C 
BRANCH   7   8
ATOM      8  C   UNL     1      -3.765   2.716  24.196  0.00  0.00    +0.139 A 
ATOM      9  N   UNL     1      -3.976   3.271  24.770  0.00  0.00    -0.229 NA
ATOM     10  C   UNL     1      -4.642   2.987  25.166  0.00  0.00    +0.100 A 
ATOM     11  C   UNL     1      -4.842   2.258  24.838  0.00  0.00    +0.096 A 
ATOM     12  N   UNL     1      -4.301   2.090  24.239  0.00  0.00    -0.230 NA
ATOM     13  C   UNL     1      -5.492   1.841  25.127  0.00  0.00    -0.003 A 
ATOM     14  C   UNL     1      -5.694   1.111  24.800  0.00  0.00    +0.033 C 
ATOM     15  C   UNL     1      -5.942   2.153  25.745  0.00  0.00    -0.003 A 
ATOM     16  C   UNL     1      -5.741   2.883  26.073  0.00  0.00    +0.001 A 
ATOM     17  C   UNL     1      -5.090   3.301  25.784  0.00  0.00    +0.021 A 
ENDBRANCH   7   8
ENDBRANCH   6   7
BRANCH  21  22
ATOM     22  C   UNL     1      -0.537   0.758  23.976  0.00  0.00    +0.119 C 
BRANCH  22  23
ATOM     23  N   UNL     1       0.035   0.733  23.383  0.00  0.00    -0.205 NA
ATOM     24  C   UNL     1       0.526   0.072  23.311  0.00  0.00    +0.242 C 
ATOM     25  O   UNL     1       0.443  -0.562  23.832  0.00  0.00    -0.273 OA
BRANCH  24  26
ATOM     26  C   UNL     1       1.098   0.047  22.718  0.00  0.00    +0.099 C 
BRANCH  26  27
ATOM     27  C   UNL     1       1.893  -0.055  22.916  0.00  0.00    +0.124 C 
BRANCH  27  28
ATOM     28  C   UNL     1       2.480   0.101  22.358  0.00  0.00    +0.365 C 
ATOM     29  O   UNL     1       3.179   0.475  22.589  0.00  0.00    -0.246 OA
ATOM     30  O   UNL     1       2.369  -0.116  21.570  0.00  0.00    -0.246 OA
ENDBRANCH  27  28
ENDBRANCH  26  27
ENDBRANCH  24  26
ENDBRANCH  22  23
ENDBRANCH  21  22
TORSDOF 8
ENDMDL
MODEL 3
REMARK VINA RESULT:      -9.9      1.360      2.175
REMARK  Name = 
REMARK  8 active torsions:
REMARK  status: ('A' for Active; 'I' for Inactive)
REMARK    1  A    between atoms: C_2  and  C_4
REMARK    2  A    between atoms: C_6  and  C_7
REMARK    3  A    between atoms: C_7  and  C_8
REMARK    4  A    between atoms: C_21  and  C_22
REMARK    5  A    between atoms: C_22  and  N_23
REMARK    6  A    between atoms: C_24  and  C_26
REMARK    7  A    between atoms: C_26  and  C_27
REMARK    8  A    between atoms: C_27  and  C_28
REMARK                            x       y       z     vdW  Elec       q    Type
REMARK                         _______ _______ _______ _____ _____    ______ ____
ROOT
ATOM      4  C   UNL     1      -1.879   0.839  24.878  0.00  0.00    +0.006 C 
ATOM      5  C   UNL     1      -2.540   0.360  25.004  0.00  0.00    +0.005 C 
ATOM      6  C   UNL     1      -3.298   0.667  24.898  0.00  0.00    +0.026 C 
ATOM     18  C   UNL     1      -3.396   1.452  24.666  0.00  0.00    -0.048 C 
ATOM     19  C   UNL     1      -4.156   1.759  24.559  0.00  0.00    +0.026 C 
ATOM     20  C   UNL     1      -2.737   1.931  24.539  0.00  0.00    -0.033 C 
ATOM     21  C   UNL     1      -1.978   1.624  24.646  0.00  0.00    +0.043 C 
ENDROOT
BRANCH   4   2
ATOM      1  C   UNL     1      -0.708   0.222  24.342  0.00  0.00    +0.000 C 
ATOM      2  C   UNL     1      -1.121   0.533  24.984  0.00  0.00    +0.000 C 
ATOM      3  C   UNL     1      -0.776   0.537  25.734  0.00  0.00    +0.000 C 
ENDBRANCH   4   2
BRANCH   6   7
ATOM      7  C   UNL     1      -3.958   0.188  25.024  0.00  0.00    +0.070 C 
BRANCH   7   8
ATOM      8  C   UNL     1      -3.954  -0.597  24.772  0.00  0.00    +0.139 A 
ATOM      9  N   UNL     1      -4.247  -0.878  24.054  0.00  0.00    -0.229 NA
ATOM     10  C   UNL     1      -4.129  -1.695  24.033  0.00  0.00    +0.100 A 
ATOM     11  C   UNL     1      -3.763  -1.918  24.737  0.00  0.00    +0.096 A 
ATOM     12  N   UNL     1      -3.655  -1.240  25.194  0.00  0.00    -0.230 NA
ATOM     13  C   UNL     1      -3.576  -2.710  24.871  0.00  0.00    -0.003 A 
ATOM     14  C   UNL     1      -3.210  -2.935  25.575  0.00  0.00    +0.033 C 
ATOM     15  C   UNL     1      -3.755  -3.279  24.301  0.00  0.00    -0.003 A 
ATOM     16  C   UNL     1      -4.122  -3.055  23.596  0.00  0.00    +0.001 A 
ATOM     17  C   UNL     1      -4.309  -2.263  23.462  0.00  0.00    +0.021 A 
ENDBRANCH   7   8
ENDBRANCH   6   7
BRANCH  21  22
ATOM     22  C   UNL     1      -1.319   2.104  24.520  0.00  0.00    +0.119 C 
BRANCH  22  23
ATOM     23  N   UNL     1      -1.405   2.923  24.492  0.00  0.00    -0.205 NA
ATOM     24  C   UNL     1      -0.745   3.404  24.368  0.00  0.00    +0.242 C 
ATOM     25  O   UNL     1       0.000   3.064  24.271  0.00  0.00    -0.273 OA
BRANCH  24  26
ATOM     26  C   UNL     1      -0.832   4.223  24.341  0.00  0.00    +0.099 C 
BRANCH  26  27
ATOM     27  C   UNL     1      -0.865   4.658  25.042  0.00  0.00    +0.124 C 
BRANCH  27  28
ATOM     28  C   UNL     1      -1.157   5.429  25.035  0.00  0.00    +0.365 C 
ATOM     29  O   UNL     1      -0.720   6.033  24.679  0.00  0.00    -0.246 OA
ATOM     30  O   UNL     1      -1.886   5.598  25.384  0.00  0.00    -0.246 OA
ENDBRANCH  27  28
ENDBRANCH  26  27
ENDBRANCH  24  26
ENDBRANCH  22  23
ENDBRANCH  21  22
TORSDOF 8
ENDMDL
MODEL 4
REMARK VINA RESULT:      -9.6      3.079      5.322
REMARK  Name = 
REMARK  8 active torsions:
REMARK  status: ('A' for Active; 'I' for Inactive)
REMARK    1  A    between atoms: C_2  and  C_4
REMARK    2  A    between atoms: C_6  and  C_7
REMARK    3  A    between atoms: C_7  and  C_8
REMARK    4  A    between atoms: C_21  and  C_22
REMARK    5  A    between atoms: C_22  and  N_23
REMARK    6  A    between atoms: C_24  and  C_26
REMARK    7  A    between atoms: C_26  and  C_27
REMARK    8  A    between atoms: C_27  and  C_28
REMARK                            x       y       z     vdW  Elec       q    Type
REMARK                         _______ _______ _______ _____ _____    ______ ____
ROOT
ATOM      4  C   UNL     1      -1.154   1.173  24.968  0.00  0.00    +0.006 C 
ATOM      5  C   UNL     1      -1.507   1.841  25.302  0.00  0.00    +0.005 C 
ATOM      6  C   UNL     1      -1.217   2.592  25.127  0.00  0.00    +0.026 C 
ATOM     18  C   UNL     1      -0.574   2.677  24.618  0.00  0.00    -0.048 C 
ATOM     19  C   UNL     1      -0.283   3.430  24.442  0.00  0.00    +0.026 C 
ATOM     20  C   UNL     1      -0.220   2.011  24.284  0.00  0.00    -0.033 C 
ATOM     21  C   UNL     1      -0.511   1.259  24.459  0.00  0.00    +0.043 C 
ENDROOT
BRANCH   4   2
ATOM      1  C   UNL     1      -1.151   0.008  25.793  0.00  0.00    +0.000 C 
ATOM      2  C   UNL     1      -1.444   0.422  25.143  0.00  0.00    +0.000 C 
ATOM      3  C   UNL     1      -2.028   0.084  24.668  0.00  0.00    +0.000 C 
ENDBRANCH   4   2
BRANCH   6   7
ATOM      7  C   UNL     1      -1.570   3.259  25.461  0.00  0.00    +0.070 C 
BRANCH   7   8
ATOM      8  C   UNL     1      -2.386   3.363  25.412  0.00  0.00    +0.139 A 
ATOM      9  N   UNL     1      -2.908   3.419  26.049  0.00  0.00    -0.229 NA
ATOM     10  C   UNL     1      -3.669   3.519  25.748  0.00  0.00    +0.100 A 
ATOM     11  C   UNL     1      -3.619   3.525  24.925  0.00  0.00    +0.096 A 
ATOM     12  N   UNL     1      -2.827   3.429  24.717  0.00  0.00    -0.230 NA
ATOM     13  C   UNL     1      -4.302   3.618  24.471  0.00  0.00    -0.003 A 
ATOM     14  C   UNL     1      -4.252   3.624  23.648  0.00  0.00    +0.033 C 
ATOM     15  C   UNL     1      -5.034   3.705  24.840  0.00  0.00    -0.003 A 
ATOM     16  C   UNL     1      -5.084   3.699  25.664  0.00  0.00    +0.001 A 
ATOM     17  C   UNL     1      -4.401   3.606  26.118  0.00  0.00    +0.021 A 
ENDBRANCH   7   8
ENDBRANCH   6   7
BRANCH  21  22
ATOM     22  C   UNL     1      -0.157   0.593  24.125  0.00  0.00    +0.119 C 
BRANCH  22  23
ATOM     23  N   UNL     1       0.416   0.682  23.538  0.00  0.00    -0.205 NA
ATOM     24  C   UNL     1       0.821   0.021  23.255  0.00  0.00    +0.242 C 
ATOM     25  O   UNL     1       0.654  -0.728  23.558  0.00  0.00    -0.273 OA
BRANCH  24  26
ATOM     26  C   UNL     1       1.394   0.110  22.668  0.00  0.00    +0.099 C 
BRANCH  26  27
ATOM     27  C   UNL     1       2.181  -0.081  22.828  0.00  0.00    +0.124 C 
BRANCH  27  28
ATOM     28  C   UNL     1       2.777   0.159  22.310  0.00  0.00    +0.365 C 
ATOM     29  O   UNL     1       2.707   0.004  21.502  0.00  0.00    -0.246 OA
ATOM     30  O   UNL     1       3.441   0.554  22.598  0.00  0.00    -0.246 OA
ENDBRANCH  27  28
ENDBRANCH  26  27
ENDBRANCH  24  26
ENDBRANCH  22  23
ENDBRANCH  21  22
TORSDOF 8
ENDMDL
MODEL 5
REMARK VINA RESULT:      -9.4      2.309      5.324
REMARK  Name = 
REMARK  8 active torsions:
REMARK  status: ('A' for Active; 'I' for Inactive)
REMARK    1  A    between atoms: C_2  and  C_4
REMARK    2  A    between atoms: C_6  and  C_7
REMARK    3  A    between atoms: C_7  and  C_8
REMARK    4  A    between atoms: C_21  and  C_22
REMARK    5  A    between atoms: C_22  and  N_23
REMARK    6  A    between atoms: C_24  and  C_26
REMARK    7  A    between atoms: C_26  and  C_27
REMARK    8  A    between atoms: C_27  and  C_28
REMARK                            x       y       z     vdW  Elec       q    Type
REMARK                         _______ _______ _______ _____ _____    ______ ____
ROOT
ATOM      4  C   UNL     1      -4.491   1.557  24.625  0.00  0.00    +0.006 C 
ATOM      5  C   UNL     1      -4.193   2.253  24.298  0.00  0.00    +0.005 C 
ATOM      6  C   UNL     1      -3.583   2.221  23.744  0.00  0.00    +0.026 C 
ATOM     18  C   UNL     1      -3.271   1.492  23.517  0.00  0.00    -0.048 C 
ATOM     19  C   UNL     1      -2.660   1.459  22.962  0.00  0.00    +0.026 C 
ATOM     20  C   UNL     1      -3.568   0.795  23.843  0.00  0.00    -0.033 C 
ATOM     21  C   UNL     1      -4.178   0.828  24.398  0.00  0.00    +0.043 C 
ENDROOT
BRANCH   4   2
ATOM      1  C   UNL     1      -5.885   1.524  24.934  0.00  0.00    +0.000 C 
ATOM      2  C   UNL     1      -5.100   1.589  25.179  0.00  0.00    +0.000 C 
ATOM      3  C   UNL     1      -4.926   1.686  25.980  0.00  0.00    +0.000 C 
ENDBRANCH   4   2
BRANCH   6   7
ATOM      7  C   UNL     1      -3.285   2.917  23.416  0.00  0.00    +0.070 C 
BRANCH   7   8
ATOM      8  C   UNL     1      -2.821   3.423  23.873  0.00  0.00    +0.139 A 
ATOM      9  N   UNL     1      -3.058   4.149  24.186  0.00  0.00    -0.229 NA
ATOM     10  C   UNL     1      -2.422   4.467  24.604  0.00  0.00    +0.100 A 
ATOM     11  C   UNL     1      -1.792   3.938  24.550  0.00  0.00    +0.096 A 
ATOM     12  N   UNL     1      -2.039   3.293  24.099  0.00  0.00    -0.230 NA
ATOM     13  C   UNL     1      -1.075   4.112  24.920  0.00  0.00    -0.003 A 
ATOM     14  C   UNL     1      -0.445   3.583  24.866  0.00  0.00    +0.033 C 
ATOM     15  C   UNL     1      -0.988   4.815  25.342  0.00  0.00    -0.003 A 
ATOM     16  C   UNL     1      -1.619   5.344  25.396  0.00  0.00    +0.001 A 
ATOM     17  C   UNL     1      -2.336   5.171  25.027  0.00  0.00    +0.021 A 
ENDBRANCH   7   8
ENDBRANCH   6   7
BRANCH  21  22
ATOM     22  C   UNL     1      -4.475   0.131  24.725  0.00  0.00    +0.119 C 
BRANCH  22  23
ATOM     23  N   UNL     1      -4.280  -0.597  24.389  0.00  0.00    -0.205 NA
ATOM     24  C   UNL     1      -4.093  -1.238  24.875  0.00  0.00    +0.242 C 
ATOM     25  O   UNL     1      -4.103  -1.151  25.695  0.00  0.00    -0.273 OA
BRANCH  24  26
ATOM     26  C   UNL     1      -3.898  -1.965  24.539  0.00  0.00    +0.099 C 
BRANCH  26  27
ATOM     27  C   UNL     1      -3.317  -2.437  24.888  0.00  0.00    +0.124 C 
BRANCH  27  28
ATOM     28  C   UNL     1      -2.931  -3.013  24.440  0.00  0.00    +0.365 C 
ATOM     29  O   UNL     1      -2.123  -2.942  24.285  0.00  0.00    -0.246 OA
ATOM     30  O   UNL     1      -3.352  -3.660  24.148  0.00  0.00    -0.246 OA
ENDBRANCH  27  28
ENDBRANCH  26  27
ENDBRANCH  24  26
ENDBRANCH  22  23
ENDBRANCH  21  22
TORSDOF 8
ENDMDL
