MODEL 1
REMARK VINA RESULT:     -13.5      0.000      0.000
REMARK  Name = 
REMARK  3 active torsions:
REMARK  status: ('A' for Active; 'I' for Inactive)
REMARK    1  A    between atoms: C_5  and  S_8
REMARK    2  A    between atoms: S_8  and  N_11
REMARK    3  A    between atoms: N_11  and  C_12
REMARK                            x       y       z     vdW  Elec       q    Type
REMARK                         _______ _______ _______ _____ _____    ______ ____
ROOT
ATOM     12  C   UNL     1      -3.868   1.379  24.391  0.00  0.00    +0.147 A 
ATOM     13  C   UNL     1      -4.618   1.143  24.640  0.00  0.00    +0.024 A 
ATOM     14  C   UNL     1      -5.119   1.684  25.010  0.00  0.00    +0.014 A 
ATOM     15  C   UNL     1      -4.869   2.462  25.130  0.00  0.00    +0.041 A 
ATOM     16  C   UNL     1      -5.651   2.813  25.563  0.00  0.00    +0.056 C 
ATOM     17  C   UNL     1      -5.245   3.709  25.651  0.00  0.00    +0.094 C 
ATOM     18  N   UNL     1      -4.503   3.562  25.295  0.00  0.00    -0.218 NA
ATOM     19  C   UNL     1      -5.099   3.199  25.441  0.00  0.00    +0.091 C 
ATOM     20  C   UNL     1      -5.478   2.328  25.348  0.00  0.00    +0.041 C 
ATOM     21  C   UNL     1      -6.120   2.146  25.567  0.00  0.00    +0.011 C 
ATOM     22  C   UNL     1      -4.734   1.984  24.933  0.00  0.00    +0.110 C 
ATOM     23  N   UNL     1      -4.119   2.698  24.881  0.00  0.00    -0.298 N 
ATOM     24  C   UNL     1      -3.618   2.156  24.511  0.00  0.00    +0.277 A 
ATOM     25  O   UNL     1      -2.868   2.391  24.262  0.00  0.00    -0.266 OA
ENDROOT
BRANCH  12  11
ATOM     11  N   UNL     1      -3.366   0.837  24.022  0.00  0.00    -0.092 NA
BRANCH  11   8
ATOM      8  S   UNL     1      -3.401   0.039  24.224  0.00  0.00    +0.093 S 
ATOM      9  O   UNL     1      -2.887   0.176  24.854  0.00  0.00    -0.148 OA
ATOM     10  O   UNL     1      -3.915  -0.098  23.593  0.00  0.00    -0.148 OA
BRANCH   8   5
ATOM      1 CL   UNL     1      -3.538  -3.158  25.034  0.00  0.00    -0.082 Cl
ATOM      2  C   UNL     1      -3.504  -2.358  24.831  0.00  0.00    +0.058 A 
ATOM      3  C   UNL     1      -3.064  -1.835  25.292  0.00  0.00    +0.013 A 
ATOM      4  C   UNL     1      -3.030  -1.036  25.090  0.00  0.00    +0.021 A 
ATOM      5  C   UNL     1      -3.435  -0.760  24.426  0.00  0.00    +0.127 A 
ATOM      6  C   UNL     1      -3.875  -1.284  23.965  0.00  0.00    +0.021 A 
ATOM      7  C   UNL     1      -3.909  -2.083  24.168  0.00  0.00    +0.013 A 
ENDBRANCH   8   5
ENDBRANCH  11   8
ENDBRANCH  12  11
TORSDOF 3
ENDMDL
MODEL 2
REMARK VINA RESULT:     -12.9      1.422      2.090
REMARK  Name = 
REMARK  3 active torsions:
REMARK  status: ('A' for Active; 'I' for Inactive)
REMARK    1  A    between atoms: C_5  and  S_8
REMARK    2  A    between atoms: S_8  and  N_11
REMARK    3  A    between atoms: N_11  and  C_12
REMARK                            x       y       z     vdW  Elec       q    Type
REMARK                         _______ _______ _______ _____ _____    ______ ____
ROOT
ATOM     12  C   UNL     1      -3.818   1.896  24.759  0.00  0.00    +0.147 A 
ATOM     13  C   UNL     1      -3.007   1.792  24.648  0.00  0.00    +0.024 A 
ATOM     14  C   UNL     1      -2.479   2.374  24.898  0.00  0.00    +0.014 A 
ATOM     15  C   UNL     1      -2.762   3.060  25.260  0.00  0.00    +0.041 A 
ATOM     16  C   UNL     1      -1.928   3.508  25.421  0.00  0.00    +0.056 C 
ATOM     17  C   UNL     1      -2.383   4.281  25.838  0.00  0.00    +0.094 C 
ATOM     18  N   UNL     1      -3.176   4.029  25.771  0.00  0.00    -0.218 NA
ATOM     19  C   UNL     1      -2.530   3.783  25.602  0.00  0.00    +0.091 C 
ATOM     20  C   UNL     1      -2.105   3.030  25.196  0.00  0.00    +0.041 C 
ATOM     21  C   UNL     1      -1.412   2.960  25.111  0.00  0.00    +0.011 C 
ATOM     22  C   UNL     1      -2.899   2.594  25.038  0.00  0.00    +0.110 C 
ATOM     23  N   UNL     1      -3.573   3.164  25.371  0.00  0.00    -0.298 N 
ATOM     24  C   UNL     1      -4.101   2.581  25.120  0.00  0.00    +0.277 A 
ATOM     25  O   UNL     1      -4.912   2.685  25.231  0.00  0.00    -0.266 OA
ENDROOT
BRANCH  12  11
ATOM     11  N   UNL     1      -4.347   1.313  24.509  0.00  0.00    -0.092 NA
BRANCH  11   8
ATOM      8  S   UNL     1      -4.160   0.516  24.608  0.00  0.00    +0.093 S 
ATOM      9  O   UNL     1      -4.489   0.533  25.364  0.00  0.00    -0.148 OA
ATOM     10  O   UNL     1      -3.830   0.500  23.852  0.00  0.00    -0.148 OA
BRANCH   8   5
ATOM      1 CL   UNL     1      -3.412  -2.674  25.006  0.00  0.00    -0.082 Cl
ATOM      2  C   UNL     1      -3.599  -1.876  24.907  0.00  0.00    +0.058 A 
ATOM      3  C   UNL     1      -3.797  -1.588  24.159  0.00  0.00    +0.013 A 
ATOM      4  C   UNL     1      -3.984  -0.791  24.060  0.00  0.00    +0.021 A 
ATOM      5  C   UNL     1      -3.973  -0.281  24.708  0.00  0.00    +0.127 A 
ATOM      6  C   UNL     1      -3.775  -0.568  25.455  0.00  0.00    +0.021 A 
ATOM      7  C   UNL     1      -3.589  -1.366  25.554  0.00  0.00    +0.013 A 
ENDBRANCH   8   5
ENDBRANCH  11   8
ENDBRANCH  12  11
TORSDOF 3
ENDMDL
MODEL 3
REMARK VINA RESULT:     -12.7      1.802      4.257
REMARK  Name = 
REMARK  3 active torsions:
REMARK  status: ('A' for Active; 'I' for Inactive)
REMARK    1  A    between atoms: C_5  and  S_8
REMARK    2  A    between atoms: S_8  and  N_11
REMARK    3  A    between atoms: N_11  and  C_12
REMARK                            x       y       z     vdW  Elec       q    Type
REMARK                         _______ _______ _______ _____ _____    ______ ____
ROOT
ATOM     12  C   UNL     1      -3.082   0.051  24.310  0.00  0.00    +0.147 A 
ATOM     13  C   UNL     1      -3.785  -0.223  23.977  0.00  0.00    +0.024 A 
ATOM     14  C   UNL     1      -3.963  -1.029  23.994  0.00  0.00    +0.014 A 
ATOM     15  C   UNL     1      -3.437  -1.560  24.344  0.00  0.00    +0.041 A 
ATOM     16  C   UNL     1      -3.921  -2.377  24.202  0.00  0.00    +0.056 C 
ATOM     17  C   UNL     1      -3.219  -2.912  24.645  0.00  0.00    +0.094 C 
ATOM     18  N   UNL     1      -2.683  -2.303  24.843  0.00  0.00    -0.218 NA
ATOM     19  C   UNL     1      -3.314  -2.364  24.519  0.00  0.00    +0.091 C 
ATOM     20  C   UNL     1      -3.984  -1.833  24.094  0.00  0.00    +0.041 C 
ATOM     21  C   UNL     1      -4.577  -2.085  23.816  0.00  0.00    +0.011 C 
ATOM     22  C   UNL     1      -3.527  -1.047  24.226  0.00  0.00    +0.110 C 
ATOM     23  N   UNL     1      -2.734  -1.286  24.677  0.00  0.00    -0.298 N 
ATOM     24  C   UNL     1      -2.556  -0.480  24.659  0.00  0.00    +0.277 A 
ATOM     25  O   UNL     1      -1.853  -0.206  24.992  0.00  0.00    -0.266 OA
ENDROOT
BRANCH  12  11
ATOM     11  N   UNL     1      -2.904   0.857  24.293  0.00  0.00    -0.092 NA
BRANCH  11   8
ATOM      8  S   UNL     1      -3.464   1.408  24.540  0.00  0.00    +0.093 S 
ATOM      9  O   UNL     1      -3.219   1.308  25.321  0.00  0.00    -0.148 OA
ATOM     10  O   UNL     1      -3.710   1.509  23.759  0.00  0.00    -0.148 OA
BRANCH   8   5
ATOM      1 CL   UNL     1      -5.708   3.618  25.530  0.00  0.00    -0.082 Cl
ATOM      2  C   UNL     1      -5.147   3.065  25.283  0.00  0.00    +0.058 A 
ATOM      3  C   UNL     1      -4.519   3.301  24.803  0.00  0.00    +0.013 A 
ATOM      4  C   UNL     1      -3.958   2.749  24.555  0.00  0.00    +0.021 A 
ATOM      5  C   UNL     1      -4.025   1.960  24.788  0.00  0.00    +0.127 A 
ATOM      6  C   UNL     1      -4.653   1.724  25.267  0.00  0.00    +0.021 A 
ATOM      7  C   UNL     1      -5.214   2.277  25.515  0.00  0.00    +0.013 A 
ENDBRANCH   8   5
ENDBRANCH  11   8
ENDBRANCH  12  11
TORSDOF 3
ENDMDL
MODEL 4
REMARK VINA RESULT:     -12.2      3.417      4.705
REMARK  Name = 
REMARK  3 active torsions:
REMARK  status: ('A' for Active; 'I' for Inactive)
REMARK    1  A    between atoms: C_5  and  S_8
REMARK    2  A    between atoms: S_8  and  N_11
REMARK    3  A    between atoms: N_11  and  C_12
REMARK                            x       y       z     vdW  Elec       q    Type
REMARK                         _______ _______ _______ _____ _____    ______ ____
ROOT
ATOM     12  C   UNL     1      -1.254  -0.330  25.069  0.00  0.00    +0.147 A 
ATOM     13  C   UNL     1      -1.932  -0.145  25.501  0.00  0.00    +0.024 A 
ATOM     14  C   UNL     1      -2.579  -0.657  25.493  0.00  0.00    +0.014 A 
ATOM     15  C   UNL     1      -2.548  -1.355  25.053  0.00  0.00    +0.041 A 
ATOM     16  C   UNL     1      -3.420  -1.704  25.251  0.00  0.00    +0.056 C 
ATOM     17  C   UNL     1      -3.265  -2.504  24.691  0.00  0.00    +0.094 C 
ATOM     18  N   UNL     1      -2.490  -2.342  24.426  0.00  0.00    -0.218 NA
ATOM     19  C   UNL     1      -2.979  -2.035  24.842  0.00  0.00    +0.091 C 
ATOM     20  C   UNL     1      -3.114  -1.257  25.379  0.00  0.00    +0.041 C 
ATOM     21  C   UNL     1      -3.699  -1.116  25.740  0.00  0.00    +0.011 C 
ATOM     22  C   UNL     1      -2.280  -0.915  25.196  0.00  0.00    +0.110 C 
ATOM     23  N   UNL     1      -1.870  -1.540  24.622  0.00  0.00    -0.298 N 
ATOM     24  C   UNL     1      -1.223  -1.028  24.630  0.00  0.00    +0.277 A 
ATOM     25  O   UNL     1      -0.545  -1.213  24.198  0.00  0.00    -0.266 OA
ENDROOT
BRANCH  12  11
ATOM     11  N   UNL     1      -0.607   0.182  25.077  0.00  0.00    -0.092 NA
BRANCH  11   8
ATOM      8  S   UNL     1      -0.727   0.997  25.102  0.00  0.00    +0.093 S 
ATOM      9  O   UNL     1      -0.785   1.014  24.280  0.00  0.00    -0.148 OA
ATOM     10  O   UNL     1      -0.668   0.980  25.925  0.00  0.00    -0.148 OA
BRANCH   8   5
ATOM      1 CL   UNL     1      -1.205   4.261  25.204  0.00  0.00    -0.082 Cl
ATOM      2  C   UNL     1      -1.086   3.445  25.178  0.00  0.00    +0.058 A 
ATOM      3  C   UNL     1      -0.848   3.042  25.857  0.00  0.00    +0.013 A 
ATOM      4  C   UNL     1      -0.728   2.226  25.832  0.00  0.00    +0.021 A 
ATOM      5  C   UNL     1      -0.847   1.813  25.127  0.00  0.00    +0.127 A 
ATOM      6  C   UNL     1      -1.085   2.216  24.448  0.00  0.00    +0.021 A 
ATOM      7  C   UNL     1      -1.204   3.032  24.474  0.00  0.00    +0.013 A 
ENDBRANCH   8   5
ENDBRANCH  11   8
ENDBRANCH  12  11
TORSDOF 3
ENDMDL
