REMARK  Name = 
REMARK  8 active torsions:
REMARK  status: ('A' for Active; 'I' for Inactive)
REMARK    1  A    between atoms: O_2  and  C_3
REMARK    2  A    between atoms: C_6  and  C_9
REMARK    3  A    between atoms: C_12  and  C_13
REMARK    4  A    between atoms: C_13  and  C_14
REMARK    5  A    between atoms: C_16  and  C_17
REMARK    6  A    between atoms: C_20  and  C_21
REMARK    7  A    between atoms: C_21  and  N_22
REMARK    8  A    between atoms: N_25  and  C_28
REMARK                            x       y       z     vdW  Elec       q    Type
REMARK                         _______ _______ _______ _____ _____    ______ ____
ROOT
ATOM     14  C   UNL     1       3.177  -5.748   0.000  0.00  0.00    +0.027 C 
ATOM     15  C   UNL     1       2.692  -6.415   0.000  0.00  0.00    +0.005 C 
ATOM     16  C   UNL     1       1.871  -6.329   0.000  0.00  0.00    +0.006 C 
ATOM     20  C   UNL     1       1.536  -5.576   0.000  0.00  0.00    +0.037 C 
ATOM     34  C   UNL     1       2.021  -4.908   0.000  0.00  0.00    -0.034 C 
ATOM     35  C   UNL     1       2.841  -4.994   0.000  0.00  0.00    -0.048 C 
ATOM     36  C   UNL     1       3.326  -4.327   0.000  0.00  0.00    +0.026 C 
ENDROOT
BRANCH  16  17
ATOM     17  C   UNL     1       1.386  -6.997   0.000  0.00  0.00    +0.000 C 
ATOM     18  C   UNL     1       0.566  -6.910   0.000  0.00  0.00    +0.000 C 
ATOM     19  C   UNL     1       1.722  -7.750   0.000  0.00  0.00    +0.000 C 
ENDBRANCH  16  17
BRANCH  14  13
ATOM     13  C   UNL     1       3.997  -5.834   0.000  0.00  0.00    +0.091 C 
BRANCH  13  12
ATOM      9  C   UNL     1       4.895  -3.897   0.000  0.00  0.00    +0.250 A 
ATOM     10  N   UNL     1       5.562  -4.382   0.000  0.00  0.00    -0.107 NA
ATOM     11  N   UNL     1       5.307  -5.167   0.000  0.00  0.00    -0.111 NA
ATOM     12  C   UNL     1       4.482  -5.167   0.000  0.00  0.00    +0.227 A 
ATOM     37  O   UNL     1       4.227  -4.382   0.000  0.00  0.00    -0.420 OA
BRANCH   9   6
ATOM      3  C   UNL     1       4.895  -1.422   0.000  0.00  0.00    +0.139 A 
ATOM      4  C   UNL     1       5.609  -1.835   0.000  0.00  0.00    +0.037 A 
ATOM      5  C   UNL     1       5.609  -2.660   0.000  0.00  0.00    +0.008 A 
ATOM      6  C   UNL     1       4.895  -3.072   0.000  0.00  0.00    +0.055 A 
ATOM      7  C   UNL     1       4.180  -2.660   0.000  0.00  0.00    +0.008 A 
ATOM      8  C   UNL     1       4.180  -1.835   0.000  0.00  0.00    +0.037 A 
BRANCH   3   2
ATOM      1  C   UNL     1       4.180  -0.185   0.000  0.00  0.00    +0.252 C 
ATOM      2  O   UNL     1       4.895  -0.597   0.000  0.00  0.00    -0.471 OA
ENDBRANCH   3   2
ENDBRANCH   9   6
ENDBRANCH  13  12
ENDBRANCH  14  13
BRANCH  20  21
ATOM     21  C   UNL     1       0.715  -5.489   0.000  0.00  0.00    +0.076 C 
BRANCH  21  22
ATOM     22  N   UNL     1       0.380  -4.736   0.000  0.00  0.00    -0.269 NA
ATOM     23  C   UNL     1      -0.441  -4.649   0.000  0.00  0.00    +0.094 C 
ATOM     24  C   UNL     1      -0.776  -3.896   0.000  0.00  0.00    +0.110 C 
ATOM     25  N   UNL     1      -0.291  -3.228   0.000  0.00  0.00    -0.289 N 
ATOM     26  C   UNL     1       0.529  -3.315   0.000  0.00  0.00    +0.110 C 
ATOM     27  C   UNL     1       0.865  -4.068   0.000  0.00  0.00    +0.094 C 
BRANCH  25  28
ATOM     28  C   UNL     1      -0.627  -2.475   0.000  0.00  0.00    +0.151 A 
ATOM     29  C   UNL     1      -1.448  -2.388   0.000  0.00  0.00    +0.133 A 
ATOM     30  N   UNL     1      -1.783  -1.635   0.000  0.00  0.00    -0.238 NA
ATOM     31  C   UNL     1      -1.298  -0.967   0.000  0.00  0.00    +0.120 A 
ATOM     32  C   UNL     1      -0.478  -1.054   0.000  0.00  0.00    +0.121 A 
ATOM     33  N   UNL     1      -0.142  -1.807   0.000  0.00  0.00    -0.226 NA
ENDBRANCH  25  28
ENDBRANCH  21  22
ENDBRANCH  20  21
TORSDOF 8
