MODEL 1
REMARK VINA RESULT:     -10.2      0.000      0.000
REMARK  Name = 
REMARK  8 active torsions:
REMARK  status: ('A' for Active; 'I' for Inactive)
REMARK    1  A    between atoms: O_2  and  C_3
REMARK    2  A    between atoms: C_6  and  N_7
REMARK    3  A    between atoms: N_10  and  C_11
REMARK    4  A    between atoms: C_13  and  C_19
REMARK    5  A    between atoms: N_21  and  C_22
REMARK    6  A    between atoms: C_22  and  C_23
REMARK    7  A    between atoms: C_22  and  C_33
REMARK    8  A    between atoms: C_23  and  C_24
REMARK                            x       y       z     vdW  Elec       q    Type
REMARK                         _______ _______ _______ _____ _____    ______ ____
ROOT
ATOM     11  C   UNL     1      -0.895   0.749  25.173  0.00  0.00    +0.119 C 
ATOM     12  C   UNL     1      -1.484   1.326  25.173  0.00  0.00    +0.053 C 
ATOM     13  C   UNL     1      -1.173   2.008  24.827  0.00  0.00    +0.155 C 
ATOM     14  N   UNL     1      -0.391   1.852  24.614  0.00  0.00    -0.271 N 
ATOM     15  C   UNL     1      -0.219   1.074  24.827  0.00  0.00    +0.115 C 
ATOM     16  C   UNL     1       0.127   2.381  24.250  0.00  0.00    +0.226 C 
ATOM     17  C   UNL     1       0.897   2.145  24.069  0.00  0.00    +0.095 C 
ATOM     18  O   UNL     1      -0.124   3.145  24.069  0.00  0.00    -0.275 OA
ENDROOT
BRANCH  11  10
ATOM      7  N   UNL     1      -1.619  -1.291  25.459  0.00  0.00    -0.161 NA
ATOM      8  C   UNL     1      -1.546  -0.523  25.165  0.00  0.00    +0.343 C 
ATOM      9  O   UNL     1      -2.052  -0.261  24.569  0.00  0.00    -0.249 OA
ATOM     10  N   UNL     1      -0.967  -0.019  25.467  0.00  0.00    -0.187 NA
BRANCH   7   6
ATOM      3  C   UNL     1      -3.356  -2.804  24.553  0.00  0.00    +0.139 A 
ATOM      4  C   UNL     1      -2.585  -2.837  24.260  0.00  0.00    +0.038 A 
ATOM      5  C   UNL     1      -2.006  -2.332  24.562  0.00  0.00    +0.020 A 
ATOM      6  C   UNL     1      -2.198  -1.795  25.157  0.00  0.00    +0.075 A 
ATOM     36  C   UNL     1      -2.968  -1.762  25.451  0.00  0.00    +0.020 A 
ATOM     37  C   UNL     1      -3.548  -2.266  25.149  0.00  0.00    +0.038 A 
BRANCH   3   2
ATOM      1  C   UNL     1      -4.427  -3.052  23.640  0.00  0.00    +0.252 C 
ATOM      2  O   UNL     1      -3.935  -3.308  24.251  0.00  0.00    -0.471 OA
ENDBRANCH   3   2
ENDBRANCH   7   6
ENDBRANCH  11  10
BRANCH  13  19
ATOM     19  C   UNL     1      -1.573   2.720  24.715  0.00  0.00    +0.260 C 
ATOM     20  O   UNL     1      -1.473   3.143  24.014  0.00  0.00    -0.272 OA
ATOM     21  N   UNL     1      -2.074   3.009  25.303  0.00  0.00    -0.196 NA
BRANCH  21  22
ATOM     22  C   UNL     1      -2.474   3.721  25.191  0.00  0.00    +0.179 C 
BRANCH  22  33
ATOM     33  C   UNL     1      -2.124   4.432  25.422  0.00  0.00    +0.281 C 
ATOM     34  N   UNL     1      -2.101   5.069  24.898  0.00  0.00    -0.086 NA
ATOM     35  O   UNL     1      -1.797   4.506  26.175  0.00  0.00    -0.270 OA
ENDBRANCH  22  33
BRANCH  22  23
ATOM     23  C   UNL     1      -3.225   3.724  24.848  0.00  0.00    +0.059 C 
BRANCH  23  24
ATOM     24  C   UNL     1      -3.889   3.559  25.308  0.00  0.00    +0.001 A 
ATOM     25  C   UNL     1      -4.054   3.873  26.053  0.00  0.00    +0.095 A 
ATOM     26  N   UNL     1      -4.772   3.559  26.309  0.00  0.00    -0.244 NA
ATOM     27  C   UNL     1      -5.052   3.052  25.722  0.00  0.00    +0.081 A 
ATOM     28  C   UNL     1      -4.507   3.052  25.104  0.00  0.00    +0.015 A 
ATOM     29  C   UNL     1      -4.643   2.590  24.434  0.00  0.00    +0.001 A 
ATOM     30  C   UNL     1      -5.325   2.128  24.383  0.00  0.00    +0.000 A 
ATOM     31  C   UNL     1      -5.870   2.128  25.002  0.00  0.00    +0.002 A 
ATOM     32  C   UNL     1      -5.735   2.590  25.672  0.00  0.00    +0.019 A 
ENDBRANCH  23  24
ENDBRANCH  22  23
ENDBRANCH  21  22
ENDBRANCH  13  19
TORSDOF 8
ENDMDL
MODEL 2
REMARK VINA RESULT:     -10.2      2.441      4.417
REMARK  Name = 
REMARK  8 active torsions:
REMARK  status: ('A' for Active; 'I' for Inactive)
REMARK    1  A    between atoms: O_2  and  C_3
REMARK    2  A    between atoms: C_6  and  N_7
REMARK    3  A    between atoms: N_10  and  C_11
REMARK    4  A    between atoms: C_13  and  C_19
REMARK    5  A    between atoms: N_21  and  C_22
REMARK    6  A    between atoms: C_22  and  C_23
REMARK    7  A    between atoms: C_22  and  C_33
REMARK    8  A    between atoms: C_23  and  C_24
REMARK                            x       y       z     vdW  Elec       q    Type
REMARK                         _______ _______ _______ _____ _____    ______ ____
ROOT
ATOM     11  C   UNL     1       0.197   0.116  23.543  0.00  0.00    +0.119 C 
ATOM     12  C   UNL     1      -0.069   0.826  23.868  0.00  0.00    +0.053 C 
ATOM     13  C   UNL     1      -0.617   0.646  24.459  0.00  0.00    +0.155 C 
ATOM     14  N   UNL     1      -0.689  -0.176  24.498  0.00  0.00    -0.271 N 
ATOM     15  C   UNL     1      -0.186  -0.503  23.932  0.00  0.00    +0.115 C 
ATOM     16  C   UNL     1      -1.178  -0.595  25.013  0.00  0.00    +0.226 C 
ATOM     17  C   UNL     1      -1.191  -1.420  24.988  0.00  0.00    +0.095 C 
ATOM     18  O   UNL     1      -1.653  -0.191  25.552  0.00  0.00    -0.275 OA
ENDROOT
BRANCH  11  10
ATOM      7  N   UNL     1       2.107   0.054  22.485  0.00  0.00    -0.161 NA
ATOM      8  C   UNL     1       1.554   0.131  23.094  0.00  0.00    +0.343 C 
ATOM      9  O   UNL     1       1.807   0.300  23.861  0.00  0.00    -0.249 OA
ATOM     10  N   UNL     1       0.750   0.039  22.935  0.00  0.00    -0.187 NA
BRANCH   7   6
ATOM      3  C   UNL     1       4.520   0.329  22.963  0.00  0.00    +0.139 A 
ATOM      4  C   UNL     1       4.082   0.963  22.666  0.00  0.00    +0.038 A 
ATOM      5  C   UNL     1       3.277   0.871  22.507  0.00  0.00    +0.020 A 
ATOM      6  C   UNL     1       2.911   0.146  22.645  0.00  0.00    +0.075 A 
ATOM     36  C   UNL     1       3.347  -0.488  22.942  0.00  0.00    +0.020 A 
ATOM     37  C   UNL     1       4.152  -0.397  23.101  0.00  0.00    +0.038 A 
BRANCH   3   2
ATOM      1  C   UNL     1       5.647   0.102  23.811  0.00  0.00    +0.252 C 
ATOM      2  O   UNL     1       5.324   0.422  23.122  0.00  0.00    -0.471 OA
ENDBRANCH   3   2
ENDBRANCH   7   6
ENDBRANCH  11  10
BRANCH  13  19
ATOM     19  C   UNL     1      -1.021   1.191  24.927  0.00  0.00    +0.260 C 
ATOM     20  O   UNL     1      -0.999   1.124  25.749  0.00  0.00    -0.272 OA
ATOM     21  N   UNL     1      -1.448   1.802  24.575  0.00  0.00    -0.196 NA
BRANCH  21  22
ATOM     22  C   UNL     1      -1.852   2.347  25.043  0.00  0.00    +0.179 C 
BRANCH  22  33
ATOM     33  C   UNL     1      -1.478   3.044  25.280  0.00  0.00    +0.281 C 
ATOM     34  N   UNL     1      -1.464   3.253  26.079  0.00  0.00    -0.086 NA
ATOM     35  O   UNL     1      -1.119   3.531  24.720  0.00  0.00    -0.270 OA
ENDBRANCH  22  33
BRANCH  22  23
ATOM     23  C   UNL     1      -2.629   2.196  25.275  0.00  0.00    +0.059 C 
BRANCH  23  24
ATOM     24  C   UNL     1      -3.254   2.384  24.772  0.00  0.00    +0.001 A 
ATOM     25  C   UNL     1      -3.196   2.796  24.059  0.00  0.00    +0.095 A 
ATOM     26  N   UNL     1      -3.953   2.859  23.739  0.00  0.00    -0.244 NA
ATOM     27  C   UNL     1      -4.479   2.488  24.253  0.00  0.00    +0.081 A 
ATOM     28  C   UNL     1      -4.047   2.194  24.892  0.00  0.00    +0.015 A 
ATOM     29  C   UNL     1      -4.433   1.791  25.500  0.00  0.00    +0.001 A 
ATOM     30  C   UNL     1      -5.250   1.682  25.470  0.00  0.00    +0.000 A 
ATOM     31  C   UNL     1      -5.682   1.975  24.831  0.00  0.00    +0.002 A 
ATOM     32  C   UNL     1      -5.297   2.378  24.223  0.00  0.00    +0.019 A 
ENDBRANCH  23  24
ENDBRANCH  22  23
ENDBRANCH  21  22
ENDBRANCH  13  19
TORSDOF 8
ENDMDL
MODEL 3
REMARK VINA RESULT:      -9.4      2.509      5.012
REMARK  Name = 
REMARK  8 active torsions:
REMARK  status: ('A' for Active; 'I' for Inactive)
REMARK    1  A    between atoms: O_2  and  C_3
REMARK    2  A    between atoms: C_6  and  N_7
REMARK    3  A    between atoms: N_10  and  C_11
REMARK    4  A    between atoms: C_13  and  C_19
REMARK    5  A    between atoms: N_21  and  C_22
REMARK    6  A    between atoms: C_22  and  C_23
REMARK    7  A    between atoms: C_22  and  C_33
REMARK    8  A    between atoms: C_23  and  C_24
REMARK                            x       y       z     vdW  Elec       q    Type
REMARK                         _______ _______ _______ _____ _____    ______ ____
ROOT
ATOM     11  C   UNL     1       0.156   0.844  23.562  0.00  0.00    +0.119 C 
ATOM     12  C   UNL     1      -0.588   0.552  23.768  0.00  0.00    +0.053 C 
ATOM     13  C   UNL     1      -0.920   1.067  24.321  0.00  0.00    +0.155 C 
ATOM     14  N   UNL     1      -0.381   1.677  24.457  0.00  0.00    -0.271 N 
ATOM     15  C   UNL     1       0.284   1.539  23.988  0.00  0.00    +0.115 C 
ATOM     16  C   UNL     1      -0.489   2.313  24.971  0.00  0.00    +0.226 C 
ATOM     17  C   UNL     1       0.102   2.883  25.051  0.00  0.00    +0.095 C 
ATOM     18  O   UNL     1      -1.186   2.378  25.406  0.00  0.00    -0.275 OA
ENDROOT
BRANCH  11  10
ATOM      7  N   UNL     1       2.017   0.189  22.627  0.00  0.00    -0.161 NA
ATOM      8  C   UNL     1       1.492   0.532  23.165  0.00  0.00    +0.343 C 
ATOM      9  O   UNL     1       1.781   0.906  23.840  0.00  0.00    -0.249 OA
ATOM     10  N   UNL     1       0.680   0.501  23.025  0.00  0.00    -0.187 NA
BRANCH   7   6
ATOM      3  C   UNL     1       4.455   0.284  23.045  0.00  0.00    +0.139 A 
ATOM      4  C   UNL     1       4.027  -0.394  23.243  0.00  0.00    +0.038 A 
ATOM      5  C   UNL     1       3.215  -0.426  23.104  0.00  0.00    +0.020 A 
ATOM      6  C   UNL     1       2.829   0.220  22.767  0.00  0.00    +0.075 A 
ATOM     36  C   UNL     1       3.256   0.898  22.568  0.00  0.00    +0.020 A 
ATOM     37  C   UNL     1       4.069   0.930  22.707  0.00  0.00    +0.038 A 
BRANCH   3   2
ATOM      1  C   UNL     1       5.570   0.073  23.912  0.00  0.00    +0.252 C 
ATOM      2  O   UNL     1       5.267   0.315  23.184  0.00  0.00    -0.471 OA
ENDBRANCH   3   2
ENDBRANCH   7   6
ENDBRANCH  11  10
BRANCH  13  19
ATOM     19  C   UNL     1      -1.661   0.986  24.674  0.00  0.00    +0.260 C 
ATOM     20  O   UNL     1      -1.740   1.078  25.490  0.00  0.00    -0.272 OA
ATOM     21  N   UNL     1      -2.322   0.813  24.213  0.00  0.00    -0.196 NA
BRANCH  21  22
ATOM     22  C   UNL     1      -3.063   0.732  24.567  0.00  0.00    +0.179 C 
BRANCH  22  33
ATOM     33  C   UNL     1      -3.597   1.361  24.552  0.00  0.00    +0.281 C 
ATOM     34  N   UNL     1      -4.005   1.571  25.238  0.00  0.00    -0.086 NA
ATOM     35  O   UNL     1      -3.724   1.779  23.853  0.00  0.00    -0.270 OA
ENDBRANCH  22  33
BRANCH  22  23
ATOM     23  C   UNL     1      -3.269   0.024  24.936  0.00  0.00    +0.059 C 
BRANCH  23  24
ATOM     24  C   UNL     1      -3.578  -0.598  24.492  0.00  0.00    +0.001 A 
ATOM     25  C   UNL     1      -3.981  -0.529  23.774  0.00  0.00    +0.095 A 
ATOM     26  N   UNL     1      -4.190  -1.287  23.526  0.00  0.00    -0.244 NA
ATOM     27  C   UNL     1      -3.918  -1.824  24.088  0.00  0.00    +0.081 A 
ATOM     28  C   UNL     1      -3.540  -1.399  24.685  0.00  0.00    +0.015 A 
ATOM     29  C   UNL     1      -3.209  -1.796  25.328  0.00  0.00    +0.001 A 
ATOM     30  C   UNL     1      -3.256  -2.618  25.375  0.00  0.00    +0.000 A 
ATOM     31  C   UNL     1      -3.634  -3.043  24.778  0.00  0.00    +0.002 A 
ATOM     32  C   UNL     1      -3.966  -2.647  24.135  0.00  0.00    +0.019 A 
ENDBRANCH  23  24
ENDBRANCH  22  23
ENDBRANCH  21  22
ENDBRANCH  13  19
TORSDOF 8
ENDMDL
MODEL 4
REMARK VINA RESULT:      -9.3      1.348      3.570
REMARK  Name = 
REMARK  8 active torsions:
REMARK  status: ('A' for Active; 'I' for Inactive)
REMARK    1  A    between atoms: O_2  and  C_3
REMARK    2  A    between atoms: C_6  and  N_7
REMARK    3  A    between atoms: N_10  and  C_11
REMARK    4  A    between atoms: C_13  and  C_19
REMARK    5  A    between atoms: N_21  and  C_22
REMARK    6  A    between atoms: C_22  and  C_23
REMARK    7  A    between atoms: C_22  and  C_33
REMARK    8  A    between atoms: C_23  and  C_24
REMARK                            x       y       z     vdW  Elec       q    Type
REMARK                         _______ _______ _______ _____ _____    ______ ____
ROOT
ATOM     11  C   UNL     1      -4.802   1.646  25.070  0.00  0.00    +0.119 C 
ATOM     12  C   UNL     1      -4.044   1.938  24.925  0.00  0.00    +0.053 C 
ATOM     13  C   UNL     1      -4.070   2.760  24.996  0.00  0.00    +0.155 C 
ATOM     14  N   UNL     1      -4.844   2.975  25.186  0.00  0.00    -0.271 N 
ATOM     15  C   UNL     1      -5.296   2.287  25.231  0.00  0.00    +0.115 C 
ATOM     16  C   UNL     1      -5.117   3.744  25.308  0.00  0.00    +0.226 C 
ATOM     17  C   UNL     1      -5.910   3.875  25.494  0.00  0.00    +0.095 C 
ATOM     18  O   UNL     1      -4.598   4.381  25.243  0.00  0.00    -0.275 OA
ENDROOT
BRANCH  11  10
ATOM      7  N   UNL     1      -4.682  -0.530  24.930  0.00  0.00    -0.161 NA
ATOM      8  C   UNL     1      -4.458   0.264  24.943  0.00  0.00    +0.343 C 
ATOM      9  O   UNL     1      -3.665   0.470  24.844  0.00  0.00    -0.249 OA
ATOM     10  N   UNL     1      -5.026   0.852  25.057  0.00  0.00    -0.187 NA
BRANCH   7   6
ATOM      3  C   UNL     1      -2.977  -2.292  24.591  0.00  0.00    +0.139 A 
ATOM      4  C   UNL     1      -3.472  -2.070  23.969  0.00  0.00    +0.038 A 
ATOM      5  C   UNL     1      -4.041  -1.483  24.082  0.00  0.00    +0.020 A 
ATOM      6  C   UNL     1      -4.114  -1.117  24.817  0.00  0.00    +0.075 A 
ATOM     36  C   UNL     1      -3.619  -1.337  25.439  0.00  0.00    +0.020 A 
ATOM     37  C   UNL     1      -3.050  -1.925  25.327  0.00  0.00    +0.038 A 
BRANCH   3   2
ATOM      1  C   UNL     1      -1.622  -2.670  24.341  0.00  0.00    +0.252 C 
ATOM      2  O   UNL     1      -2.408  -2.879  24.478  0.00  0.00    -0.471 OA
ENDBRANCH   3   2
ENDBRANCH   7   6
ENDBRANCH  11  10
BRANCH  13  19
ATOM     19  C   UNL     1      -3.434   3.275  24.896  0.00  0.00    +0.260 C 
ATOM     20  O   UNL     1      -3.472   3.870  24.326  0.00  0.00    -0.272 OA
ATOM     21  N   UNL     1      -2.760   3.196  25.366  0.00  0.00    -0.196 NA
BRANCH  21  22
ATOM     22  C   UNL     1      -2.125   3.711  25.266  0.00  0.00    +0.179 C 
BRANCH  22  33
ATOM     33  C   UNL     1      -2.110   4.431  25.670  0.00  0.00    +0.281 C 
ATOM     34  N   UNL     1      -1.884   5.120  25.276  0.00  0.00    -0.086 NA
ATOM     35  O   UNL     1      -2.320   4.461  26.467  0.00  0.00    -0.270 OA
ENDBRANCH  22  33
BRANCH  22  23
ATOM     23  C   UNL     1      -1.504   3.508  24.762  0.00  0.00    +0.059 C 
BRANCH  23  24
ATOM     24  C   UNL     1      -0.930   2.971  25.009  0.00  0.00    +0.001 A 
ATOM     25  C   UNL     1      -0.573   2.950  25.753  0.00  0.00    +0.095 A 
ATOM     26  N   UNL     1      -0.034   2.326  25.761  0.00  0.00    -0.244 NA
ATOM     27  C   UNL     1      -0.058   1.961  25.022  0.00  0.00    +0.081 A 
ATOM     28  C   UNL     1      -0.611   2.359  24.558  0.00  0.00    +0.015 A 
ATOM     29  C   UNL     1      -0.753   2.113  23.783  0.00  0.00    +0.001 A 
ATOM     30  C   UNL     1      -0.342   1.469  23.473  0.00  0.00    +0.000 A 
ATOM     31  C   UNL     1       0.212   1.070  23.937  0.00  0.00    +0.002 A 
ATOM     32  C   UNL     1       0.354   1.316  24.711  0.00  0.00    +0.019 A 
ENDBRANCH  23  24
ENDBRANCH  22  23
ENDBRANCH  21  22
ENDBRANCH  13  19
TORSDOF 8
ENDMDL
MODEL 5
REMARK VINA RESULT:      -9.3      1.775      5.008
REMARK  Name = 
REMARK  8 active torsions:
REMARK  status: ('A' for Active; 'I' for Inactive)
REMARK    1  A    between atoms: O_2  and  C_3
REMARK    2  A    between atoms: C_6  and  N_7
REMARK    3  A    between atoms: N_10  and  C_11
REMARK    4  A    between atoms: C_13  and  C_19
REMARK    5  A    between atoms: N_21  and  C_22
REMARK    6  A    between atoms: C_22  and  C_23
REMARK    7  A    between atoms: C_22  and  C_33
REMARK    8  A    between atoms: C_23  and  C_24
REMARK                            x       y       z     vdW  Elec       q    Type
REMARK                         _______ _______ _______ _____ _____    ______ ____
ROOT
ATOM     11  C   UNL     1      -3.634  -0.585  24.447  0.00  0.00    +0.119 C 
ATOM     12  C   UNL     1      -2.905  -0.200  24.459  0.00  0.00    +0.053 C 
ATOM     13  C   UNL     1      -2.315  -0.773  24.530  0.00  0.00    +0.155 C 
ATOM     14  N   UNL     1      -2.681  -1.512  24.561  0.00  0.00    -0.271 N 
ATOM     15  C   UNL     1      -3.496  -1.396  24.510  0.00  0.00    +0.115 C 
ATOM     16  C   UNL     1      -2.298  -2.239  24.632  0.00  0.00    +0.226 C 
ATOM     17  C   UNL     1      -2.739  -2.937  24.656  0.00  0.00    +0.095 C 
ATOM     18  O   UNL     1      -1.475  -2.270  24.678  0.00  0.00    -0.275 OA
ENDROOT
BRANCH  11  10
ATOM      7  N   UNL     1      -5.237   0.883  24.653  0.00  0.00    -0.161 NA
ATOM      8  C   UNL     1      -4.499   0.521  24.717  0.00  0.00    +0.343 C 
ATOM      9  O   UNL     1      -3.886   0.902  25.117  0.00  0.00    -0.249 OA
ATOM     10  N   UNL     1      -4.373  -0.222  24.382  0.00  0.00    -0.187 NA
BRANCH   7   6
ATOM      3  C   UNL     1      -5.613   3.114  25.658  0.00  0.00    +0.139 A 
ATOM      4  C   UNL     1      -5.921   2.439  26.022  0.00  0.00    +0.038 A 
ATOM      5  C   UNL     1      -5.795   1.696  25.687  0.00  0.00    +0.020 A 
ATOM      6  C   UNL     1      -5.363   1.627  24.988  0.00  0.00    +0.075 A 
ATOM     36  C   UNL     1      -5.055   2.300  24.624  0.00  0.00    +0.020 A 
ATOM     37  C   UNL     1      -5.180   3.044  24.959  0.00  0.00    +0.038 A 
BRANCH   3   2
ATOM      1  C   UNL     1      -5.708   4.533  25.521  0.00  0.00    +0.252 C 
ATOM      2  O   UNL     1      -5.739   3.857  25.993  0.00  0.00    -0.471 OA
ENDBRANCH   3   2
ENDBRANCH   7   6
ENDBRANCH  11  10
BRANCH  13  19
ATOM     19  C   UNL     1      -1.504  -0.631  24.563  0.00  0.00    +0.260 C 
ATOM     20  O   UNL     1      -1.028  -1.076  25.070  0.00  0.00    -0.272 OA
ATOM     21  N   UNL     1      -1.167  -0.045  24.091  0.00  0.00    -0.196 NA
BRANCH  21  22
ATOM     22  C   UNL     1      -0.355   0.097  24.124  0.00  0.00    +0.179 C 
BRANCH  22  33
ATOM     33  C   UNL     1       0.154  -0.303  23.612  0.00  0.00    +0.281 C 
ATOM     34  N   UNL     1       0.822  -0.684  23.911  0.00  0.00    -0.086 NA
ATOM     35  O   UNL     1      -0.004  -0.320  22.803  0.00  0.00    -0.270 OA
ENDBRANCH  22  33
BRANCH  22  23
ATOM     23  C   UNL     1      -0.052   0.637  24.670  0.00  0.00    +0.059 C 
BRANCH  23  24
ATOM     24  C   UNL     1      -0.149   1.446  24.547  0.00  0.00    +0.001 A 
ATOM     25  C   UNL     1      -0.169   1.827  23.815  0.00  0.00    +0.095 A 
ATOM     26  N   UNL     1      -0.276   2.633  23.950  0.00  0.00    -0.244 NA
ATOM     27  C   UNL     1      -0.322   2.751  24.765  0.00  0.00    +0.081 A 
ATOM     28  C   UNL     1      -0.244   2.017  25.134  0.00  0.00    +0.015 A 
ATOM     29  C   UNL     1      -0.269   1.965  25.957  0.00  0.00    +0.001 A 
ATOM     30  C   UNL     1      -0.373   2.646  26.411  0.00  0.00    +0.000 A 
ATOM     31  C   UNL     1      -0.451   3.380  26.042  0.00  0.00    +0.002 A 
ATOM     32  C   UNL     1      -0.426   3.433  25.219  0.00  0.00    +0.019 A 
ENDBRANCH  23  24
ENDBRANCH  22  23
ENDBRANCH  21  22
ENDBRANCH  13  19
TORSDOF 8
ENDMDL
MODEL 6
REMARK VINA RESULT:      -8.8      1.875      4.431
REMARK  Name = 
REMARK  8 active torsions:
REMARK  status: ('A' for Active; 'I' for Inactive)
REMARK    1  A    between atoms: O_2  and  C_3
REMARK    2  A    between atoms: C_6  and  N_7
REMARK    3  A    between atoms: N_10  and  C_11
REMARK    4  A    between atoms: C_13  and  C_19
REMARK    5  A    between atoms: N_21  and  C_22
REMARK    6  A    between atoms: C_22  and  C_23
REMARK    7  A    between atoms: C_22  and  C_33
REMARK    8  A    between atoms: C_23  and  C_24
REMARK                            x       y       z     vdW  Elec       q    Type
REMARK                         _______ _______ _______ _____ _____    ______ ____
ROOT
ATOM     11  C   UNL     1      -1.573   2.490  24.707  0.00  0.00    +0.119 C 
ATOM     12  C   UNL     1      -2.136   1.888  24.676  0.00  0.00    +0.053 C 
ATOM     13  C   UNL     1      -2.874   2.235  24.546  0.00  0.00    +0.155 C 
ATOM     14  N   UNL     1      -2.766   3.052  24.496  0.00  0.00    -0.271 N 
ATOM     15  C   UNL     1      -1.962   3.209  24.596  0.00  0.00    +0.115 C 
ATOM     16  C   UNL     1      -3.357   3.612  24.369  0.00  0.00    +0.226 C 
ATOM     17  C   UNL     1      -3.165   4.414  24.333  0.00  0.00    +0.095 C 
ATOM     18  O   UNL     1      -4.141   3.372  24.279  0.00  0.00    -0.275 OA
ENDROOT
BRANCH  11  10
ATOM      7  N   UNL     1       0.482   1.798  24.449  0.00  0.00    -0.161 NA
ATOM      8  C   UNL     1      -0.329   1.898  24.328  0.00  0.00    +0.343 C 
ATOM      9  O   UNL     1      -0.704   1.506  23.707  0.00  0.00    -0.249 OA
ATOM     10  N   UNL     1      -0.763   2.390  24.828  0.00  0.00    -0.187 NA
BRANCH   7   6
ATOM      3  C   UNL     1       1.784   0.322  22.948  0.00  0.00    +0.139 A 
ATOM      4  C   UNL     1       2.045   1.091  23.102  0.00  0.00    +0.038 A 
ATOM      5  C   UNL     1       1.611   1.583  23.602  0.00  0.00    +0.020 A 
ATOM      6  C   UNL     1       0.916   1.307  23.949  0.00  0.00    +0.075 A 
ATOM     36  C   UNL     1       0.654   0.539  23.797  0.00  0.00    +0.020 A 
ATOM     37  C   UNL     1       1.089   0.047  23.296  0.00  0.00    +0.038 A 
BRANCH   3   2
ATOM      1  C   UNL     1       2.991   0.033  22.240  0.00  0.00    +0.252 C 
ATOM      2  O   UNL     1       2.219  -0.169  22.448  0.00  0.00    -0.471 OA
ENDBRANCH   3   2
ENDBRANCH   7   6
ENDBRANCH  11  10
BRANCH  13  19
ATOM     19  C   UNL     1      -3.592   1.836  24.477  0.00  0.00    +0.260 C 
ATOM     20  O   UNL     1      -4.090   1.991  23.838  0.00  0.00    -0.272 OA
ATOM     21  N   UNL     1      -3.813   1.282  25.048  0.00  0.00    -0.196 NA
BRANCH  21  22
ATOM     22  C   UNL     1      -4.531   0.883  24.979  0.00  0.00    +0.179 C 
BRANCH  22  33
ATOM     33  C   UNL     1      -5.221   1.221  25.282  0.00  0.00    +0.281 C 
ATOM     34  N   UNL     1      -5.888   1.297  24.802  0.00  0.00    -0.086 NA
ATOM     35  O   UNL     1      -5.243   1.482  26.064  0.00  0.00    -0.270 OA
ENDBRANCH  22  33
BRANCH  22  23
ATOM     23  C   UNL     1      -4.561   0.147  24.607  0.00  0.00    +0.059 C 
BRANCH  23  24
ATOM     24  C   UNL     1      -4.202  -0.507  24.958  0.00  0.00    +0.001 A 
ATOM     25  C   UNL     1      -3.895  -0.540  25.723  0.00  0.00    +0.095 A 
ATOM     26  N   UNL     1      -3.590  -1.297  25.843  0.00  0.00    -0.244 NA
ATOM     27  C   UNL     1      -3.709  -1.732  25.153  0.00  0.00    +0.081 A 
ATOM     28  C   UNL     1      -4.087  -1.244  24.606  0.00  0.00    +0.015 A 
ATOM     29  C   UNL     1      -4.277  -1.534  23.857  0.00  0.00    +0.001 A 
ATOM     30  C   UNL     1      -4.089  -2.311  23.656  0.00  0.00    +0.000 A 
ATOM     31  C   UNL     1      -3.711  -2.799  24.203  0.00  0.00    +0.002 A 
ATOM     32  C   UNL     1      -3.521  -2.510  24.952  0.00  0.00    +0.019 A 
ENDBRANCH  23  24
ENDBRANCH  22  23
ENDBRANCH  21  22
ENDBRANCH  13  19
TORSDOF 8
ENDMDL
MODEL 7
REMARK VINA RESULT:      -8.6      1.594      4.739
REMARK  Name = 
REMARK  8 active torsions:
REMARK  status: ('A' for Active; 'I' for Inactive)
REMARK    1  A    between atoms: O_2  and  C_3
REMARK    2  A    between atoms: C_6  and  N_7
REMARK    3  A    between atoms: N_10  and  C_11
REMARK    4  A    between atoms: C_13  and  C_19
REMARK    5  A    between atoms: N_21  and  C_22
REMARK    6  A    between atoms: C_22  and  C_23
REMARK    7  A    between atoms: C_22  and  C_33
REMARK    8  A    between atoms: C_23  and  C_24
REMARK                            x       y       z     vdW  Elec       q    Type
REMARK                         _______ _______ _______ _____ _____    ______ ____
ROOT
ATOM     11  C   UNL     1      -2.129   2.508  24.042  0.00  0.00    +0.119 C 
ATOM     12  C   UNL     1      -1.939   1.716  24.169  0.00  0.00    +0.053 C 
ATOM     13  C   UNL     1      -1.125   1.666  24.293  0.00  0.00    +0.155 C 
ATOM     14  N   UNL     1      -0.812   2.428  24.244  0.00  0.00    -0.271 N 
ATOM     15  C   UNL     1      -1.433   2.948  24.088  0.00  0.00    +0.115 C 
ATOM     16  C   UNL     1      -0.018   2.633  24.333  0.00  0.00    +0.226 C 
ATOM     17  C   UNL     1       0.214   3.422  24.268  0.00  0.00    +0.095 C 
ATOM     18  O   UNL     1       0.544   2.049  24.488  0.00  0.00    -0.275 OA
ENDROOT
BRANCH  11  10
ATOM      7  N   UNL     1      -4.263   2.919  24.252  0.00  0.00    -0.161 NA
ATOM      8  C   UNL     1      -3.509   2.619  24.399  0.00  0.00    +0.343 C 
ATOM      9  O   UNL     1      -3.380   2.130  25.051  0.00  0.00    -0.249 OA
ATOM     10  N   UNL     1      -2.884   2.808  23.895  0.00  0.00    -0.187 NA
BRANCH   7   6
ATOM      3  C   UNL     1      -6.138   2.353  25.766  0.00  0.00    +0.139 A 
ATOM      4  C   UNL     1      -5.950   1.853  25.136  0.00  0.00    +0.038 A 
ATOM      5  C   UNL     1      -5.325   2.042  24.631  0.00  0.00    +0.020 A 
ATOM      6  C   UNL     1      -4.888   2.730  24.756  0.00  0.00    +0.075 A 
ATOM     36  C   UNL     1      -5.075   3.230  25.386  0.00  0.00    +0.020 A 
ATOM     37  C   UNL     1      -5.700   3.041  25.891  0.00  0.00    +0.038 A 
BRANCH   3   2
ATOM      1  C   UNL     1      -6.656   1.602  26.866  0.00  0.00    +0.252 C 
ATOM      2  O   UNL     1      -6.763   2.164  26.271  0.00  0.00    -0.471 OA
ENDBRANCH   3   2
ENDBRANCH   7   6
ENDBRANCH  11  10
BRANCH  13  19
ATOM     19  C   UNL     1      -0.699   0.976  24.442  0.00  0.00    +0.260 C 
ATOM     20  O   UNL     1      -0.078   0.983  24.985  0.00  0.00    -0.272 OA
ATOM     21  N   UNL     1      -0.893   0.277  24.047  0.00  0.00    -0.196 NA
BRANCH  21  22
ATOM     22  C   UNL     1      -0.467  -0.413  24.195  0.00  0.00    +0.179 C 
BRANCH  22  33
ATOM     33  C   UNL     1       0.214  -0.578  23.758  0.00  0.00    +0.281 C 
ATOM     34  N   UNL     1       0.894  -0.847  24.142  0.00  0.00    -0.086 NA
ATOM     35  O   UNL     1       0.215  -0.476  22.941  0.00  0.00    -0.270 OA
ENDBRANCH  22  33
BRANCH  22  23
ATOM     23  C   UNL     1      -0.720  -0.937  24.780  0.00  0.00    +0.059 C 
BRANCH  23  24
ATOM     24  C   UNL     1      -1.302  -1.495  24.609  0.00  0.00    +0.001 A 
ATOM     25  C   UNL     1      -1.285  -2.041  23.990  0.00  0.00    +0.095 A 
ATOM     26  N   UNL     1      -1.977  -2.489  24.026  0.00  0.00    -0.244 NA
ATOM     27  C   UNL     1      -2.421  -2.221  24.667  0.00  0.00    +0.081 A 
ATOM     28  C   UNL     1      -2.004  -1.607  25.027  0.00  0.00    +0.015 A 
ATOM     29  C   UNL     1      -2.319  -1.229  25.690  0.00  0.00    +0.001 A 
ATOM     30  C   UNL     1      -3.049  -1.465  25.992  0.00  0.00    +0.000 A 
ATOM     31  C   UNL     1      -3.465  -2.079  25.632  0.00  0.00    +0.002 A 
ATOM     32  C   UNL     1      -3.152  -2.457  24.969  0.00  0.00    +0.019 A 
ENDBRANCH  23  24
ENDBRANCH  22  23
ENDBRANCH  21  22
ENDBRANCH  13  19
TORSDOF 8
ENDMDL
MODEL 8
REMARK VINA RESULT:      -8.6      1.434      4.830
REMARK  Name = 
REMARK  8 active torsions:
REMARK  status: ('A' for Active; 'I' for Inactive)
REMARK    1  A    between atoms: O_2  and  C_3
REMARK    2  A    between atoms: C_6  and  N_7
REMARK    3  A    between atoms: N_10  and  C_11
REMARK    4  A    between atoms: C_13  and  C_19
REMARK    5  A    between atoms: N_21  and  C_22
REMARK    6  A    between atoms: C_22  and  C_23
REMARK    7  A    between atoms: C_22  and  C_33
REMARK    8  A    between atoms: C_23  and  C_24
REMARK                            x       y       z     vdW  Elec       q    Type
REMARK                         _______ _______ _______ _____ _____    ______ ____
ROOT
ATOM     11  C   UNL     1      -0.403   1.944  24.345  0.00  0.00    +0.119 C 
ATOM     12  C   UNL     1      -0.750   1.223  24.545  0.00  0.00    +0.053 C 
ATOM     13  C   UNL     1      -0.271   0.619  24.250  0.00  0.00    +0.155 C 
ATOM     14  N   UNL     1       0.372   0.967  23.868  0.00  0.00    -0.271 N 
ATOM     15  C   UNL     1       0.290   1.786  23.926  0.00  0.00    +0.115 C 
ATOM     16  C   UNL     1       0.988   0.567  23.493  0.00  0.00    +0.226 C 
ATOM     17  C   UNL     1       1.596   0.993  23.131  0.00  0.00    +0.095 C 
ATOM     18  O   UNL     1       0.996  -0.257  23.478  0.00  0.00    -0.275 OA
ENDROOT
BRANCH  11  10
ATOM      7  N   UNL     1      -1.801   3.543  24.854  0.00  0.00    -0.161 NA
ATOM      8  C   UNL     1      -1.506   2.795  24.668  0.00  0.00    +0.343 C 
ATOM      9  O   UNL     1      -2.018   2.150  24.619  0.00  0.00    -0.249 OA
ATOM     10  N   UNL     1      -0.699   2.692  24.531  0.00  0.00    -0.187 NA
BRANCH   7   6
ATOM      3  C   UNL     1      -4.222   3.851  25.265  0.00  0.00    +0.139 A 
ATOM      4  C   UNL     1      -3.938   3.790  24.492  0.00  0.00    +0.038 A 
ATOM      5  C   UNL     1      -3.131   3.687  24.355  0.00  0.00    +0.020 A 
ATOM      6  C   UNL     1      -2.608   3.645  24.990  0.00  0.00    +0.075 A 
ATOM     36  C   UNL     1      -2.890   3.706  25.763  0.00  0.00    +0.020 A 
ATOM     37  C   UNL     1      -3.698   3.809  25.901  0.00  0.00    +0.038 A 
BRANCH   3   2
ATOM      1  C   UNL     1      -5.496   3.309  25.618  0.00  0.00    +0.252 C 
ATOM      2  O   UNL     1      -5.029   3.954  25.402  0.00  0.00    -0.471 OA
ENDBRANCH   3   2
ENDBRANCH   7   6
ENDBRANCH  11  10
BRANCH  13  19
ATOM     19  C   UNL     1      -0.410  -0.190  24.325  0.00  0.00    +0.260 C 
ATOM     20  O   UNL     1      -0.112  -0.714  23.761  0.00  0.00    -0.272 OA
ATOM     21  N   UNL     1      -0.847  -0.478  24.963  0.00  0.00    -0.196 NA
BRANCH  21  22
ATOM     22  C   UNL     1      -0.986  -1.287  25.038  0.00  0.00    +0.179 C 
BRANCH  22  33
ATOM     33  C   UNL     1      -0.494  -1.747  25.515  0.00  0.00    +0.281 C 
ATOM     34  N   UNL     1      -0.202  -2.466  25.233  0.00  0.00    -0.086 NA
ATOM     35  O   UNL     1      -0.295  -1.490  26.272  0.00  0.00    -0.270 OA
ENDBRANCH  22  33
BRANCH  22  23
ATOM     23  C   UNL     1      -1.616  -1.636  24.636  0.00  0.00    +0.059 C 
BRANCH  23  24
ATOM     24  C   UNL     1      -2.388  -1.527  24.903  0.00  0.00    +0.001 A 
ATOM     25  C   UNL     1      -2.609  -1.166  25.612  0.00  0.00    +0.095 A 
ATOM     26  N   UNL     1      -3.433  -1.176  25.656  0.00  0.00    -0.244 NA
ATOM     27  C   UNL     1      -3.720  -1.542  24.976  0.00  0.00    +0.081 A 
ATOM     28  C   UNL     1      -3.075  -1.759  24.511  0.00  0.00    +0.015 A 
ATOM     29  C   UNL     1      -3.197  -2.140  23.789  0.00  0.00    +0.001 A 
ATOM     30  C   UNL     1      -3.963  -2.304  23.533  0.00  0.00    +0.000 A 
ATOM     31  C   UNL     1      -4.608  -2.087  23.998  0.00  0.00    +0.002 A 
ATOM     32  C   UNL     1      -4.488  -1.706  24.720  0.00  0.00    +0.019 A 
ENDBRANCH  23  24
ENDBRANCH  22  23
ENDBRANCH  21  22
ENDBRANCH  13  19
TORSDOF 8
ENDMDL
MODEL 9
REMARK VINA RESULT:      -8.4      2.570      4.820
REMARK  Name = 
REMARK  8 active torsions:
REMARK  status: ('A' for Active; 'I' for Inactive)
REMARK    1  A    between atoms: O_2  and  C_3
REMARK    2  A    between atoms: C_6  and  N_7
REMARK    3  A    between atoms: N_10  and  C_11
REMARK    4  A    between atoms: C_13  and  C_19
REMARK    5  A    between atoms: N_21  and  C_22
REMARK    6  A    between atoms: C_22  and  C_23
REMARK    7  A    between atoms: C_22  and  C_33
REMARK    8  A    between atoms: C_23  and  C_24
REMARK                            x       y       z     vdW  Elec       q    Type
REMARK                         _______ _______ _______ _____ _____    ______ ____
ROOT
ATOM     11  C   UNL     1       0.314   0.686  23.530  0.00  0.00    +0.119 C 
ATOM     12  C   UNL     1      -0.200   0.209  23.964  0.00  0.00    +0.053 C 
ATOM     13  C   UNL     1      -0.643   0.697  24.461  0.00  0.00    +0.155 C 
ATOM     14  N   UNL     1      -0.402   1.477  24.333  0.00  0.00    -0.271 N 
ATOM     15  C   UNL     1       0.189   1.470  23.758  0.00  0.00    +0.115 C 
ATOM     16  C   UNL     1      -0.701   2.144  24.714  0.00  0.00    +0.226 C 
ATOM     17  C   UNL     1      -0.404   2.892  24.528  0.00  0.00    +0.095 C 
ATOM     18  O   UNL     1      -1.295   2.066  25.281  0.00  0.00    -0.275 OA
ENDROOT
BRANCH  11  10
ATOM      7  N   UNL     1       2.210   0.195  22.565  0.00  0.00    -0.161 NA
ATOM      8  C   UNL     1       1.666   0.455  23.128  0.00  0.00    +0.343 C 
ATOM      9  O   UNL     1       1.931   0.745  23.854  0.00  0.00    -0.249 OA
ATOM     10  N   UNL     1       0.858   0.426  22.966  0.00  0.00    -0.187 NA
BRANCH   7   6
ATOM      3  C   UNL     1       4.635   0.282  23.051  0.00  0.00    +0.139 A 
ATOM      4  C   UNL     1       4.263   0.924  22.688  0.00  0.00    +0.038 A 
ATOM      5  C   UNL     1       3.454   0.894  22.526  0.00  0.00    +0.020 A 
ATOM      6  C   UNL     1       3.018   0.224  22.727  0.00  0.00    +0.075 A 
ATOM     36  C   UNL     1       3.389  -0.417  23.090  0.00  0.00    +0.020 A 
ATOM     37  C   UNL     1       4.198  -0.388  23.253  0.00  0.00    +0.038 A 
BRANCH   3   2
ATOM      1  C   UNL     1       5.763  -0.167  23.805  0.00  0.00    +0.252 C 
ATOM      2  O   UNL     1       5.443   0.312  23.214  0.00  0.00    -0.471 OA
ENDBRANCH   3   2
ENDBRANCH   7   6
ENDBRANCH  11  10
BRANCH  13  19
ATOM     19  C   UNL     1      -1.224   0.450  24.992  0.00  0.00    +0.260 C 
ATOM     20  O   UNL     1      -1.139   0.605  25.797  0.00  0.00    -0.272 OA
ATOM     21  N   UNL     1      -1.890   0.048  24.717  0.00  0.00    -0.196 NA
BRANCH  21  22
ATOM     22  C   UNL     1      -2.470  -0.199  25.248  0.00  0.00    +0.179 C 
BRANCH  22  33
ATOM     33  C   UNL     1      -2.441  -0.960  25.566  0.00  0.00    +0.281 C 
ATOM     34  N   UNL     1      -2.328  -1.610  25.068  0.00  0.00    -0.086 NA
ATOM     35  O   UNL     1      -2.523  -1.072  26.378  0.00  0.00    -0.270 OA
ENDBRANCH  22  33
BRANCH  22  23
ATOM     23  C   UNL     1      -3.081   0.314  25.461  0.00  0.00    +0.059 C 
BRANCH  23  24
ATOM     24  C   UNL     1      -3.768   0.349  25.006  0.00  0.00    +0.001 A 
ATOM     25  C   UNL     1      -3.989  -0.188  24.419  0.00  0.00    +0.095 A 
ATOM     26  N   UNL     1      -4.713   0.058  24.109  0.00  0.00    -0.244 NA
ATOM     27  C   UNL     1      -4.939   0.746  24.504  0.00  0.00    +0.081 A 
ATOM     28  C   UNL     1      -4.355   0.925  25.059  0.00  0.00    +0.015 A 
ATOM     29  C   UNL     1      -4.434   1.591  25.540  0.00  0.00    +0.001 A 
ATOM     30  C   UNL     1      -5.096   2.077  25.467  0.00  0.00    +0.000 A 
ATOM     31  C   UNL     1      -5.680   1.897  24.912  0.00  0.00    +0.002 A 
ATOM     32  C   UNL     1      -5.602   1.232  24.431  0.00  0.00    +0.019 A 
ENDBRANCH  23  24
ENDBRANCH  22  23
ENDBRANCH  21  22
ENDBRANCH  13  19
TORSDOF 8
ENDMDL
MODEL 10
REMARK VINA RESULT:      -8.3      1.607      4.726
REMARK  Name = 
REMARK  8 active torsions:
REMARK  status: ('A' for Active; 'I' for Inactive)
REMARK    1  A    between atoms: O_2  and  C_3
REMARK    2  A    between atoms: C_6  and  N_7
REMARK    3  A    between atoms: N_10  and  C_11
REMARK    4  A    between atoms: C_13  and  C_19
REMARK    5  A    between atoms: N_21  and  C_22
REMARK    6  A    between atoms: C_22  and  C_23
REMARK    7  A    between atoms: C_22  and  C_33
REMARK    8  A    between atoms: C_23  and  C_24
REMARK                            x       y       z     vdW  Elec       q    Type
REMARK                         _______ _______ _______ _____ _____    ______ ____
ROOT
ATOM     11  C   UNL     1      -0.683   0.071  24.900  0.00  0.00    +0.119 C 
ATOM     12  C   UNL     1      -1.504   0.152  24.877  0.00  0.00    +0.053 C 
ATOM     13  C   UNL     1      -1.836  -0.603  24.903  0.00  0.00    +0.155 C 
ATOM     14  N   UNL     1      -1.219  -1.151  24.942  0.00  0.00    -0.271 N 
ATOM     15  C   UNL     1      -0.507  -0.734  24.941  0.00  0.00    +0.115 C 
ATOM     16  C   UNL     1      -1.301  -1.971  24.977  0.00  0.00    +0.226 C 
ATOM     17  C   UNL     1      -0.631  -2.451  25.015  0.00  0.00    +0.095 C 
ATOM     18  O   UNL     1      -2.052  -2.311  24.974  0.00  0.00    -0.275 OA
ENDROOT
BRANCH  11  10
ATOM      7  N   UNL     1       0.156   2.087  24.896  0.00  0.00    -0.161 NA
ATOM      8  C   UNL     1      -0.393   1.471  24.911  0.00  0.00    +0.343 C 
ATOM      9  O   UNL     1      -1.200   1.638  24.951  0.00  0.00    -0.249 OA
ATOM     10  N   UNL     1      -0.135   0.688  24.886  0.00  0.00    -0.187 NA
BRANCH   7   6
ATOM      3  C   UNL     1      -0.619   4.437  24.971  0.00  0.00    +0.139 A 
ATOM      4  C   UNL     1      -0.556   4.000  25.669  0.00  0.00    +0.038 A 
ATOM      5  C   UNL     1      -0.297   3.217  25.644  0.00  0.00    +0.020 A 
ATOM      6  C   UNL     1      -0.102   2.870  24.922  0.00  0.00    +0.075 A 
ATOM     36  C   UNL     1      -0.165   3.306  24.224  0.00  0.00    +0.020 A 
ATOM     37  C   UNL     1      -0.424   4.090  24.248  0.00  0.00    +0.038 A 
BRANCH   3   2
ATOM      1  C   UNL     1      -1.680   5.386  25.094  0.00  0.00    +0.252 C 
ATOM      2  O   UNL     1      -0.878   5.220  24.997  0.00  0.00    -0.471 OA
ENDBRANCH   3   2
ENDBRANCH   7   6
ENDBRANCH  11  10
BRANCH  13  19
ATOM     19  C   UNL     1      -2.641  -0.779  24.891  0.00  0.00    +0.260 C 
ATOM     20  O   UNL     1      -2.948  -1.339  25.413  0.00  0.00    -0.272 OA
ATOM     21  N   UNL     1      -3.140  -0.396  24.357  0.00  0.00    -0.196 NA
BRANCH  21  22
ATOM     22  C   UNL     1      -3.945  -0.572  24.346  0.00  0.00    +0.179 C 
BRANCH  22  33
ATOM     33  C   UNL     1      -4.228  -1.175  23.857  0.00  0.00    +0.281 C 
ATOM     34  N   UNL     1      -4.694  -1.778  24.175  0.00  0.00    -0.086 NA
ATOM     35  O   UNL     1      -4.046  -1.174  23.054  0.00  0.00    -0.270 OA
ENDBRANCH  22  33
BRANCH  22  23
ATOM     23  C   UNL     1      -4.468  -0.147  24.822  0.00  0.00    +0.059 C 
BRANCH  23  24
ATOM     24  C   UNL     1      -4.622   0.646  24.660  0.00  0.00    +0.001 A 
ATOM     25  C   UNL     1      -4.326   1.077  24.021  0.00  0.00    +0.095 A 
ATOM     26  N   UNL     1      -4.621   1.846  24.074  0.00  0.00    -0.244 NA
ATOM     27  C   UNL     1      -5.098   1.890  24.744  0.00  0.00    +0.081 A 
ATOM     28  C   UNL     1      -5.099   1.149  25.106  0.00  0.00    +0.015 A 
ATOM     29  C   UNL     1      -5.535   1.028  25.797  0.00  0.00    +0.001 A 
ATOM     30  C   UNL     1      -5.969   1.648  26.125  0.00  0.00    +0.000 A 
ATOM     31  C   UNL     1      -5.968   2.389  25.763  0.00  0.00    +0.002 A 
ATOM     32  C   UNL     1      -5.532   2.511  25.073  0.00  0.00    +0.019 A 
ENDBRANCH  23  24
ENDBRANCH  22  23
ENDBRANCH  21  22
ENDBRANCH  13  19
TORSDOF 8
ENDMDL
