MODEL 1
REMARK VINA RESULT:     -10.0      0.000      0.000
REMARK  Name = 
REMARK  7 active torsions:
REMARK  status: ('A' for Active; 'I' for Inactive)
REMARK    1  A    between atoms: O_2  and  C_3
REMARK    2  A    between atoms: C_3  and  C_4
REMARK    3  A    between atoms: N_6  and  C_7
REMARK    4  A    between atoms: C_7  and  C_8
REMARK    5  A    between atoms: C_8  and  C_9
REMARK    6  A    between atoms: C_12  and  C_14
REMARK    7  A    between atoms: C_17  and  O_18
REMARK                            x       y       z     vdW  Elec       q    Type
REMARK                         _______ _______ _______ _____ _____    ______ ____
ROOT
ATOM      9  C   UNL     1      -3.642   1.704  24.907  0.00  0.00    +0.103 A 
ATOM     10  N   UNL     1      -4.455   1.633  25.033  0.00  0.00    -0.081 NA
ATOM     11  O   UNL     1      -4.647   0.831  25.016  0.00  0.00    -0.354 OA
ATOM     12  C   UNL     1      -3.954   0.406  24.880  0.00  0.00    +0.177 A 
ATOM     13  C   UNL     1      -3.333   0.944  24.813  0.00  0.00    +0.058 A 
ENDROOT
BRANCH  12  14
ATOM     14  C   UNL     1      -3.892  -0.415  24.822  0.00  0.00    +0.037 A 
ATOM     15  C   UNL     1      -4.134  -0.798  24.132  0.00  0.00    +0.006 A 
ATOM     16  C   UNL     1      -4.072  -1.619  24.073  0.00  0.00    +0.037 A 
ATOM     17  C   UNL     1      -3.768  -2.056  24.703  0.00  0.00    +0.139 A 
ATOM     20  C   UNL     1      -3.527  -1.673  25.392  0.00  0.00    +0.037 A 
ATOM     21  C   UNL     1      -3.589  -0.852  25.452  0.00  0.00    +0.006 A 
BRANCH  17  18
ATOM     18  O   UNL     1      -3.707  -2.877  24.644  0.00  0.00    -0.471 OA
ATOM     19  C   UNL     1      -3.050  -3.215  24.278  0.00  0.00    +0.252 C 
ENDBRANCH  17  18
ENDBRANCH  12  14
BRANCH   9   8
ATOM      8  C   UNL     1      -3.215   2.408  24.881  0.00  0.00    +0.074 C 
BRANCH   8   7
ATOM      7  C   UNL     1      -3.581   3.104  24.630  0.00  0.00    +0.139 C 
ATOM     22  C   UNL     1      -3.947   3.799  24.379  0.00  0.00    +0.165 C 
ATOM     23  O   UNL     1      -3.909   3.537  23.597  0.00  0.00    -0.350 OA
ATOM     24  C   UNL     1      -3.543   2.841  23.848  0.00  0.00    +0.165 C 
BRANCH   7   6
ATOM      4  C   UNL     1      -3.051   3.892  25.698  0.00  0.00    +0.272 C 
ATOM      5  O   UNL     1      -3.089   4.155  26.479  0.00  0.00    -0.271 OA
ATOM      6  N   UNL     1      -3.619   3.366  25.411  0.00  0.00    -0.201 NA
BRANCH   4   3
ATOM      3  C   UNL     1      -2.446   4.156  25.203  0.00  0.00    +0.229 C 
BRANCH   3   2
ATOM      1  C   UNL     1      -1.213   4.856  25.029  0.00  0.00    +0.175 C 
ATOM      2  O   UNL     1      -1.866   4.665  25.496  0.00  0.00    -0.342 OA
ENDBRANCH   3   2
ENDBRANCH   4   3
ENDBRANCH   7   6
ENDBRANCH   8   7
ENDBRANCH   9   8
TORSDOF 7
ENDMDL
MODEL 2
REMARK VINA RESULT:      -8.5      2.028      2.450
REMARK  Name = 
REMARK  7 active torsions:
REMARK  status: ('A' for Active; 'I' for Inactive)
REMARK    1  A    between atoms: O_2  and  C_3
REMARK    2  A    between atoms: C_3  and  C_4
REMARK    3  A    between atoms: N_6  and  C_7
REMARK    4  A    between atoms: C_7  and  C_8
REMARK    5  A    between atoms: C_8  and  C_9
REMARK    6  A    between atoms: C_12  and  C_14
REMARK    7  A    between atoms: C_17  and  O_18
REMARK                            x       y       z     vdW  Elec       q    Type
REMARK                         _______ _______ _______ _____ _____    ______ ____
ROOT
ATOM      9  C   UNL     1      -1.255   1.037  25.318  0.00  0.00    +0.103 A 
ATOM     10  N   UNL     1      -0.821   0.574  25.845  0.00  0.00    -0.081 NA
ATOM     11  O   UNL     1      -1.150  -0.183  25.850  0.00  0.00    -0.354 OA
ATOM     12  C   UNL     1      -1.787  -0.187  25.327  0.00  0.00    +0.177 A 
ATOM     13  C   UNL     1      -1.852   0.566  24.998  0.00  0.00    +0.058 A 
ENDROOT
BRANCH  12  14
ATOM     14  C   UNL     1      -2.275  -0.832  25.161  0.00  0.00    +0.037 A 
ATOM     15  C   UNL     1      -1.988  -1.460  24.710  0.00  0.00    +0.006 A 
ATOM     16  C   UNL     1      -2.475  -2.105  24.544  0.00  0.00    +0.037 A 
ATOM     17  C   UNL     1      -3.249  -2.121  24.829  0.00  0.00    +0.139 A 
ATOM     20  C   UNL     1      -3.536  -1.493  25.279  0.00  0.00    +0.037 A 
ATOM     21  C   UNL     1      -3.049  -0.848  25.446  0.00  0.00    +0.006 A 
BRANCH  17  18
ATOM     18  O   UNL     1      -3.736  -2.766  24.662  0.00  0.00    -0.471 OA
ATOM     19  C   UNL     1      -4.141  -2.803  23.945  0.00  0.00    +0.252 C 
ENDBRANCH  17  18
ENDBRANCH  12  14
BRANCH   9   8
ATOM      8  C   UNL     1      -1.116   1.831  25.142  0.00  0.00    +0.074 C 
BRANCH   8   7
ATOM      7  C   UNL     1      -0.617   2.279  25.623  0.00  0.00    +0.139 C 
ATOM     22  C   UNL     1      -0.119   2.726  26.104  0.00  0.00    +0.165 C 
ATOM     23  O   UNL     1       0.538   2.416  25.713  0.00  0.00    -0.350 OA
ATOM     24  C   UNL     1       0.039   1.968  25.232  0.00  0.00    +0.165 C 
BRANCH   7   6
ATOM      4  C   UNL     1      -1.521   3.361  25.857  0.00  0.00    +0.272 C 
ATOM      5  O   UNL     1      -2.178   3.672  26.249  0.00  0.00    -0.271 OA
ATOM      6  N   UNL     1      -1.274   2.589  26.014  0.00  0.00    -0.201 NA
BRANCH   4   3
ATOM      3  C   UNL     1      -1.111   3.821  25.309  0.00  0.00    +0.229 C 
BRANCH   3   2
ATOM      1  C   UNL     1      -0.916   5.122  24.750  0.00  0.00    +0.175 C 
ATOM      2  O   UNL     1      -1.416   4.552  25.074  0.00  0.00    -0.342 OA
ENDBRANCH   3   2
ENDBRANCH   4   3
ENDBRANCH   7   6
ENDBRANCH   8   7
ENDBRANCH   9   8
TORSDOF 7
ENDMDL
MODEL 3
REMARK VINA RESULT:      -8.3      2.048      5.510
REMARK  Name = 
REMARK  7 active torsions:
REMARK  status: ('A' for Active; 'I' for Inactive)
REMARK    1  A    between atoms: O_2  and  C_3
REMARK    2  A    between atoms: C_3  and  C_4
REMARK    3  A    between atoms: N_6  and  C_7
REMARK    4  A    between atoms: C_7  and  C_8
REMARK    5  A    between atoms: C_8  and  C_9
REMARK    6  A    between atoms: C_12  and  C_14
REMARK    7  A    between atoms: C_17  and  O_18
REMARK                            x       y       z     vdW  Elec       q    Type
REMARK                         _______ _______ _______ _____ _____    ______ ____
ROOT
ATOM      9  C   UNL     1      -1.636   0.586  25.143  0.00  0.00    +0.103 A 
ATOM     10  N   UNL     1      -1.026   0.583  25.698  0.00  0.00    -0.081 NA
ATOM     11  O   UNL     1      -0.773   1.361  25.804  0.00  0.00    -0.354 OA
ATOM     12  C   UNL     1      -1.226   1.845  25.315  0.00  0.00    +0.177 A 
ATOM     13  C   UNL     1      -1.760   1.367  24.906  0.00  0.00    +0.058 A 
ENDROOT
BRANCH  12  14
ATOM     14  C   UNL     1      -1.159   2.665  25.246  0.00  0.00    +0.037 A 
ATOM     15  C   UNL     1      -0.625   2.990  24.708  0.00  0.00    +0.006 A 
ATOM     16  C   UNL     1      -0.558   3.810  24.639  0.00  0.00    +0.037 A 
ATOM     17  C   UNL     1      -1.024   4.303  25.108  0.00  0.00    +0.139 A 
ATOM     20  C   UNL     1      -1.558   3.977  25.645  0.00  0.00    +0.037 A 
ATOM     21  C   UNL     1      -1.626   3.158  25.715  0.00  0.00    +0.006 A 
BRANCH  17  18
ATOM     18  O   UNL     1      -0.956   5.123  25.038  0.00  0.00    -0.471 OA
ATOM     19  C   UNL     1      -1.631   5.595  25.057  0.00  0.00    +0.252 C 
ENDBRANCH  17  18
ENDBRANCH  12  14
BRANCH   9   8
ATOM      8  C   UNL     1      -2.050  -0.074  24.872  0.00  0.00    +0.074 C 
BRANCH   8   7
ATOM      7  C   UNL     1      -1.754  -0.831  25.012  0.00  0.00    +0.139 C 
ATOM     22  C   UNL     1      -1.459  -1.589  25.151  0.00  0.00    +0.165 C 
ATOM     23  O   UNL     1      -0.918  -1.492  24.536  0.00  0.00    -0.350 OA
ATOM     24  C   UNL     1      -1.214  -0.734  24.396  0.00  0.00    +0.165 C 
BRANCH   7   6
ATOM      4  C   UNL     1      -2.997  -1.343  25.498  0.00  0.00    +0.272 C 
ATOM      5  O   UNL     1      -3.538  -1.440  26.114  0.00  0.00    -0.271 OA
ATOM      6  N   UNL     1      -2.295  -0.929  25.627  0.00  0.00    -0.201 NA
BRANCH   4   3
ATOM      3  C   UNL     1      -3.158  -1.659  24.754  0.00  0.00    +0.229 C 
BRANCH   3   2
ATOM      1  C   UNL     1      -4.165  -2.169  23.877  0.00  0.00    +0.175 C 
ATOM      2  O   UNL     1      -3.843  -2.104  24.634  0.00  0.00    -0.342 OA
ENDBRANCH   3   2
ENDBRANCH   4   3
ENDBRANCH   7   6
ENDBRANCH   8   7
ENDBRANCH   9   8
TORSDOF 7
ENDMDL
MODEL 4
REMARK VINA RESULT:      -7.8      2.818      4.143
REMARK  Name = 
REMARK  7 active torsions:
REMARK  status: ('A' for Active; 'I' for Inactive)
REMARK    1  A    between atoms: O_2  and  C_3
REMARK    2  A    between atoms: C_3  and  C_4
REMARK    3  A    between atoms: N_6  and  C_7
REMARK    4  A    between atoms: C_7  and  C_8
REMARK    5  A    between atoms: C_8  and  C_9
REMARK    6  A    between atoms: C_12  and  C_14
REMARK    7  A    between atoms: C_17  and  O_18
REMARK                            x       y       z     vdW  Elec       q    Type
REMARK                         _______ _______ _______ _____ _____    ______ ____
ROOT
ATOM      9  C   UNL     1      -2.096   1.614  23.590  0.00  0.00    +0.103 A 
ATOM     10  N   UNL     1      -2.341   2.246  23.119  0.00  0.00    -0.081 NA
ATOM     11  O   UNL     1      -3.105   2.455  23.350  0.00  0.00    -0.354 OA
ATOM     12  C   UNL     1      -3.333   1.953  23.962  0.00  0.00    +0.177 A 
ATOM     13  C   UNL     1      -2.710   1.433  24.111  0.00  0.00    +0.058 A 
ENDROOT
BRANCH  12  14
ATOM     14  C   UNL     1      -4.056   1.967  24.358  0.00  0.00    +0.037 A 
ATOM     15  C   UNL     1      -4.429   1.258  24.560  0.00  0.00    +0.006 A 
ATOM     16  C   UNL     1      -5.153   1.272  24.955  0.00  0.00    +0.037 A 
ATOM     17  C   UNL     1      -5.504   1.993  25.149  0.00  0.00    +0.139 A 
ATOM     20  C   UNL     1      -5.131   2.701  24.947  0.00  0.00    +0.037 A 
ATOM     21  C   UNL     1      -4.407   2.688  24.552  0.00  0.00    +0.006 A 
BRANCH  17  18
ATOM     18  O   UNL     1      -6.228   2.006  25.545  0.00  0.00    -0.471 OA
ATOM     19  C   UNL     1      -6.249   1.967  26.368  0.00  0.00    +0.252 C 
ENDBRANCH  17  18
ENDBRANCH  12  14
BRANCH   9   8
ATOM      8  C   UNL     1      -1.367   1.231  23.547  0.00  0.00    +0.074 C 
BRANCH   8   7
ATOM      7  C   UNL     1      -0.793   1.371  24.123  0.00  0.00    +0.139 C 
ATOM     22  C   UNL     1      -0.219   1.511  24.699  0.00  0.00    +0.165 C 
ATOM     23  O   UNL     1      -0.161   2.295  24.450  0.00  0.00    -0.350 OA
ATOM     24  C   UNL     1      -0.735   2.156  23.874  0.00  0.00    +0.165 C 
BRANCH   7   6
ATOM      4  C   UNL     1      -0.315   0.024  24.092  0.00  0.00    +0.272 C 
ATOM      5  O   UNL     1      -0.373  -0.761  24.340  0.00  0.00    -0.271 OA
ATOM      6  N   UNL     1      -0.851   0.586  24.371  0.00  0.00    -0.201 NA
BRANCH   4   3
ATOM      3  C   UNL     1       0.279   0.247  23.564  0.00  0.00    +0.229 C 
BRANCH   3   2
ATOM      1  C   UNL     1       1.398  -0.104  22.748  0.00  0.00    +0.175 C 
ATOM      2  O   UNL     1       0.748  -0.329  23.204  0.00  0.00    -0.342 OA
ENDBRANCH   3   2
ENDBRANCH   4   3
ENDBRANCH   7   6
ENDBRANCH   8   7
ENDBRANCH   9   8
TORSDOF 7
ENDMDL
