MODEL 1
REMARK VINA RESULT:      -9.3      0.000      0.000
REMARK  Name = 
REMARK  8 active torsions:
REMARK  status: ('A' for Active; 'I' for Inactive)
REMARK    1  A    between atoms: N_2  and  C_4
REMARK    2  A    between atoms: C_4  and  C_5
REMARK    3  A    between atoms: C_5  and  N_6
REMARK    4  A    between atoms: N_6  and  C_8
REMARK    5  A    between atoms: C_11  and  C_12
REMARK    6  A    between atoms: C_15  and  C_16
REMARK    7  A    between atoms: C_16  and  N_17
REMARK    8  A    between atoms: N_20  and  C_21
REMARK                            x       y       z     vdW  Elec       q    Type
REMARK                         _______ _______ _______ _____ _____    ______ ____
ROOT
ATOM      8  C   UNL     1      -3.984   2.827  24.858  0.00  0.00    +0.120 C 
ATOM      9  C   UNL     1      -4.550   3.332  25.185  0.00  0.00    +0.198 C 
ATOM     10  O   UNL     1      -4.510   4.156  25.204  0.00  0.00    -0.219 OA
ATOM     11  C   UNL     1      -5.161   2.868  25.488  0.00  0.00    +0.180 C 
ATOM     14  O   UNL     1      -4.973   2.077  25.349  0.00  0.00    -0.350 OA
ATOM     15  C   UNL     1      -4.247   2.051  24.959  0.00  0.00    +0.154 C 
ENDROOT
BRANCH   8   6
ATOM      6  N   UNL     1      -3.281   3.057  24.493  0.00  0.00    -0.267 NA
ATOM      7  C   UNL     1      -3.245   3.128  23.672  0.00  0.00    +0.090 C 
BRANCH   6   5
ATOM      5  C   UNL     1      -2.613   3.217  24.950  0.00  0.00    +0.090 C 
BRANCH   5   4
ATOM      4  C   UNL     1      -1.909   3.442  24.586  0.00  0.00    +0.090 C 
BRANCH   4   2
ATOM      1  C   UNL     1      -1.056   4.469  25.095  0.00  0.00    +0.090 C 
ATOM      2  N   UNL     1      -1.262   3.672  25.045  0.00  0.00    -0.269 NA
ATOM      3  C   UNL     1      -0.823   3.105  25.452  0.00  0.00    +0.090 C 
ENDBRANCH   4   2
ENDBRANCH   5   4
ENDBRANCH   6   5
ENDBRANCH   8   6
BRANCH  11  12
ATOM     12  C   UNL     1      -5.840   3.147  25.865  0.00  0.00    +0.214 C 
ATOM     13  O   UNL     1      -6.173   2.717  26.485  0.00  0.00    -0.218 OA
ENDBRANCH  11  12
BRANCH  15  16
ATOM     16  C   UNL     1      -3.851   1.370  24.714  0.00  0.00    +0.148 C 
BRANCH  16  17
ATOM     17  N   UNL     1      -3.987   0.653  25.099  0.00  0.00    -0.184 NA
ATOM     18  C   UNL     1      -3.751  -0.055  24.748  0.00  0.00    +0.344 C 
ATOM     19  O   UNL     1      -3.380  -0.046  24.012  0.00  0.00    -0.249 OA
ATOM     20  N   UNL     1      -3.888  -0.772  25.133  0.00  0.00    -0.161 NA
BRANCH  20  21
ATOM     21  C   UNL     1      -3.652  -1.480  24.781  0.00  0.00    +0.076 A 
ATOM     22  C   UNL     1      -2.895  -1.779  24.924  0.00  0.00    +0.028 A 
ATOM     23  C   UNL     1      -2.659  -2.487  24.572  0.00  0.00    +0.059 A 
ATOM     24 CL   UNL     1      -1.903  -2.786  24.715  0.00  0.00    -0.082 Cl
ATOM     25  C   UNL     1      -3.178  -2.895  24.079  0.00  0.00    +0.011 A 
ATOM     26  C   UNL     1      -3.933  -2.596  23.936  0.00  0.00    +0.002 A 
ATOM     27  C   UNL     1      -4.170  -1.888  24.288  0.00  0.00    +0.017 A 
ENDBRANCH  20  21
ENDBRANCH  16  17
ENDBRANCH  15  16
TORSDOF 8
ENDMDL
MODEL 2
REMARK VINA RESULT:      -8.7      1.473      2.719
REMARK  Name = 
REMARK  8 active torsions:
REMARK  status: ('A' for Active; 'I' for Inactive)
REMARK    1  A    between atoms: N_2  and  C_4
REMARK    2  A    between atoms: C_4  and  C_5
REMARK    3  A    between atoms: C_5  and  N_6
REMARK    4  A    between atoms: N_6  and  C_8
REMARK    5  A    between atoms: C_11  and  C_12
REMARK    6  A    between atoms: C_15  and  C_16
REMARK    7  A    between atoms: C_16  and  N_17
REMARK    8  A    between atoms: N_20  and  C_21
REMARK                            x       y       z     vdW  Elec       q    Type
REMARK                         _______ _______ _______ _____ _____    ______ ____
ROOT
ATOM      8  C   UNL     1      -2.590   2.961  24.802  0.00  0.00    +0.120 C 
ATOM      9  C   UNL     1      -2.055   3.549  25.024  0.00  0.00    +0.198 C 
ATOM     10  O   UNL     1      -2.199   4.361  25.017  0.00  0.00    -0.219 OA
ATOM     11  C   UNL     1      -1.353   3.182  25.253  0.00  0.00    +0.180 C 
ATOM     14  O   UNL     1      -1.454   2.367  25.173  0.00  0.00    -0.350 OA
ATOM     15  C   UNL     1      -2.218   2.230  24.894  0.00  0.00    +0.154 C 
ENDROOT
BRANCH   8   6
ATOM      6  N   UNL     1      -3.361   3.081  24.535  0.00  0.00    -0.267 NA
ATOM      7  C   UNL     1      -3.511   3.157  23.727  0.00  0.00    +0.090 C 
BRANCH   6   5
ATOM      5  C   UNL     1      -3.983   3.126  25.076  0.00  0.00    +0.090 C 
BRANCH   5   4
ATOM      4  C   UNL     1      -4.761   3.160  24.807  0.00  0.00    +0.090 C 
BRANCH   4   2
ATOM      1  C   UNL     1      -5.610   3.893  25.693  0.00  0.00    +0.090 C 
ATOM      2  N   UNL     1      -5.384   3.178  25.349  0.00  0.00    -0.269 NA
ATOM      3  C   UNL     1      -5.779   2.482  25.546  0.00  0.00    +0.090 C 
ENDBRANCH   4   2
ENDBRANCH   5   4
ENDBRANCH   6   5
ENDBRANCH   8   6
BRANCH  11  12
ATOM     12  C   UNL     1      -0.670   3.563  25.516  0.00  0.00    +0.214 C 
ATOM     13  O   UNL     1      -0.048   3.123  25.831  0.00  0.00    -0.218 OA
ENDBRANCH  11  12
BRANCH  15  16
ATOM     16  C   UNL     1      -2.552   1.492  24.735  0.00  0.00    +0.148 C 
BRANCH  16  17
ATOM     17  N   UNL     1      -2.296   0.827  25.150  0.00  0.00    -0.184 NA
ATOM     18  C   UNL     1      -2.565   0.078  24.933  0.00  0.00    +0.344 C 
ATOM     19  O   UNL     1      -3.087  -0.006  24.301  0.00  0.00    -0.249 OA
ATOM     20  N   UNL     1      -2.310  -0.589  25.348  0.00  0.00    -0.161 NA
BRANCH  20  21
ATOM     21  C   UNL     1      -2.578  -1.337  25.130  0.00  0.00    +0.076 A 
ATOM     22  C   UNL     1      -2.099  -1.830  24.672  0.00  0.00    +0.028 A 
ATOM     23  C   UNL     1      -2.368  -2.579  24.454  0.00  0.00    +0.059 A 
ATOM     24 CL   UNL     1      -1.889  -3.071  23.997  0.00  0.00    -0.082 Cl
ATOM     25  C   UNL     1      -3.114  -2.835  24.693  0.00  0.00    +0.011 A 
ATOM     26  C   UNL     1      -3.593  -2.344  25.151  0.00  0.00    +0.002 A 
ATOM     27  C   UNL     1      -3.324  -1.594  25.369  0.00  0.00    +0.017 A 
ENDBRANCH  20  21
ENDBRANCH  16  17
ENDBRANCH  15  16
TORSDOF 8
ENDMDL
MODEL 3
REMARK VINA RESULT:      -8.7      2.353      4.863
REMARK  Name = 
REMARK  8 active torsions:
REMARK  status: ('A' for Active; 'I' for Inactive)
REMARK    1  A    between atoms: N_2  and  C_4
REMARK    2  A    between atoms: C_4  and  C_5
REMARK    3  A    between atoms: C_5  and  N_6
REMARK    4  A    between atoms: N_6  and  C_8
REMARK    5  A    between atoms: C_11  and  C_12
REMARK    6  A    between atoms: C_15  and  C_16
REMARK    7  A    between atoms: C_16  and  N_17
REMARK    8  A    between atoms: N_20  and  C_21
REMARK                            x       y       z     vdW  Elec       q    Type
REMARK                         _______ _______ _______ _____ _____    ______ ____
ROOT
ATOM      8  C   UNL     1      -2.202  -1.324  24.761  0.00  0.00    +0.120 C 
ATOM      9  C   UNL     1      -2.337  -2.116  24.571  0.00  0.00    +0.198 C 
ATOM     10  O   UNL     1      -1.760  -2.701  24.502  0.00  0.00    -0.219 OA
ATOM     11  C   UNL     1      -3.149  -2.218  24.464  0.00  0.00    +0.180 C 
ATOM     14  O   UNL     1      -3.516  -1.490  24.588  0.00  0.00    -0.350 OA
ATOM     15  C   UNL     1      -2.932  -0.937  24.771  0.00  0.00    +0.154 C 
ENDROOT
BRANCH   8   6
ATOM      6  N   UNL     1      -1.469  -0.979  24.914  0.00  0.00    -0.267 NA
ATOM      7  C   UNL     1      -1.163  -0.981  25.680  0.00  0.00    +0.090 C 
BRANCH   6   5
ATOM      5  C   UNL     1      -1.041  -0.631  24.300  0.00  0.00    +0.090 C 
BRANCH   5   4
ATOM      4  C   UNL     1      -0.301  -0.300  24.449  0.00  0.00    +0.090 C 
BRANCH   4   2
ATOM      1  C   UNL     1       0.526  -0.297  23.284  0.00  0.00    +0.090 C 
ATOM      2  N   UNL     1       0.093   0.114  23.854  0.00  0.00    -0.269 NA
ATOM      3  C   UNL     1       0.055   0.937  23.829  0.00  0.00    +0.090 C 
ENDBRANCH   4   2
ENDBRANCH   5   4
ENDBRANCH   6   5
ENDBRANCH   8   6
BRANCH  11  12
ATOM     12  C   UNL     1      -3.526  -2.925  24.268  0.00  0.00    +0.214 C 
ATOM     13  O   UNL     1      -4.271  -2.910  23.915  0.00  0.00    -0.218 OA
ENDBRANCH  11  12
BRANCH  15  16
ATOM     16  C   UNL     1      -3.054  -0.138  24.936  0.00  0.00    +0.148 C 
BRANCH  16  17
ATOM     17  N   UNL     1      -3.748   0.233  24.686  0.00  0.00    -0.184 NA
ATOM     18  C   UNL     1      -3.906   1.008  24.916  0.00  0.00    +0.344 C 
ATOM     19  O   UNL     1      -3.372   1.413  25.396  0.00  0.00    -0.249 OA
ATOM     20  N   UNL     1      -4.600   1.379  24.666  0.00  0.00    -0.161 NA
BRANCH  20  21
ATOM     21  C   UNL     1      -4.758   2.155  24.897  0.00  0.00    +0.076 A 
ATOM     22  C   UNL     1      -4.385   2.784  24.513  0.00  0.00    +0.028 A 
ATOM     23  C   UNL     1      -4.543   3.560  24.744  0.00  0.00    +0.059 A 
ATOM     24 CL   UNL     1      -4.169   4.188  24.361  0.00  0.00    -0.082 Cl
ATOM     25  C   UNL     1      -5.074   3.708  25.357  0.00  0.00    +0.011 A 
ATOM     26  C   UNL     1      -5.447   3.080  25.740  0.00  0.00    +0.002 A 
ATOM     27  C   UNL     1      -5.289   2.303  25.510  0.00  0.00    +0.017 A 
ENDBRANCH  20  21
ENDBRANCH  16  17
ENDBRANCH  15  16
TORSDOF 8
ENDMDL
MODEL 4
REMARK VINA RESULT:      -8.2      2.680      5.907
REMARK  Name = 
REMARK  8 active torsions:
REMARK  status: ('A' for Active; 'I' for Inactive)
REMARK    1  A    between atoms: N_2  and  C_4
REMARK    2  A    between atoms: C_4  and  C_5
REMARK    3  A    between atoms: C_5  and  N_6
REMARK    4  A    between atoms: N_6  and  C_8
REMARK    5  A    between atoms: C_11  and  C_12
REMARK    6  A    between atoms: C_15  and  C_16
REMARK    7  A    between atoms: C_16  and  N_17
REMARK    8  A    between atoms: N_20  and  C_21
REMARK                            x       y       z     vdW  Elec       q    Type
REMARK                         _______ _______ _______ _____ _____    ______ ____
ROOT
ATOM      8  C   UNL     1      -1.185  -0.589  24.634  0.00  0.00    +0.120 C 
ATOM      9  C   UNL     1      -0.580  -0.994  24.245  0.00  0.00    +0.198 C 
ATOM     10  O   UNL     1      -0.533  -1.811  24.144  0.00  0.00    -0.219 OA
ATOM     11  C   UNL     1      -0.032  -0.439  23.977  0.00  0.00    +0.180 C 
ATOM     14  O   UNL     1      -0.299   0.310  24.199  0.00  0.00    -0.350 OA
ATOM     15  C   UNL     1      -1.011   0.217  24.605  0.00  0.00    +0.154 C 
ENDROOT
BRANCH   8   6
ATOM      6  N   UNL     1      -1.848  -0.929  24.988  0.00  0.00    -0.267 NA
ATOM      7  C   UNL     1      -1.852  -1.077  25.800  0.00  0.00    +0.090 C 
BRANCH   6   5
ATOM      5  C   UNL     1      -2.508  -1.121  24.530  0.00  0.00    +0.090 C 
BRANCH   5   4
ATOM      4  C   UNL     1      -3.160  -1.483  24.880  0.00  0.00    +0.090 C 
BRANCH   4   2
ATOM      1  C   UNL     1      -4.335  -1.161  24.134  0.00  0.00    +0.090 C 
ATOM      2  N   UNL     1      -3.798  -1.721  24.414  0.00  0.00    -0.269 NA
ATOM      3  C   UNL     1      -3.899  -2.518  24.229  0.00  0.00    +0.090 C 
ENDBRANCH   4   2
ENDBRANCH   5   4
ENDBRANCH   6   5
ENDBRANCH   8   6
BRANCH  11  12
ATOM     12  C   UNL     1       0.660  -0.604  23.560  0.00  0.00    +0.214 C 
ATOM     13  O   UNL     1       0.973  -0.043  23.042  0.00  0.00    -0.218 OA
ENDBRANCH  11  12
BRANCH  15  16
ATOM     16  C   UNL     1      -1.469   0.825  24.926  0.00  0.00    +0.148 C 
BRANCH  16  17
ATOM     17  N   UNL     1      -1.103   1.481  25.265  0.00  0.00    -0.184 NA
ATOM     18  C   UNL     1      -1.476   2.216  25.245  0.00  0.00    +0.344 C 
ATOM     19  O   UNL     1      -2.214   2.295  24.887  0.00  0.00    -0.249 OA
ATOM     20  N   UNL     1      -1.110   2.874  25.585  0.00  0.00    -0.161 NA
BRANCH  20  21
ATOM     21  C   UNL     1      -1.483   3.609  25.565  0.00  0.00    +0.076 A 
ATOM     22  C   UNL     1      -1.124   4.243  25.177  0.00  0.00    +0.028 A 
ATOM     23  C   UNL     1      -1.497   4.979  25.157  0.00  0.00    +0.059 A 
ATOM     24 CL   UNL     1      -1.138   5.613  24.769  0.00  0.00    -0.082 Cl
ATOM     25  C   UNL     1      -2.228   5.081  25.523  0.00  0.00    +0.011 A 
ATOM     26  C   UNL     1      -2.587   4.447  25.911  0.00  0.00    +0.002 A 
ATOM     27  C   UNL     1      -2.214   3.711  25.931  0.00  0.00    +0.017 A 
ENDBRANCH  20  21
ENDBRANCH  16  17
ENDBRANCH  15  16
TORSDOF 8
ENDMDL
MODEL 5
REMARK VINA RESULT:      -8.0      2.459      5.328
REMARK  Name = 
REMARK  8 active torsions:
REMARK  status: ('A' for Active; 'I' for Inactive)
REMARK    1  A    between atoms: N_2  and  C_4
REMARK    2  A    between atoms: C_4  and  C_5
REMARK    3  A    between atoms: C_5  and  N_6
REMARK    4  A    between atoms: N_6  and  C_8
REMARK    5  A    between atoms: C_11  and  C_12
REMARK    6  A    between atoms: C_15  and  C_16
REMARK    7  A    between atoms: C_16  and  N_17
REMARK    8  A    between atoms: N_20  and  C_21
REMARK                            x       y       z     vdW  Elec       q    Type
REMARK                         _______ _______ _______ _____ _____    ______ ____
ROOT
ATOM      8  C   UNL     1      -0.939  -0.314  24.554  0.00  0.00    +0.120 C 
ATOM      9  C   UNL     1      -0.221  -0.327  24.147  0.00  0.00    +0.198 C 
ATOM     10  O   UNL     1       0.284  -0.975  24.079  0.00  0.00    -0.219 OA
ATOM     11  C   UNL     1      -0.098   0.421  23.823  0.00  0.00    +0.180 C 
ATOM     14  O   UNL     1      -0.740   0.897  24.029  0.00  0.00    -0.350 OA
ATOM     15  C   UNL     1      -1.260   0.443  24.480  0.00  0.00    +0.154 C 
ENDROOT
BRANCH   8   6
ATOM      6  N   UNL     1      -1.278  -0.946  24.963  0.00  0.00    -0.267 NA
ATOM      7  C   UNL     1      -1.099  -1.066  25.759  0.00  0.00    +0.090 C 
BRANCH   6   5
ATOM      5  C   UNL     1      -1.795  -1.459  24.574  0.00  0.00    +0.090 C 
BRANCH   5   4
ATOM      4  C   UNL     1      -2.146  -2.080  24.986  0.00  0.00    +0.090 C 
BRANCH   4   2
ATOM      1  C   UNL     1      -3.512  -2.476  24.850  0.00  0.00    +0.090 C 
ATOM      2  N   UNL     1      -2.723  -2.544  24.620  0.00  0.00    -0.269 NA
ATOM      3  C   UNL     1      -2.510  -3.074  24.025  0.00  0.00    +0.090 C 
ENDBRANCH   4   2
ENDBRANCH   5   4
ENDBRANCH   6   5
ENDBRANCH   8   6
BRANCH  11  12
ATOM     12  C   UNL     1       0.553   0.653  23.372  0.00  0.00    +0.214 C 
ATOM     13  O   UNL     1       0.960   1.344  23.561  0.00  0.00    -0.218 OA
ENDBRANCH  11  12
BRANCH  15  16
ATOM     16  C   UNL     1      -1.975   0.700  24.802  0.00  0.00    +0.148 C 
BRANCH  16  17
ATOM     17  N   UNL     1      -2.406   1.294  24.425  0.00  0.00    -0.184 NA
ATOM     18  C   UNL     1      -3.093   1.589  24.775  0.00  0.00    +0.344 C 
ATOM     19  O   UNL     1      -3.347   1.291  25.500  0.00  0.00    -0.249 OA
ATOM     20  N   UNL     1      -3.524   2.183  24.399  0.00  0.00    -0.161 NA
BRANCH  20  21
ATOM     21  C   UNL     1      -4.210   2.479  24.749  0.00  0.00    +0.076 A 
ATOM     22  C   UNL     1      -4.920   2.061  24.683  0.00  0.00    +0.028 A 
ATOM     23  C   UNL     1      -5.606   2.356  25.033  0.00  0.00    +0.059 A 
ATOM     24 CL   UNL     1      -6.315   1.938  24.967  0.00  0.00    -0.082 Cl
ATOM     25  C   UNL     1      -5.584   3.067  25.448  0.00  0.00    +0.011 A 
ATOM     26  C   UNL     1      -4.876   3.485  25.514  0.00  0.00    +0.002 A 
ATOM     27  C   UNL     1      -4.188   3.190  25.164  0.00  0.00    +0.017 A 
ENDBRANCH  20  21
ENDBRANCH  16  17
ENDBRANCH  15  16
TORSDOF 8
ENDMDL
