MODEL 1
REMARK VINA RESULT:     -12.7      0.000      0.000
REMARK  Name = 
REMARK  7 active torsions:
REMARK  status: ('A' for Active; 'I' for Inactive)
REMARK    1  A    between atoms: C_2  and  C_4
REMARK    2  A    between atoms: C_4  and  C_5
REMARK    3  A    between atoms: C_10  and  C_11
REMARK    4  A    between atoms: C_11  and  C_12
REMARK    5  A    between atoms: C_12  and  N_13
REMARK    6  A    between atoms: N_16  and  C_19
REMARK    7  A    between atoms: C_25  and  C_27
REMARK                            x       y       z     vdW  Elec       q    Type
REMARK                         _______ _______ _______ _____ _____    ______ ____
ROOT
ATOM      5  C   UNL     1      -4.112   3.452  25.256  0.00  0.00    +0.015 C 
ATOM      6  C   UNL     1      -3.919   4.251  25.326  0.00  0.00    +0.022 C 
ATOM      7  C   UNL     1      -3.127   4.484  25.340  0.00  0.00    +0.094 C 
ATOM      8  N   UNL     1      -2.529   3.917  25.285  0.00  0.00    -0.276 N 
ATOM      9  C   UNL     1      -2.724   3.119  25.215  0.00  0.00    +0.094 C 
ATOM     10  C   UNL     1      -3.515   2.886  25.200  0.00  0.00    +0.022 C 
ATOM     25  C   UNL     1      -1.739   4.150  25.300  0.00  0.00    +0.249 C 
ATOM     26  O   UNL     1      -1.544   4.949  25.370  0.00  0.00    -0.270 OA
ENDROOT
BRANCH  25  27
ATOM     27  C   UNL     1      -1.141   3.584  25.244  0.00  0.00    +0.054 A 
ATOM     28  C   UNL     1      -0.884   3.187  25.920  0.00  0.00    +0.007 A 
ATOM     29  C   UNL     1      -0.287   2.621  25.864  0.00  0.00    +0.030 A 
ATOM     30  C   UNL     1       0.055   2.452  25.132  0.00  0.00    +0.140 A 
ATOM     31  F   UNL     1       0.653   1.887  25.076  0.00  0.00    -0.204 F 
ATOM     32  C   UNL     1      -0.202   2.850  24.456  0.00  0.00    +0.030 A 
ATOM     33  C   UNL     1      -0.800   3.416  24.512  0.00  0.00    +0.007 A 
ENDBRANCH  25  27
BRANCH   5   4
ATOM      4  C   UNL     1      -4.904   3.220  25.241  0.00  0.00    +0.114 C 
BRANCH   4   2
ATOM      1  O   UNL     1      -5.833   4.288  25.436  0.00  0.00    -0.246 OA
ATOM      2  C   UNL     1      -5.457   3.608  25.714  0.00  0.00    +0.365 C 
ATOM      3  O   UNL     1      -5.633   3.319  26.466  0.00  0.00    -0.246 OA
ENDBRANCH   4   2
ENDBRANCH   5   4
BRANCH  10  11
ATOM     11  C   UNL     1      -3.709   2.088  25.130  0.00  0.00    +0.019 C 
BRANCH  11  12
ATOM     12  C   UNL     1      -3.523   1.677  24.438  0.00  0.00    +0.072 C 
BRANCH  12  13
ATOM     13  N   UNL     1      -3.559   0.853  24.426  0.00  0.00    -0.270 NA
ATOM     14  C   UNL     1      -4.262   0.467  24.617  0.00  0.00    +0.094 C 
ATOM     15  C   UNL     1      -4.298  -0.357  24.605  0.00  0.00    +0.108 C 
ATOM     16  N   UNL     1      -3.629  -0.795  24.402  0.00  0.00    -0.305 N 
ATOM     17  C   UNL     1      -2.925  -0.411  24.211  0.00  0.00    +0.108 C 
ATOM     18  C   UNL     1      -2.890   0.414  24.224  0.00  0.00    +0.094 C 
BRANCH  16  19
ATOM     19  C   UNL     1      -3.664  -1.620  24.390  0.00  0.00    +0.048 A 
ATOM     20  C   UNL     1      -3.256  -2.058  24.958  0.00  0.00    +0.015 A 
ATOM     21  C   UNL     1      -3.291  -2.882  24.946  0.00  0.00    +0.001 A 
ATOM     22  C   UNL     1      -3.732  -3.267  24.367  0.00  0.00    +0.000 A 
ATOM     23  C   UNL     1      -4.139  -2.830  23.798  0.00  0.00    +0.001 A 
ATOM     24  C   UNL     1      -4.105  -2.005  23.810  0.00  0.00    +0.015 A 
ENDBRANCH  16  19
ENDBRANCH  12  13
ENDBRANCH  11  12
ENDBRANCH  10  11
TORSDOF 7
ENDMDL
MODEL 2
REMARK VINA RESULT:     -11.5      1.667      3.323
REMARK  Name = 
REMARK  7 active torsions:
REMARK  status: ('A' for Active; 'I' for Inactive)
REMARK    1  A    between atoms: C_2  and  C_4
REMARK    2  A    between atoms: C_4  and  C_5
REMARK    3  A    between atoms: C_10  and  C_11
REMARK    4  A    between atoms: C_11  and  C_12
REMARK    5  A    between atoms: C_12  and  N_13
REMARK    6  A    between atoms: N_16  and  C_19
REMARK    7  A    between atoms: C_25  and  C_27
REMARK                            x       y       z     vdW  Elec       q    Type
REMARK                         _______ _______ _______ _____ _____    ______ ____
ROOT
ATOM      5  C   UNL     1      -0.848   2.518  25.034  0.00  0.00    +0.015 C 
ATOM      6  C   UNL     1      -0.636   3.294  25.219  0.00  0.00    +0.022 C 
ATOM      7  C   UNL     1      -1.221   3.859  25.355  0.00  0.00    +0.094 C 
ATOM      8  N   UNL     1      -2.018   3.648  25.306  0.00  0.00    -0.276 N 
ATOM      9  C   UNL     1      -2.228   2.872  25.122  0.00  0.00    +0.094 C 
ATOM     10  C   UNL     1      -1.643   2.307  24.985  0.00  0.00    +0.022 C 
ATOM     25  C   UNL     1      -2.603   4.213  25.442  0.00  0.00    +0.249 C 
ATOM     26  O   UNL     1      -2.392   4.990  25.627  0.00  0.00    -0.270 OA
ENDROOT
BRANCH  25  27
ATOM     27  C   UNL     1      -3.399   4.003  25.394  0.00  0.00    +0.054 A 
ATOM     28  C   UNL     1      -3.779   3.991  24.662  0.00  0.00    +0.007 A 
ATOM     29  C   UNL     1      -4.575   3.781  24.614  0.00  0.00    +0.030 A 
ATOM     30  C   UNL     1      -4.992   3.583  25.298  0.00  0.00    +0.140 A 
ATOM     31  F   UNL     1      -5.788   3.372  25.251  0.00  0.00    -0.204 F 
ATOM     32  C   UNL     1      -4.611   3.595  26.030  0.00  0.00    +0.030 A 
ATOM     33  C   UNL     1      -3.814   3.805  26.078  0.00  0.00    +0.007 A 
ENDBRANCH  25  27
BRANCH   5   4
ATOM      4  C   UNL     1      -0.262   1.952  24.898  0.00  0.00    +0.114 C 
BRANCH   4   2
ATOM      1  O   UNL     1       0.911   2.291  25.640  0.00  0.00    -0.246 OA
ATOM      2  C   UNL     1       0.534   2.170  24.916  0.00  0.00    +0.365 C 
ATOM      3  O   UNL     1       0.952   2.267  24.212  0.00  0.00    -0.246 OA
ENDBRANCH   4   2
ENDBRANCH   5   4
BRANCH  10  11
ATOM     11  C   UNL     1      -1.854   1.532  24.801  0.00  0.00    +0.019 C 
BRANCH  11  12
ATOM     12  C   UNL     1      -2.277   1.078  25.346  0.00  0.00    +0.072 C 
BRANCH  12  13
ATOM     13  N   UNL     1      -2.594   0.351  25.120  0.00  0.00    -0.270 NA
ATOM     14  C   UNL     1      -2.111  -0.318  25.088  0.00  0.00    +0.094 C 
ATOM     15  C   UNL     1      -2.428  -1.045  24.862  0.00  0.00    +0.108 C 
ATOM     16  N   UNL     1      -3.227  -1.104  24.666  0.00  0.00    -0.305 N 
ATOM     17  C   UNL     1      -3.710  -0.436  24.697  0.00  0.00    +0.108 C 
ATOM     18  C   UNL     1      -3.393   0.292  24.924  0.00  0.00    +0.094 C 
BRANCH  16  19
ATOM     19  C   UNL     1      -3.545  -1.831  24.439  0.00  0.00    +0.048 A 
ATOM     20  C   UNL     1      -4.133  -1.861  23.861  0.00  0.00    +0.015 A 
ATOM     21  C   UNL     1      -4.451  -2.588  23.635  0.00  0.00    +0.001 A 
ATOM     22  C   UNL     1      -4.181  -3.283  23.984  0.00  0.00    +0.000 A 
ATOM     23  C   UNL     1      -3.592  -3.253  24.562  0.00  0.00    +0.001 A 
ATOM     24  C   UNL     1      -3.274  -2.526  24.789  0.00  0.00    +0.015 A 
ENDBRANCH  16  19
ENDBRANCH  12  13
ENDBRANCH  11  12
ENDBRANCH  10  11
TORSDOF 7
ENDMDL
MODEL 3
REMARK VINA RESULT:     -11.0      2.685      4.618
REMARK  Name = 
REMARK  7 active torsions:
REMARK  status: ('A' for Active; 'I' for Inactive)
REMARK    1  A    between atoms: C_2  and  C_4
REMARK    2  A    between atoms: C_4  and  C_5
REMARK    3  A    between atoms: C_10  and  C_11
REMARK    4  A    between atoms: C_11  and  C_12
REMARK    5  A    between atoms: C_12  and  N_13
REMARK    6  A    between atoms: N_16  and  C_19
REMARK    7  A    between atoms: C_25  and  C_27
REMARK                            x       y       z     vdW  Elec       q    Type
REMARK                         _______ _______ _______ _____ _____    ______ ____
ROOT
ATOM      5  C   UNL     1      -3.718  -0.487  24.507  0.00  0.00    +0.015 C 
ATOM      6  C   UNL     1      -4.481  -0.416  24.812  0.00  0.00    +0.022 C 
ATOM      7  C   UNL     1      -4.791   0.330  24.979  0.00  0.00    +0.094 C 
ATOM      8  N   UNL     1      -4.337   1.006  24.841  0.00  0.00    -0.276 N 
ATOM      9  C   UNL     1      -3.574   0.934  24.536  0.00  0.00    +0.094 C 
ATOM     10  C   UNL     1      -3.264   0.188  24.369  0.00  0.00    +0.022 C 
ATOM     25  C   UNL     1      -4.646   1.751  25.008  0.00  0.00    +0.249 C 
ATOM     26  O   UNL     1      -5.410   1.823  25.313  0.00  0.00    -0.270 OA
ENDROOT
BRANCH  25  27
ATOM     27  C   UNL     1      -4.193   2.427  24.870  0.00  0.00    +0.054 A 
ATOM     28  C   UNL     1      -4.189   2.777  24.123  0.00  0.00    +0.007 A 
ATOM     29  C   UNL     1      -3.736   3.451  23.987  0.00  0.00    +0.030 A 
ATOM     30  C   UNL     1      -3.286   3.778  24.596  0.00  0.00    +0.140 A 
ATOM     31  F   UNL     1      -2.832   4.453  24.460  0.00  0.00    -0.204 F 
ATOM     32  C   UNL     1      -3.289   3.428  25.344  0.00  0.00    +0.030 A 
ATOM     33  C   UNL     1      -3.743   2.752  25.481  0.00  0.00    +0.007 A 
ENDBRANCH  25  27
BRANCH   5   4
ATOM      4  C   UNL     1      -3.408  -1.234  24.340  0.00  0.00    +0.114 C 
BRANCH   4   2
ATOM      1  O   UNL     1      -4.407  -2.124  23.839  0.00  0.00    -0.246 OA
ATOM      2  C   UNL     1      -3.878  -1.905  24.433  0.00  0.00    +0.365 C 
ATOM      3  O   UNL     1      -3.820  -2.358  25.120  0.00  0.00    -0.246 OA
ENDBRANCH   4   2
ENDBRANCH   5   4
BRANCH  10  11
ATOM     11  C   UNL     1      -2.501   0.117  24.065  0.00  0.00    +0.019 C 
BRANCH  11  12
ATOM     12  C   UNL     1      -1.853   0.368  24.511  0.00  0.00    +0.072 C 
BRANCH  12  13
ATOM     13  N   UNL     1      -1.097   0.361  24.181  0.00  0.00    -0.270 NA
ATOM     14  C   UNL     1      -0.805   1.033  23.802  0.00  0.00    +0.094 C 
ATOM     15  C   UNL     1      -0.050   1.026  23.471  0.00  0.00    +0.108 C 
ATOM     16  N   UNL     1       0.414   0.346  23.520  0.00  0.00    -0.305 N 
ATOM     17  C   UNL     1       0.124  -0.327  23.898  0.00  0.00    +0.108 C 
ATOM     18  C   UNL     1      -0.633  -0.319  24.229  0.00  0.00    +0.094 C 
BRANCH  16  19
ATOM     19  C   UNL     1       1.170   0.337  23.190  0.00  0.00    +0.048 A 
ATOM     20  C   UNL     1       1.347  -0.187  22.577  0.00  0.00    +0.015 A 
ATOM     21  C   UNL     1       2.102  -0.196  22.247  0.00  0.00    +0.001 A 
ATOM     22  C   UNL     1       2.681   0.319  22.528  0.00  0.00    +0.000 A 
ATOM     23  C   UNL     1       2.505   0.843  23.140  0.00  0.00    +0.001 A 
ATOM     24  C   UNL     1       1.749   0.852  23.471  0.00  0.00    +0.015 A 
ENDBRANCH  16  19
ENDBRANCH  12  13
ENDBRANCH  11  12
ENDBRANCH  10  11
TORSDOF 7
ENDMDL
MODEL 4
REMARK VINA RESULT:     -10.8      2.458      4.638
REMARK  Name = 
REMARK  7 active torsions:
REMARK  status: ('A' for Active; 'I' for Inactive)
REMARK    1  A    between atoms: C_2  and  C_4
REMARK    2  A    between atoms: C_4  and  C_5
REMARK    3  A    between atoms: C_10  and  C_11
REMARK    4  A    between atoms: C_11  and  C_12
REMARK    5  A    between atoms: C_12  and  N_13
REMARK    6  A    between atoms: N_16  and  C_19
REMARK    7  A    between atoms: C_25  and  C_27
REMARK                            x       y       z     vdW  Elec       q    Type
REMARK                         _______ _______ _______ _____ _____    ______ ____
ROOT
ATOM      5  C   UNL     1      -3.137   2.373  24.706  0.00  0.00    +0.015 C 
ATOM      6  C   UNL     1      -3.895   2.434  25.027  0.00  0.00    +0.022 C 
ATOM      7  C   UNL     1      -4.336   1.753  25.175  0.00  0.00    +0.094 C 
ATOM      8  N   UNL     1      -4.018   1.010  25.003  0.00  0.00    -0.276 N 
ATOM      9  C   UNL     1      -3.261   0.950  24.682  0.00  0.00    +0.094 C 
ATOM     10  C   UNL     1      -2.820   1.632  24.533  0.00  0.00    +0.022 C 
ATOM     25  C   UNL     1      -4.458   0.329  25.151  0.00  0.00    +0.249 C 
ATOM     26  O   UNL     1      -5.217   0.389  25.472  0.00  0.00    -0.270 OA
ENDROOT
BRANCH  25  27
ATOM     27  C   UNL     1      -4.142  -0.413  24.979  0.00  0.00    +0.054 A 
ATOM     28  C   UNL     1      -4.232  -0.736  24.225  0.00  0.00    +0.007 A 
ATOM     29  C   UNL     1      -3.915  -1.477  24.054  0.00  0.00    +0.030 A 
ATOM     30  C   UNL     1      -3.508  -1.897  24.636  0.00  0.00    +0.140 A 
ATOM     31  F   UNL     1      -3.191  -2.639  24.465  0.00  0.00    -0.204 F 
ATOM     32  C   UNL     1      -3.418  -1.574  25.390  0.00  0.00    +0.030 A 
ATOM     33  C   UNL     1      -3.735  -0.831  25.562  0.00  0.00    +0.007 A 
ENDBRANCH  25  27
BRANCH   5   4
ATOM      4  C   UNL     1      -2.696   3.056  24.557  0.00  0.00    +0.114 C 
BRANCH   4   2
ATOM      1  O   UNL     1      -2.820   4.162  25.452  0.00  0.00    -0.246 OA
ATOM      2  C   UNL     1      -3.011   3.797  24.738  0.00  0.00    +0.365 C 
ATOM      3  O   UNL     1      -3.515   4.172  24.205  0.00  0.00    -0.246 OA
ENDBRANCH   4   2
ENDBRANCH   5   4
BRANCH  10  11
ATOM     11  C   UNL     1      -2.063   1.572  24.213  0.00  0.00    +0.019 C 
BRANCH  11  12
ATOM     12  C   UNL     1      -1.469   1.176  24.628  0.00  0.00    +0.072 C 
BRANCH  12  13
ATOM     13  N   UNL     1      -0.749   1.011  24.261  0.00  0.00    -0.270 NA
ATOM     14  C   UNL     1      -0.151   1.579  24.250  0.00  0.00    +0.094 C 
ATOM     15  C   UNL     1       0.569   1.415  23.883  0.00  0.00    +0.108 C 
ATOM     16  N   UNL     1       0.691   0.681  23.526  0.00  0.00    -0.305 N 
ATOM     17  C   UNL     1       0.094   0.112  23.536  0.00  0.00    +0.108 C 
ATOM     18  C   UNL     1      -0.627   0.278  23.904  0.00  0.00    +0.094 C 
BRANCH  16  19
ATOM     19  C   UNL     1       1.410   0.515  23.158  0.00  0.00    +0.048 A 
ATOM     20  C   UNL     1       1.447  -0.055  22.562  0.00  0.00    +0.015 A 
ATOM     21  C   UNL     1       2.167  -0.221  22.195  0.00  0.00    +0.001 A 
ATOM     22  C   UNL     1       2.848   0.183  22.422  0.00  0.00    +0.000 A 
ATOM     23  C   UNL     1       2.812   0.753  23.017  0.00  0.00    +0.001 A 
ATOM     24  C   UNL     1       2.092   0.919  23.385  0.00  0.00    +0.015 A 
ENDBRANCH  16  19
ENDBRANCH  12  13
ENDBRANCH  11  12
ENDBRANCH  10  11
TORSDOF 7
ENDMDL
MODEL 5
REMARK VINA RESULT:     -10.6      2.496      4.825
REMARK  Name = 
REMARK  7 active torsions:
REMARK  status: ('A' for Active; 'I' for Inactive)
REMARK    1  A    between atoms: C_2  and  C_4
REMARK    2  A    between atoms: C_4  and  C_5
REMARK    3  A    between atoms: C_10  and  C_11
REMARK    4  A    between atoms: C_11  and  C_12
REMARK    5  A    between atoms: C_12  and  N_13
REMARK    6  A    between atoms: N_16  and  C_19
REMARK    7  A    between atoms: C_25  and  C_27
REMARK                            x       y       z     vdW  Elec       q    Type
REMARK                         _______ _______ _______ _____ _____    ______ ____
ROOT
ATOM      5  C   UNL     1      -2.828  -1.785  24.548  0.00  0.00    +0.015 C 
ATOM      6  C   UNL     1      -2.152  -2.246  24.439  0.00  0.00    +0.022 C 
ATOM      7  C   UNL     1      -1.406  -1.894  24.456  0.00  0.00    +0.094 C 
ATOM      8  N   UNL     1      -1.336  -1.081  24.582  0.00  0.00    -0.276 N 
ATOM      9  C   UNL     1      -2.013  -0.621  24.690  0.00  0.00    +0.094 C 
ATOM     10  C   UNL     1      -2.759  -0.973  24.673  0.00  0.00    +0.022 C 
ATOM     25  C   UNL     1      -0.591  -0.729  24.599  0.00  0.00    +0.249 C 
ATOM     26  O   UNL     1       0.085  -1.189  24.490  0.00  0.00    -0.270 OA
ENDROOT
BRANCH  25  27
ATOM     27  C   UNL     1      -0.521   0.083  24.724  0.00  0.00    +0.054 A 
ATOM     28  C   UNL     1      -0.605   0.392  25.485  0.00  0.00    +0.007 A 
ATOM     29  C   UNL     1      -0.534   1.204  25.609  0.00  0.00    +0.030 A 
ATOM     30  C   UNL     1      -0.380   1.708  24.975  0.00  0.00    +0.140 A 
ATOM     31  F   UNL     1      -0.309   2.521  25.099  0.00  0.00    -0.204 F 
ATOM     32  C   UNL     1      -0.295   1.399  24.214  0.00  0.00    +0.030 A 
ATOM     33  C   UNL     1      -0.366   0.586  24.089  0.00  0.00    +0.007 A 
ENDBRANCH  25  27
BRANCH   5   4
ATOM      4  C   UNL     1      -3.575  -2.137  24.530  0.00  0.00    +0.114 C 
BRANCH   4   2
ATOM      1  O   UNL     1      -3.769  -3.373  23.839  0.00  0.00    -0.246 OA
ATOM      2  C   UNL     1      -3.643  -2.960  24.542  0.00  0.00    +0.365 C 
ATOM      3  O   UNL     1      -3.584  -3.369  25.256  0.00  0.00    -0.246 OA
ENDBRANCH   4   2
ENDBRANCH   5   4
BRANCH  10  11
ATOM     11  C   UNL     1      -3.434  -0.513  24.782  0.00  0.00    +0.019 C 
BRANCH  11  12
ATOM     12  C   UNL     1      -3.650   0.044  24.212  0.00  0.00    +0.072 C 
BRANCH  12  13
ATOM     13  N   UNL     1      -3.984   0.762  24.443  0.00  0.00    -0.270 NA
ATOM     14  C   UNL     1      -3.840   1.446  24.004  0.00  0.00    +0.094 C 
ATOM     15  C   UNL     1      -4.173   2.163  24.235  0.00  0.00    +0.108 C 
ATOM     16  N   UNL     1      -4.651   2.198  24.906  0.00  0.00    -0.305 N 
ATOM     17  C   UNL     1      -4.796   1.516  25.346  0.00  0.00    +0.108 C 
ATOM     18  C   UNL     1      -4.462   0.797  25.114  0.00  0.00    +0.094 C 
BRANCH  16  19
ATOM     19  C   UNL     1      -4.985   2.916  25.139  0.00  0.00    +0.048 A 
ATOM     20  C   UNL     1      -4.536   3.608  25.109  0.00  0.00    +0.015 A 
ATOM     21  C   UNL     1      -4.870   4.326  25.341  0.00  0.00    +0.001 A 
ATOM     22  C   UNL     1      -5.651   4.352  25.603  0.00  0.00    +0.000 A 
ATOM     23  C   UNL     1      -6.100   3.661  25.633  0.00  0.00    +0.001 A 
ATOM     24  C   UNL     1      -5.766   2.942  25.400  0.00  0.00    +0.015 A 
ENDBRANCH  16  19
ENDBRANCH  12  13
ENDBRANCH  11  12
ENDBRANCH  10  11
TORSDOF 7
ENDMDL
MODEL 6
REMARK VINA RESULT:     -10.2      2.903      6.173
REMARK  Name = 
REMARK  7 active torsions:
REMARK  status: ('A' for Active; 'I' for Inactive)
REMARK    1  A    between atoms: C_2  and  C_4
REMARK    2  A    between atoms: C_4  and  C_5
REMARK    3  A    between atoms: C_10  and  C_11
REMARK    4  A    between atoms: C_11  and  C_12
REMARK    5  A    between atoms: C_12  and  N_13
REMARK    6  A    between atoms: N_16  and  C_19
REMARK    7  A    between atoms: C_25  and  C_27
REMARK                            x       y       z     vdW  Elec       q    Type
REMARK                         _______ _______ _______ _____ _____    ______ ____
ROOT
ATOM      5  C   UNL     1      -0.018  -0.457  23.885  0.00  0.00    +0.015 C 
ATOM      6  C   UNL     1       0.031  -1.279  23.834  0.00  0.00    +0.022 C 
ATOM      7  C   UNL     1      -0.602  -1.745  24.085  0.00  0.00    +0.094 C 
ATOM      8  N   UNL     1      -1.284  -1.389  24.386  0.00  0.00    -0.276 N 
ATOM      9  C   UNL     1      -1.331  -0.567  24.436  0.00  0.00    +0.094 C 
ATOM     10  C   UNL     1      -0.698  -0.101  24.185  0.00  0.00    +0.022 C 
ATOM     25  C   UNL     1      -1.916  -1.854  24.637  0.00  0.00    +0.249 C 
ATOM     26  O   UNL     1      -1.868  -2.677  24.587  0.00  0.00    -0.270 OA
ENDROOT
BRANCH  25  27
ATOM     27  C   UNL     1      -2.597  -1.499  24.938  0.00  0.00    +0.054 A 
ATOM     28  C   UNL     1      -3.206  -1.275  24.428  0.00  0.00    +0.007 A 
ATOM     29  C   UNL     1      -3.886  -0.920  24.730  0.00  0.00    +0.030 A 
ATOM     30  C   UNL     1      -3.958  -0.788  25.541  0.00  0.00    +0.140 A 
ATOM     31  F   UNL     1      -4.639  -0.432  25.843  0.00  0.00    -0.204 F 
ATOM     32  C   UNL     1      -3.349  -1.012  26.051  0.00  0.00    +0.030 A 
ATOM     33  C   UNL     1      -2.668  -1.367  25.749  0.00  0.00    +0.007 A 
ENDBRANCH  25  27
BRANCH   5   4
ATOM      4  C   UNL     1       0.616   0.010  23.633  0.00  0.00    +0.114 C 
BRANCH   4   2
ATOM      1  O   UNL     1       1.851  -0.626  23.298  0.00  0.00    -0.246 OA
ATOM      2  C   UNL     1       1.140  -0.278  23.065  0.00  0.00    +0.365 C 
ATOM      3  O   UNL     1       0.953  -0.220  22.264  0.00  0.00    -0.246 OA
ENDBRANCH   4   2
ENDBRANCH   5   4
BRANCH  10  11
ATOM     11  C   UNL     1      -0.746   0.721  24.235  0.00  0.00    +0.019 C 
BRANCH  11  12
ATOM     12  C   UNL     1      -0.918   1.081  24.958  0.00  0.00    +0.072 C 
BRANCH  12  13
ATOM     13  N   UNL     1      -1.053   1.894  24.992  0.00  0.00    -0.270 NA
ATOM     14  C   UNL     1      -0.601   2.368  25.493  0.00  0.00    +0.094 C 
ATOM     15  C   UNL     1      -0.736   3.181  25.526  0.00  0.00    +0.108 C 
ATOM     16  N   UNL     1      -1.324   3.521  25.057  0.00  0.00    -0.305 N 
ATOM     17  C   UNL     1      -1.776   3.048  24.555  0.00  0.00    +0.108 C 
ATOM     18  C   UNL     1      -1.641   2.234  24.522  0.00  0.00    +0.094 C 
BRANCH  16  19
ATOM     19  C   UNL     1      -1.460   4.334  25.089  0.00  0.00    +0.048 A 
ATOM     20  C   UNL     1      -0.884   4.859  24.815  0.00  0.00    +0.015 A 
ATOM     21  C   UNL     1      -1.020   5.672  24.848  0.00  0.00    +0.001 A 
ATOM     22  C   UNL     1      -1.729   5.960  25.153  0.00  0.00    +0.000 A 
ATOM     23  C   UNL     1      -2.304   5.436  25.427  0.00  0.00    +0.001 A 
ATOM     24  C   UNL     1      -2.169   4.622  25.395  0.00  0.00    +0.015 A 
ENDBRANCH  16  19
ENDBRANCH  12  13
ENDBRANCH  11  12
ENDBRANCH  10  11
TORSDOF 7
ENDMDL
MODEL 7
REMARK VINA RESULT:     -10.0      2.789      5.408
REMARK  Name = 
REMARK  7 active torsions:
REMARK  status: ('A' for Active; 'I' for Inactive)
REMARK    1  A    between atoms: C_2  and  C_4
REMARK    2  A    between atoms: C_4  and  C_5
REMARK    3  A    between atoms: C_10  and  C_11
REMARK    4  A    between atoms: C_11  and  C_12
REMARK    5  A    between atoms: C_12  and  N_13
REMARK    6  A    between atoms: N_16  and  C_19
REMARK    7  A    between atoms: C_25  and  C_27
REMARK                            x       y       z     vdW  Elec       q    Type
REMARK                         _______ _______ _______ _____ _____    ______ ____
ROOT
ATOM      5  C   UNL     1      -0.034   0.270  23.813  0.00  0.00    +0.015 C 
ATOM      6  C   UNL     1       0.282  -0.491  23.770  0.00  0.00    +0.022 C 
ATOM      7  C   UNL     1      -0.143  -1.132  24.070  0.00  0.00    +0.094 C 
ATOM      8  N   UNL     1      -0.884  -1.011  24.412  0.00  0.00    -0.276 N 
ATOM      9  C   UNL     1      -1.200  -0.250  24.454  0.00  0.00    +0.094 C 
ATOM     10  C   UNL     1      -0.775   0.390  24.154  0.00  0.00    +0.022 C 
ATOM     25  C   UNL     1      -1.309  -1.651  24.712  0.00  0.00    +0.249 C 
ATOM     26  O   UNL     1      -0.993  -2.412  24.670  0.00  0.00    -0.270 OA
ENDROOT
BRANCH  25  27
ATOM     27  C   UNL     1      -2.050  -1.531  25.054  0.00  0.00    +0.054 A 
ATOM     28  C   UNL     1      -2.107  -1.256  25.830  0.00  0.00    +0.007 A 
ATOM     29  C   UNL     1      -2.848  -1.137  26.171  0.00  0.00    +0.030 A 
ATOM     30  C   UNL     1      -3.533  -1.291  25.737  0.00  0.00    +0.140 A 
ATOM     31  F   UNL     1      -4.275  -1.172  26.078  0.00  0.00    -0.204 F 
ATOM     32  C   UNL     1      -3.475  -1.565  24.961  0.00  0.00    +0.030 A 
ATOM     33  C   UNL     1      -2.733  -1.685  24.619  0.00  0.00    +0.007 A 
ENDBRANCH  25  27
BRANCH   5   4
ATOM      4  C   UNL     1       0.391   0.911  23.512  0.00  0.00    +0.114 C 
BRANCH   4   2
ATOM      1  O   UNL     1       1.737   1.241  23.860  0.00  0.00    -0.246 OA
ATOM      2  C   UNL     1       1.202   0.840  23.377  0.00  0.00    +0.365 C 
ATOM      3  O   UNL     1       1.478   0.369  22.759  0.00  0.00    -0.246 OA
ENDBRANCH   4   2
ENDBRANCH   5   4
BRANCH  10  11
ATOM     11  C   UNL     1      -1.091   1.151  24.196  0.00  0.00    +0.019 C 
BRANCH  11  12
ATOM     12  C   UNL     1      -1.717   1.365  23.703  0.00  0.00    +0.072 C 
BRANCH  12  13
ATOM     13  N   UNL     1      -2.371   1.761  24.014  0.00  0.00    -0.270 NA
ATOM     14  C   UNL     1      -2.296   2.202  24.708  0.00  0.00    +0.094 C 
ATOM     15  C   UNL     1      -2.949   2.596  25.019  0.00  0.00    +0.108 C 
ATOM     16  N   UNL     1      -3.679   2.551  24.637  0.00  0.00    -0.305 N 
ATOM     17  C   UNL     1      -3.755   2.110  23.944  0.00  0.00    +0.108 C 
ATOM     18  C   UNL     1      -3.101   1.715  23.632  0.00  0.00    +0.094 C 
BRANCH  16  19
ATOM     19  C   UNL     1      -4.333   2.945  24.948  0.00  0.00    +0.048 A 
ATOM     20  C   UNL     1      -4.968   2.514  25.251  0.00  0.00    +0.015 A 
ATOM     21  C   UNL     1      -5.623   2.909  25.562  0.00  0.00    +0.001 A 
ATOM     22  C   UNL     1      -5.642   3.733  25.570  0.00  0.00    +0.000 A 
ATOM     23  C   UNL     1      -5.008   4.164  25.266  0.00  0.00    +0.001 A 
ATOM     24  C   UNL     1      -4.352   3.769  24.955  0.00  0.00    +0.015 A 
ENDBRANCH  16  19
ENDBRANCH  12  13
ENDBRANCH  11  12
ENDBRANCH  10  11
TORSDOF 7
ENDMDL
