MODEL 1
REMARK VINA RESULT:     -11.6      0.000      0.000
REMARK  Name = 
REMARK  7 active torsions:
REMARK  status: ('A' for Active; 'I' for Inactive)
REMARK    1  A    between atoms: O_2  and  C_3
REMARK    2  A    between atoms: C_3  and  C_5
REMARK    3  A    between atoms: C_5  and  C_6
REMARK    4  A    between atoms: C_5  and  N_13
REMARK    5  A    between atoms: C_6  and  C_7
REMARK    6  A    between atoms: C_14  and  C_16
REMARK    7  A    between atoms: C_30  and  C_32
REMARK                            x       y       z     vdW  Elec       q    Type
REMARK                         _______ _______ _______ _____ _____    ______ ____
ROOT
ATOM     16  C   UNL     1      -2.326   1.036  24.370  0.00  0.00    +0.175 C 
ATOM     17  C   UNL     1      -2.992   0.602  24.592  0.00  0.00    +0.123 C 
ATOM     18  N   UNL     1      -2.960  -0.222  24.614  0.00  0.00    -0.276 N 
ATOM     19  C   UNL     1      -2.261  -0.612  24.413  0.00  0.00    +0.115 C 
ATOM     20  C   UNL     1      -1.595  -0.179  24.192  0.00  0.00    +0.117 C 
ATOM     21  N   UNL     1      -1.628   0.645  24.170  0.00  0.00    -0.254 N 
ATOM     22  C   UNL     1      -0.962   1.079  23.949  0.00  0.00    +0.308 C 
ATOM     23  O   UNL     1      -0.994   1.903  23.927  0.00  0.00    -0.252 OA
ATOM     24  N   UNL     1      -0.263   0.688  23.748  0.00  0.00    -0.259 N 
ATOM     25  C   UNL     1      -0.231  -0.136  23.770  0.00  0.00    +0.127 C 
ATOM     26  C   UNL     1       0.467  -0.527  23.570  0.00  0.00    +0.164 C 
ATOM     27  O   UNL     1       1.134  -0.094  23.348  0.00  0.00    -0.350 OA
ATOM     28  C   UNL     1       1.102   0.730  23.327  0.00  0.00    +0.164 C 
ATOM     29  C   UNL     1       0.403   1.121  23.527  0.00  0.00    +0.127 C 
ATOM     30  C   UNL     1      -3.626  -0.654  24.835  0.00  0.00    +0.225 C 
ATOM     31  O   UNL     1      -4.325  -0.264  25.035  0.00  0.00    -0.275 OA
ENDROOT
BRANCH  30  32
ATOM     32  C   UNL     1      -3.593  -1.478  24.857  0.00  0.00    +0.080 C 
ATOM     33  C   UNL     1      -3.819  -1.918  24.195  0.00  0.00    +0.028 C 
ATOM     34  C   UNL     1      -3.786  -2.742  24.217  0.00  0.00    +0.089 C 
ATOM     35  N   UNL     1      -3.528  -3.127  24.900  0.00  0.00    -0.218 NA
ATOM     36  C   UNL     1      -3.303  -2.688  25.560  0.00  0.00    +0.089 C 
ATOM     37  C   UNL     1      -3.336  -1.864  25.539  0.00  0.00    +0.028 C 
ENDBRANCH  30  32
BRANCH  16  14
ATOM     13  N   UNL     1      -2.628   2.279  25.005  0.00  0.00    -0.194 NA
ATOM     14  C   UNL     1      -2.358   1.860  24.349  0.00  0.00    +0.262 C 
ATOM     15  O   UNL     1      -2.120   2.264  23.670  0.00  0.00    -0.271 OA
BRANCH  13   5
ATOM      5  C   UNL     1      -2.661   3.104  24.983  0.00  0.00    +0.198 C 
BRANCH   5   3
ATOM      3  C   UNL     1      -2.051   3.550  25.314  0.00  0.00    +0.337 C 
ATOM      4  O   UNL     1      -1.754   3.354  26.060  0.00  0.00    -0.248 OA
BRANCH   3   2
ATOM      1  C   UNL     1      -1.158   4.663  25.251  0.00  0.00    +0.256 C 
ATOM      2  O   UNL     1      -1.737   4.191  24.901  0.00  0.00    -0.443 OA
ENDBRANCH   3   2
ENDBRANCH   5   3
BRANCH   5   6
ATOM      6  C   UNL     1      -3.303   3.483  24.631  0.00  0.00    +0.061 C 
BRANCH   6   7
ATOM      7  C   UNL     1      -4.041   3.472  24.999  0.00  0.00    -0.001 A 
ATOM      8  C   UNL     1      -4.701   3.189  24.591  0.00  0.00    -0.001 A 
ATOM      9  C   UNL     1      -5.439   3.178  24.959  0.00  0.00    +0.020 A 
ATOM     10  C   UNL     1      -5.518   3.450  25.734  0.00  0.00    +0.099 A 
ATOM     11  N   UNL     1      -4.859   3.733  26.141  0.00  0.00    -0.243 NA
ATOM     12  C   UNL     1      -4.120   3.744  25.773  0.00  0.00    +0.095 A 
ENDBRANCH   6   7
ENDBRANCH   5   6
ENDBRANCH  13   5
ENDBRANCH  16  14
TORSDOF 7
ENDMDL
MODEL 2
REMARK VINA RESULT:     -10.1      1.383      4.363
REMARK  Name = 
REMARK  7 active torsions:
REMARK  status: ('A' for Active; 'I' for Inactive)
REMARK    1  A    between atoms: O_2  and  C_3
REMARK    2  A    between atoms: C_3  and  C_5
REMARK    3  A    between atoms: C_5  and  C_6
REMARK    4  A    between atoms: C_5  and  N_13
REMARK    5  A    between atoms: C_6  and  C_7
REMARK    6  A    between atoms: C_14  and  C_16
REMARK    7  A    between atoms: C_30  and  C_32
REMARK                            x       y       z     vdW  Elec       q    Type
REMARK                         _______ _______ _______ _____ _____    ______ ____
ROOT
ATOM     16  C   UNL     1      -1.464   0.832  24.530  0.00  0.00    +0.175 C 
ATOM     17  C   UNL     1      -1.040   0.209  24.192  0.00  0.00    +0.123 C 
ATOM     18  N   UNL     1      -0.306   0.351  23.843  0.00  0.00    -0.276 N 
ATOM     19  C   UNL     1       0.004   1.116  23.830  0.00  0.00    +0.115 C 
ATOM     20  C   UNL     1      -0.419   1.738  24.167  0.00  0.00    +0.117 C 
ATOM     21  N   UNL     1      -1.153   1.596  24.517  0.00  0.00    -0.254 N 
ATOM     22  C   UNL     1      -1.577   2.218  24.855  0.00  0.00    +0.308 C 
ATOM     23  O   UNL     1      -2.310   2.077  25.204  0.00  0.00    -0.252 OA
ATOM     24  N   UNL     1      -1.266   2.983  24.842  0.00  0.00    -0.259 N 
ATOM     25  C   UNL     1      -0.532   3.125  24.492  0.00  0.00    +0.127 C 
ATOM     26  C   UNL     1      -0.223   3.889  24.480  0.00  0.00    +0.164 C 
ATOM     27  O   UNL     1      -0.646   4.512  24.817  0.00  0.00    -0.350 OA
ATOM     28  C   UNL     1      -1.379   4.370  25.167  0.00  0.00    +0.164 C 
ATOM     29  C   UNL     1      -1.690   3.605  25.179  0.00  0.00    +0.127 C 
ATOM     30  C   UNL     1       0.117  -0.271  23.506  0.00  0.00    +0.225 C 
ATOM     31  O   UNL     1      -0.193  -1.036  23.518  0.00  0.00    -0.275 OA
ENDROOT
BRANCH  30  32
ATOM     32  C   UNL     1       0.850  -0.129  23.156  0.00  0.00    +0.080 C 
ATOM     33  C   UNL     1       0.935  -0.186  22.336  0.00  0.00    +0.028 C 
ATOM     34  C   UNL     1       1.669  -0.044  21.987  0.00  0.00    +0.089 C 
ATOM     35  N   UNL     1       2.318   0.154  22.456  0.00  0.00    -0.218 NA
ATOM     36  C   UNL     1       2.233   0.211  23.274  0.00  0.00    +0.089 C 
ATOM     37  C   UNL     1       1.500   0.069  23.624  0.00  0.00    +0.028 C 
ENDBRANCH  30  32
BRANCH  16  14
ATOM     13  N   UNL     1      -2.799   0.333  24.445  0.00  0.00    -0.194 NA
ATOM     14  C   UNL     1      -2.197   0.691  24.880  0.00  0.00    +0.262 C 
ATOM     15  O   UNL     1      -2.328   0.907  25.665  0.00  0.00    -0.271 OA
BRANCH  13   5
ATOM      5  C   UNL     1      -3.533   0.191  24.794  0.00  0.00    +0.198 C 
BRANCH   5   3
ATOM      3  C   UNL     1      -4.162   0.706  24.657  0.00  0.00    +0.337 C 
ATOM      4  O   UNL     1      -4.294   1.002  23.898  0.00  0.00    -0.248 OA
BRANCH   3   2
ATOM      1  C   UNL     1      -5.285   1.445  25.141  0.00  0.00    +0.256 C 
ATOM      2  O   UNL     1      -4.659   0.926  25.278  0.00  0.00    -0.443 OA
ENDBRANCH   3   2
ENDBRANCH   5   3
BRANCH   5   6
ATOM      6  C   UNL     1      -3.638  -0.466  25.282  0.00  0.00    +0.061 C 
BRANCH   6   7
ATOM      7  C   UNL     1      -3.706  -1.219  24.951  0.00  0.00    -0.001 A 
ATOM      8  C   UNL     1      -3.361  -1.867  25.328  0.00  0.00    -0.001 A 
ATOM      9  C   UNL     1      -3.429  -2.620  24.998  0.00  0.00    +0.020 A 
ATOM     10  C   UNL     1      -3.842  -2.725  24.290  0.00  0.00    +0.099 A 
ATOM     11  N   UNL     1      -4.186  -2.076  23.914  0.00  0.00    -0.243 NA
ATOM     12  C   UNL     1      -4.118  -1.323  24.245  0.00  0.00    +0.095 A 
ENDBRANCH   6   7
ENDBRANCH   5   6
ENDBRANCH  13   5
ENDBRANCH  16  14
TORSDOF 7
ENDMDL
MODEL 3
REMARK VINA RESULT:      -9.8      1.395      4.454
REMARK  Name = 
REMARK  7 active torsions:
REMARK  status: ('A' for Active; 'I' for Inactive)
REMARK    1  A    between atoms: O_2  and  C_3
REMARK    2  A    between atoms: C_3  and  C_5
REMARK    3  A    between atoms: C_5  and  C_6
REMARK    4  A    between atoms: C_5  and  N_13
REMARK    5  A    between atoms: C_6  and  C_7
REMARK    6  A    between atoms: C_14  and  C_16
REMARK    7  A    between atoms: C_30  and  C_32
REMARK                            x       y       z     vdW  Elec       q    Type
REMARK                         _______ _______ _______ _____ _____    ______ ____
ROOT
ATOM     16  C   UNL     1      -2.148   1.554  24.934  0.00  0.00    +0.175 C 
ATOM     17  C   UNL     1      -2.861   1.138  24.967  0.00  0.00    +0.123 C 
ATOM     18  N   UNL     1      -3.573   1.545  25.060  0.00  0.00    -0.276 N 
ATOM     19  C   UNL     1      -3.572   2.368  25.118  0.00  0.00    +0.115 C 
ATOM     20  C   UNL     1      -2.861   2.784  25.085  0.00  0.00    +0.117 C 
ATOM     21  N   UNL     1      -2.149   2.377  24.993  0.00  0.00    -0.254 N 
ATOM     22  C   UNL     1      -1.437   2.792  24.960  0.00  0.00    +0.308 C 
ATOM     23  O   UNL     1      -0.725   2.385  24.868  0.00  0.00    -0.252 OA
ATOM     24  N   UNL     1      -1.437   3.615  25.019  0.00  0.00    -0.259 N 
ATOM     25  C   UNL     1      -2.149   4.022  25.111  0.00  0.00    +0.127 C 
ATOM     26  C   UNL     1      -2.148   4.845  25.170  0.00  0.00    +0.164 C 
ATOM     27  O   UNL     1      -1.437   5.261  25.137  0.00  0.00    -0.350 OA
ATOM     28  C   UNL     1      -0.725   4.854  25.045  0.00  0.00    +0.164 C 
ATOM     29  C   UNL     1      -0.725   4.030  24.986  0.00  0.00    +0.127 C 
ATOM     30  C   UNL     1      -4.284   1.129  25.093  0.00  0.00    +0.225 C 
ATOM     31  O   UNL     1      -4.284   0.306  25.034  0.00  0.00    -0.275 OA
ENDROOT
BRANCH  30  32
ATOM     32  C   UNL     1      -4.995   1.536  25.185  0.00  0.00    +0.080 C 
ATOM     33  C   UNL     1      -5.275   1.712  25.941  0.00  0.00    +0.028 C 
ATOM     34  C   UNL     1      -5.987   2.120  26.034  0.00  0.00    +0.089 C 
ATOM     35  N   UNL     1      -6.419   2.350  25.369  0.00  0.00    -0.218 NA
ATOM     36  C   UNL     1      -6.139   2.175  24.614  0.00  0.00    +0.089 C 
ATOM     37  C   UNL     1      -5.428   1.768  24.522  0.00  0.00    +0.028 C 
ENDBRANCH  30  32
BRANCH  16  14
ATOM     13  N   UNL     1      -1.378   0.539  24.287  0.00  0.00    -0.194 NA
ATOM     14  C   UNL     1      -1.437   1.147  24.842  0.00  0.00    +0.262 C 
ATOM     15  O   UNL     1      -0.784   1.348  25.305  0.00  0.00    -0.271 OA
BRANCH  13   5
ATOM      5  C   UNL     1      -0.667   0.132  24.195  0.00  0.00    +0.198 C 
BRANCH   5   3
ATOM      3  C   UNL     1      -0.162   0.320  23.571  0.00  0.00    +0.337 C 
ATOM      4  O   UNL     1      -0.475   0.507  22.830  0.00  0.00    -0.248 OA
BRANCH   3   2
ATOM      1  C   UNL     1       1.162   0.386  23.038  0.00  0.00    +0.256 C 
ATOM      2  O   UNL     1       0.655   0.320  23.686  0.00  0.00    -0.443 OA
ENDBRANCH   3   2
ENDBRANCH   5   3
BRANCH   5   6
ATOM      6  C   UNL     1      -0.459  -0.463  24.728  0.00  0.00    +0.061 C 
BRANCH   6   7
ATOM      7  C   UNL     1      -0.861  -1.183  24.719  0.00  0.00    -0.001 A 
ATOM      8  C   UNL     1      -1.015  -1.577  25.428  0.00  0.00    -0.001 A 
ATOM      9  C   UNL     1      -1.417  -2.298  25.419  0.00  0.00    +0.020 A 
ATOM     10  C   UNL     1      -1.665  -2.624  24.702  0.00  0.00    +0.099 A 
ATOM     11  N   UNL     1      -1.511  -2.229  23.995  0.00  0.00    -0.243 NA
ATOM     12  C   UNL     1      -1.109  -1.508  24.003  0.00  0.00    +0.095 A 
ENDBRANCH   6   7
ENDBRANCH   5   6
ENDBRANCH  13   5
ENDBRANCH  16  14
TORSDOF 7
ENDMDL
MODEL 4
REMARK VINA RESULT:      -9.8      1.553      3.976
REMARK  Name = 
REMARK  7 active torsions:
REMARK  status: ('A' for Active; 'I' for Inactive)
REMARK    1  A    between atoms: O_2  and  C_3
REMARK    2  A    between atoms: C_3  and  C_5
REMARK    3  A    between atoms: C_5  and  C_6
REMARK    4  A    between atoms: C_5  and  N_13
REMARK    5  A    between atoms: C_6  and  C_7
REMARK    6  A    between atoms: C_14  and  C_16
REMARK    7  A    between atoms: C_30  and  C_32
REMARK                            x       y       z     vdW  Elec       q    Type
REMARK                         _______ _______ _______ _____ _____    ______ ____
ROOT
ATOM     16  C   UNL     1      -2.639   0.571  24.857  0.00  0.00    +0.175 C 
ATOM     17  C   UNL     1      -3.080   1.258  24.983  0.00  0.00    +0.123 C 
ATOM     18  N   UNL     1      -3.903   1.217  25.033  0.00  0.00    -0.276 N 
ATOM     19  C   UNL     1      -4.284   0.489  24.956  0.00  0.00    +0.115 C 
ATOM     20  C   UNL     1      -3.844  -0.196  24.830  0.00  0.00    +0.117 C 
ATOM     21  N   UNL     1      -3.022  -0.155  24.781  0.00  0.00    -0.254 N 
ATOM     22  C   UNL     1      -2.581  -0.841  24.655  0.00  0.00    +0.308 C 
ATOM     23  O   UNL     1      -1.759  -0.800  24.605  0.00  0.00    -0.252 OA
ATOM     24  N   UNL     1      -2.964  -1.569  24.578  0.00  0.00    -0.259 N 
ATOM     25  C   UNL     1      -3.786  -1.610  24.628  0.00  0.00    +0.127 C 
ATOM     26  C   UNL     1      -4.168  -2.336  24.552  0.00  0.00    +0.164 C 
ATOM     27  O   UNL     1      -3.728  -3.023  24.426  0.00  0.00    -0.350 OA
ATOM     28  C   UNL     1      -2.906  -2.982  24.376  0.00  0.00    +0.164 C 
ATOM     29  C   UNL     1      -2.523  -2.254  24.453  0.00  0.00    +0.127 C 
ATOM     30  C   UNL     1      -4.342   1.903  25.159  0.00  0.00    +0.225 C 
ATOM     31  O   UNL     1      -3.961   2.631  25.235  0.00  0.00    -0.275 OA
ENDROOT
BRANCH  30  32
ATOM     32  C   UNL     1      -5.165   1.862  25.208  0.00  0.00    +0.080 C 
ATOM     33  C   UNL     1      -5.532   1.806  25.946  0.00  0.00    +0.028 C 
ATOM     34  C   UNL     1      -6.354   1.765  25.995  0.00  0.00    +0.089 C 
ATOM     35  N   UNL     1      -6.810   1.780  25.307  0.00  0.00    -0.218 NA
ATOM     36  C   UNL     1      -6.444   1.836  24.571  0.00  0.00    +0.089 C 
ATOM     37  C   UNL     1      -5.621   1.877  24.521  0.00  0.00    +0.028 C 
ENDBRANCH  30  32
BRANCH  16  14
ATOM     13  N   UNL     1      -1.461   1.162  24.307  0.00  0.00    -0.194 NA
ATOM     14  C   UNL     1      -1.817   0.612  24.808  0.00  0.00    +0.262 C 
ATOM     15  O   UNL     1      -1.351   0.102  25.259  0.00  0.00    -0.271 OA
BRANCH  13   5
ATOM      5  C   UNL     1      -0.638   1.203  24.258  0.00  0.00    +0.198 C 
BRANCH   5   3
ATOM      3  C   UNL     1      -0.243   0.834  23.634  0.00  0.00    +0.337 C 
ATOM      4  O   UNL     1      -0.530   0.908  22.864  0.00  0.00    -0.248 OA
BRANCH   3   2
ATOM      1  C   UNL     1       0.845   0.044  23.154  0.00  0.00    +0.256 C 
ATOM      2  O   UNL     1       0.438   0.393  23.781  0.00  0.00    -0.443 OA
ENDBRANCH   3   2
ENDBRANCH   5   3
BRANCH   5   6
ATOM      6  C   UNL     1      -0.210   1.613  24.831  0.00  0.00    +0.061 C 
BRANCH   6   7
ATOM      7  C   UNL     1      -0.276   2.433  24.889  0.00  0.00    -0.001 A 
ATOM      8  C   UNL     1      -0.328   2.791  25.631  0.00  0.00    -0.001 A 
ATOM      9  C   UNL     1      -0.395   3.611  25.689  0.00  0.00    +0.020 A 
ATOM     10  C   UNL     1      -0.409   4.074  25.005  0.00  0.00    +0.099 A 
ATOM     11  N   UNL     1      -0.357   3.715  24.264  0.00  0.00    -0.243 NA
ATOM     12  C   UNL     1      -0.291   2.894  24.206  0.00  0.00    +0.095 A 
ENDBRANCH   6   7
ENDBRANCH   5   6
ENDBRANCH  13   5
ENDBRANCH  16  14
TORSDOF 7
ENDMDL
MODEL 5
REMARK VINA RESULT:      -9.3      1.295      3.804
REMARK  Name = 
REMARK  7 active torsions:
REMARK  status: ('A' for Active; 'I' for Inactive)
REMARK    1  A    between atoms: O_2  and  C_3
REMARK    2  A    between atoms: C_3  and  C_5
REMARK    3  A    between atoms: C_5  and  C_6
REMARK    4  A    between atoms: C_5  and  N_13
REMARK    5  A    between atoms: C_6  and  C_7
REMARK    6  A    between atoms: C_14  and  C_16
REMARK    7  A    between atoms: C_30  and  C_32
REMARK                            x       y       z     vdW  Elec       q    Type
REMARK                         _______ _______ _______ _____ _____    ______ ____
ROOT
ATOM     16  C   UNL     1      -3.050   1.345  24.607  0.00  0.00    +0.175 C 
ATOM     17  C   UNL     1      -2.673   0.620  24.491  0.00  0.00    +0.123 C 
ATOM     18  N   UNL     1      -3.093  -0.084  24.589  0.00  0.00    -0.276 N 
ATOM     19  C   UNL     1      -3.890  -0.062  24.804  0.00  0.00    +0.115 C 
ATOM     20  C   UNL     1      -4.266   0.662  24.920  0.00  0.00    +0.117 C 
ATOM     21  N   UNL     1      -3.847   1.366  24.821  0.00  0.00    -0.254 N 
ATOM     22  C   UNL     1      -4.223   2.091  24.937  0.00  0.00    +0.308 C 
ATOM     23  O   UNL     1      -3.803   2.794  24.839  0.00  0.00    -0.252 OA
ATOM     24  N   UNL     1      -5.020   2.112  25.152  0.00  0.00    -0.259 N 
ATOM     25  C   UNL     1      -5.439   1.408  25.250  0.00  0.00    +0.127 C 
ATOM     26  C   UNL     1      -6.235   1.430  25.464  0.00  0.00    +0.164 C 
ATOM     27  O   UNL     1      -6.613   2.154  25.580  0.00  0.00    -0.350 OA
ATOM     28  C   UNL     1      -6.193   2.858  25.482  0.00  0.00    +0.164 C 
ATOM     29  C   UNL     1      -5.396   2.837  25.268  0.00  0.00    +0.127 C 
ATOM     30  C   UNL     1      -2.716  -0.808  24.473  0.00  0.00    +0.225 C 
ATOM     31  O   UNL     1      -1.920  -0.829  24.259  0.00  0.00    -0.275 OA
ENDROOT
BRANCH  30  32
ATOM     32  C   UNL     1      -3.136  -1.511  24.571  0.00  0.00    +0.080 C 
ATOM     33  C   UNL     1      -3.082  -1.928  25.282  0.00  0.00    +0.028 C 
ATOM     34  C   UNL     1      -3.502  -2.632  25.380  0.00  0.00    +0.089 C 
ATOM     35  N   UNL     1      -3.975  -2.918  24.768  0.00  0.00    -0.218 NA
ATOM     36  C   UNL     1      -4.029  -2.502  24.058  0.00  0.00    +0.089 C 
ATOM     37  C   UNL     1      -3.609  -1.798  23.960  0.00  0.00    +0.028 C 
ENDBRANCH  30  32
BRANCH  16  14
ATOM     13  N   UNL     1      -1.960   2.195  24.965  0.00  0.00    -0.194 NA
ATOM     14  C   UNL     1      -2.631   2.049  24.509  0.00  0.00    +0.262 C 
ATOM     15  O   UNL     1      -2.883   2.605  23.954  0.00  0.00    -0.271 OA
BRANCH  13   5
ATOM      5  C   UNL     1      -1.540   2.899  24.866  0.00  0.00    +0.198 C 
BRANCH   5   3
ATOM      3  C   UNL     1      -1.685   3.539  25.365  0.00  0.00    +0.337 C 
ATOM      4  O   UNL     1      -1.726   3.425  26.182  0.00  0.00    -0.248 OA
BRANCH   3   2
ATOM      1  C   UNL     1      -1.811   4.951  25.548  0.00  0.00    +0.256 C 
ATOM      2  O   UNL     1      -1.789   4.294  25.049  0.00  0.00    -0.443 OA
ENDBRANCH   3   2
ENDBRANCH   5   3
BRANCH   5   6
ATOM      6  C   UNL     1      -0.975   2.963  24.269  0.00  0.00    +0.061 C 
BRANCH   6   7
ATOM      7  C   UNL     1      -0.291   2.502  24.297  0.00  0.00    -0.001 A 
ATOM      8  C   UNL     1      -0.031   2.109  23.619  0.00  0.00    -0.001 A 
ATOM      9  C   UNL     1       0.653   1.649  23.647  0.00  0.00    +0.020 A 
ATOM     10  C   UNL     1       1.077   1.581  24.352  0.00  0.00    +0.099 A 
ATOM     11  N   UNL     1       0.816   1.974  25.028  0.00  0.00    -0.243 NA
ATOM     12  C   UNL     1       0.132   2.435  25.001  0.00  0.00    +0.095 A 
ENDBRANCH   6   7
ENDBRANCH   5   6
ENDBRANCH  13   5
ENDBRANCH  16  14
TORSDOF 7
ENDMDL
MODEL 6
REMARK VINA RESULT:      -9.2      1.569      5.632
REMARK  Name = 
REMARK  7 active torsions:
REMARK  status: ('A' for Active; 'I' for Inactive)
REMARK    1  A    between atoms: O_2  and  C_3
REMARK    2  A    between atoms: C_3  and  C_5
REMARK    3  A    between atoms: C_5  and  C_6
REMARK    4  A    between atoms: C_5  and  N_13
REMARK    5  A    between atoms: C_6  and  C_7
REMARK    6  A    between atoms: C_14  and  C_16
REMARK    7  A    between atoms: C_30  and  C_32
REMARK                            x       y       z     vdW  Elec       q    Type
REMARK                         _______ _______ _______ _____ _____    ______ ____
ROOT
ATOM     16  C   UNL     1      -3.045   1.251  25.017  0.00  0.00    +0.175 C 
ATOM     17  C   UNL     1      -2.256   1.464  24.894  0.00  0.00    +0.123 C 
ATOM     18  N   UNL     1      -2.043   2.261  24.871  0.00  0.00    -0.276 N 
ATOM     19  C   UNL     1      -2.619   2.844  24.971  0.00  0.00    +0.115 C 
ATOM     20  C   UNL     1      -3.405   2.632  25.094  0.00  0.00    +0.117 C 
ATOM     21  N   UNL     1      -3.618   1.835  25.117  0.00  0.00    -0.254 N 
ATOM     22  C   UNL     1      -4.405   1.621  25.240  0.00  0.00    +0.308 C 
ATOM     23  O   UNL     1      -4.618   0.824  25.263  0.00  0.00    -0.252 OA
ATOM     24  N   UNL     1      -4.980   2.205  25.341  0.00  0.00    -0.259 N 
ATOM     25  C   UNL     1      -4.767   3.002  25.318  0.00  0.00    +0.127 C 
ATOM     26  C   UNL     1      -5.341   3.585  25.418  0.00  0.00    +0.164 C 
ATOM     27  O   UNL     1      -6.129   3.373  25.541  0.00  0.00    -0.350 OA
ATOM     28  C   UNL     1      -6.342   2.576  25.564  0.00  0.00    +0.164 C 
ATOM     29  C   UNL     1      -5.767   1.992  25.464  0.00  0.00    +0.127 C 
ATOM     30  C   UNL     1      -1.257   2.474  24.748  0.00  0.00    +0.225 C 
ATOM     31  O   UNL     1      -0.682   1.891  24.648  0.00  0.00    -0.275 OA
ENDROOT
BRANCH  30  32
ATOM     32  C   UNL     1      -1.044   3.270  24.725  0.00  0.00    +0.080 C 
ATOM     33  C   UNL     1      -0.854   3.627  24.004  0.00  0.00    +0.028 C 
ATOM     34  C   UNL     1      -0.641   4.423  23.981  0.00  0.00    +0.089 C 
ATOM     35  N   UNL     1      -0.618   4.864  24.679  0.00  0.00    -0.218 NA
ATOM     36  C   UNL     1      -0.807   4.509  25.398  0.00  0.00    +0.089 C 
ATOM     37  C   UNL     1      -1.020   3.712  25.421  0.00  0.00    +0.028 C 
ENDBRANCH  30  32
BRANCH  16  14
ATOM     13  N   UNL     1      -2.894  -0.084  24.533  0.00  0.00    -0.194 NA
ATOM     14  C   UNL     1      -3.257   0.454  25.040  0.00  0.00    +0.262 C 
ATOM     15  O   UNL     1      -3.835   0.197  25.571  0.00  0.00    -0.271 OA
BRANCH  13   5
ATOM      5  C   UNL     1      -3.107  -0.881  24.556  0.00  0.00    +0.198 C 
BRANCH   5   3
ATOM      3  C   UNL     1      -3.643  -1.181  24.006  0.00  0.00    +0.337 C 
ATOM      4  O   UNL     1      -3.624  -0.916  23.224  0.00  0.00    -0.248 OA
BRANCH   3   2
ATOM      1  C   UNL     1      -4.635  -2.151  23.665  0.00  0.00    +0.256 C 
ATOM      2  O   UNL     1      -4.198  -1.746  24.236  0.00  0.00    -0.443 OA
ENDBRANCH   3   2
ENDBRANCH   5   3
BRANCH   5   6
ATOM      6  C   UNL     1      -2.784  -1.379  25.129  0.00  0.00    +0.061 C 
BRANCH   6   7
ATOM      7  C   UNL     1      -2.001  -1.631  25.063  0.00  0.00    -0.001 A 
ATOM      8  C   UNL     1      -1.436  -1.366  25.603  0.00  0.00    -0.001 A 
ATOM      9  C   UNL     1      -0.653  -1.619  25.537  0.00  0.00    +0.020 A 
ATOM     10  C   UNL     1      -0.436  -2.136  24.931  0.00  0.00    +0.099 A 
ATOM     11  N   UNL     1      -1.001  -2.400  24.392  0.00  0.00    -0.243 NA
ATOM     12  C   UNL     1      -1.784  -2.147  24.458  0.00  0.00    +0.095 A 
ENDBRANCH   6   7
ENDBRANCH   5   6
ENDBRANCH  13   5
ENDBRANCH  16  14
TORSDOF 7
ENDMDL
MODEL 7
REMARK VINA RESULT:      -9.2      1.426      3.849
REMARK  Name = 
REMARK  7 active torsions:
REMARK  status: ('A' for Active; 'I' for Inactive)
REMARK    1  A    between atoms: O_2  and  C_3
REMARK    2  A    between atoms: C_3  and  C_5
REMARK    3  A    between atoms: C_5  and  C_6
REMARK    4  A    between atoms: C_5  and  N_13
REMARK    5  A    between atoms: C_6  and  C_7
REMARK    6  A    between atoms: C_14  and  C_16
REMARK    7  A    between atoms: C_30  and  C_32
REMARK                            x       y       z     vdW  Elec       q    Type
REMARK                         _______ _______ _______ _____ _____    ______ ____
ROOT
ATOM     16  C   UNL     1      -1.073   0.850  24.566  0.00  0.00    +0.175 C 
ATOM     17  C   UNL     1      -0.389   1.160  24.223  0.00  0.00    +0.123 C 
ATOM     18  N   UNL     1       0.142   0.660  23.837  0.00  0.00    -0.276 N 
ATOM     19  C   UNL     1      -0.011  -0.150  23.794  0.00  0.00    +0.115 C 
ATOM     20  C   UNL     1      -0.694  -0.460  24.137  0.00  0.00    +0.117 C 
ATOM     21  N   UNL     1      -1.225   0.040  24.523  0.00  0.00    -0.254 N 
ATOM     22  C   UNL     1      -1.909  -0.269  24.866  0.00  0.00    +0.308 C 
ATOM     23  O   UNL     1      -2.440   0.230  25.252  0.00  0.00    -0.252 OA
ATOM     24  N   UNL     1      -2.061  -1.080  24.823  0.00  0.00    -0.259 N 
ATOM     25  C   UNL     1      -1.530  -1.579  24.437  0.00  0.00    +0.127 C 
ATOM     26  C   UNL     1      -1.682  -2.388  24.394  0.00  0.00    +0.164 C 
ATOM     27  O   UNL     1      -2.366  -2.699  24.737  0.00  0.00    -0.350 OA
ATOM     28  C   UNL     1      -2.897  -2.199  25.123  0.00  0.00    +0.164 C 
ATOM     29  C   UNL     1      -2.744  -1.389  25.166  0.00  0.00    +0.127 C 
ATOM     30  C   UNL     1       0.824   0.970  23.495  0.00  0.00    +0.225 C 
ATOM     31  O   UNL     1       0.977   1.780  23.537  0.00  0.00    -0.275 OA
ENDROOT
BRANCH  30  32
ATOM     32  C   UNL     1       1.355   0.470  23.109  0.00  0.00    +0.080 C 
ATOM     33  C   UNL     1       2.097   0.322  23.439  0.00  0.00    +0.028 C 
ATOM     34  C   UNL     1       2.628  -0.178  23.053  0.00  0.00    +0.089 C 
ATOM     35  N   UNL     1       2.417  -0.529  22.337  0.00  0.00    -0.218 NA
ATOM     36  C   UNL     1       1.676  -0.381  22.007  0.00  0.00    +0.089 C 
ATOM     37  C   UNL     1       1.146   0.119  22.393  0.00  0.00    +0.028 C 
ENDBRANCH  30  32
BRANCH  16  14
ATOM     13  N   UNL     1      -1.845   2.051  24.594  0.00  0.00    -0.194 NA
ATOM     14  C   UNL     1      -1.604   1.349  24.952  0.00  0.00    +0.262 C 
ATOM     15  O   UNL     1      -1.894   1.146  25.698  0.00  0.00    -0.271 OA
BRANCH  13   5
ATOM      5  C   UNL     1      -2.376   2.551  24.980  0.00  0.00    +0.198 C 
BRANCH   5   3
ATOM      3  C   UNL     1      -3.167   2.570  24.749  0.00  0.00    +0.337 C 
ATOM      4  O   UNL     1      -3.764   2.510  25.317  0.00  0.00    -0.248 OA
BRANCH   3   2
ATOM      1  C   UNL     1      -4.156   2.652  23.721  0.00  0.00    +0.256 C 
ATOM      2  O   UNL     1      -3.364   2.648  23.952  0.00  0.00    -0.443 OA
ENDBRANCH   3   2
ENDBRANCH   5   3
BRANCH   5   6
ATOM      6  C   UNL     1      -2.115   3.033  25.597  0.00  0.00    +0.061 C 
BRANCH   6   7
ATOM      7  C   UNL     1      -1.848   3.797  25.439  0.00  0.00    -0.001 A 
ATOM      8  C   UNL     1      -1.094   3.914  25.126  0.00  0.00    -0.001 A 
ATOM      9  C   UNL     1      -0.827   4.679  24.968  0.00  0.00    +0.020 A 
ATOM     10  C   UNL     1      -1.314   5.327  25.125  0.00  0.00    +0.099 A 
ATOM     11  N   UNL     1      -2.068   5.209  25.438  0.00  0.00    -0.243 NA
ATOM     12  C   UNL     1      -2.335   4.444  25.595  0.00  0.00    +0.095 A 
ENDBRANCH   6   7
ENDBRANCH   5   6
ENDBRANCH  13   5
ENDBRANCH  16  14
TORSDOF 7
ENDMDL
