MODEL 1
REMARK VINA RESULT:     -14.1      0.000      0.000
REMARK  Name = 
REMARK  5 active torsions:
REMARK  status: ('A' for Active; 'I' for Inactive)
REMARK    1  A    between atoms: C_7  and  C_8
REMARK    2  A    between atoms: C_14  and  N_15
REMARK    3  A    between atoms: N_15  and  S_16
REMARK    4  A    between atoms: S_16  and  C_19
REMARK    5  A    between atoms: C_22  and  C_25
REMARK                            x       y       z     vdW  Elec       q    Type
REMARK                         _______ _______ _______ _____ _____    ______ ____
ROOT
ATOM      8  C   UNL     1      -3.818   2.337  24.142  0.00  0.00    +0.045 C 
ATOM      9  C   UNL     1      -3.577   2.632  23.411  0.00  0.00    +0.041 C 
ATOM     10  C   UNL     1      -3.024   2.108  23.094  0.00  0.00    +0.184 C 
ATOM     11  O   UNL     1      -2.639   2.189  22.369  0.00  0.00    -0.220 OA
ATOM     12  C   UNL     1      -2.923   1.488  23.630  0.00  0.00    +0.200 C 
ATOM     13  O   UNL     1      -2.420   0.842  23.534  0.00  0.00    -0.219 OA
ATOM     14  C   UNL     1      -3.414   1.630  24.278  0.00  0.00    +0.135 C 
ENDROOT
BRANCH   8   7
ATOM      1  C   UNL     1      -3.376   3.623  25.076  0.00  0.00    +0.031 C 
ATOM      2  C   UNL     1      -4.146   3.329  25.116  0.00  0.00    -0.026 A 
ATOM      3  C   UNL     1      -4.695   3.678  25.623  0.00  0.00    -0.005 A 
ATOM      4  C   UNL     1      -5.465   3.385  25.664  0.00  0.00    -0.000 A 
ATOM      5  C   UNL     1      -5.686   2.741  25.197  0.00  0.00    -0.000 A 
ATOM      6  C   UNL     1      -5.137   2.392  24.689  0.00  0.00    -0.005 A 
ATOM      7  C   UNL     1      -4.367   2.686  24.650  0.00  0.00    -0.025 A 
ENDBRANCH   8   7
BRANCH  14  15
ATOM     15  N   UNL     1      -3.488   1.149  24.944  0.00  0.00    -0.076 NA
BRANCH  15  16
ATOM     16  S   UNL     1      -3.520   0.329  24.860  0.00  0.00    +0.077 S 
ATOM     17  O   UNL     1      -2.754   0.269  25.162  0.00  0.00    -0.152 OA
ATOM     18  O   UNL     1      -4.285   0.389  24.558  0.00  0.00    -0.152 OA
BRANCH  16  19
ATOM     19  C   UNL     1      -3.551  -0.491  24.776  0.00  0.00    +0.124 A 
ATOM     20  C   UNL     1      -4.137  -0.836  24.309  0.00  0.00    +0.020 A 
ATOM     21  C   UNL     1      -4.168  -1.656  24.224  0.00  0.00    +0.005 A 
ATOM     22  C   UNL     1      -3.614  -2.132  24.608  0.00  0.00    +0.072 A 
ATOM     23  C   UNL     1      -3.028  -1.787  25.076  0.00  0.00    +0.005 A 
ATOM     24  C   UNL     1      -2.996  -0.966  25.160  0.00  0.00    +0.020 A 
BRANCH  22  25
ATOM     25  C   UNL     1      -3.644  -2.952  24.525  0.00  0.00    +0.419 C 
ATOM     26  F   UNL     1      -3.675  -3.772  24.442  0.00  0.00    -0.166 F 
ATOM     27  F   UNL     1      -3.676  -2.867  23.705  0.00  0.00    -0.166 F 
ATOM     28  F   UNL     1      -3.613  -3.035  25.345  0.00  0.00    -0.166 F 
ENDBRANCH  22  25
ENDBRANCH  16  19
ENDBRANCH  15  16
ENDBRANCH  14  15
TORSDOF 5
ENDMDL
MODEL 2
REMARK VINA RESULT:     -13.5      0.988      2.002
REMARK  Name = 
REMARK  5 active torsions:
REMARK  status: ('A' for Active; 'I' for Inactive)
REMARK    1  A    between atoms: C_7  and  C_8
REMARK    2  A    between atoms: C_14  and  N_15
REMARK    3  A    between atoms: N_15  and  S_16
REMARK    4  A    between atoms: S_16  and  C_19
REMARK    5  A    between atoms: C_22  and  C_25
REMARK                            x       y       z     vdW  Elec       q    Type
REMARK                         _______ _______ _______ _____ _____    ______ ____
ROOT
ATOM      8  C   UNL     1      -4.032   2.809  25.205  0.00  0.00    +0.045 C 
ATOM      9  C   UNL     1      -4.746   3.062  25.531  0.00  0.00    +0.041 C 
ATOM     10  C   UNL     1      -5.313   2.480  25.387  0.00  0.00    +0.184 C 
ATOM     11  O   UNL     1      -6.104   2.507  25.618  0.00  0.00    -0.220 OA
ATOM     12  C   UNL     1      -4.949   1.867  24.972  0.00  0.00    +0.200 C 
ATOM     13  O   UNL     1      -5.313   1.173  24.715  0.00  0.00    -0.219 OA
ATOM     14  C   UNL     1      -4.157   2.070  24.859  0.00  0.00    +0.135 C 
ENDROOT
BRANCH   8   7
ATOM      1  C   UNL     1      -3.757   4.025  24.123  0.00  0.00    +0.031 C 
ATOM      2  C   UNL     1      -3.181   3.829  24.680  0.00  0.00    -0.026 A 
ATOM      3  C   UNL     1      -2.467   4.242  24.696  0.00  0.00    -0.005 A 
ATOM      4  C   UNL     1      -1.889   4.047  25.253  0.00  0.00    -0.000 A 
ATOM      5  C   UNL     1      -2.027   3.439  25.794  0.00  0.00    -0.000 A 
ATOM      6  C   UNL     1      -2.741   3.026  25.778  0.00  0.00    -0.005 A 
ATOM      7  C   UNL     1      -3.318   3.222  25.221  0.00  0.00    -0.025 A 
ENDBRANCH   8   7
BRANCH  14  15
ATOM     15  N   UNL     1      -3.591   1.615  24.469  0.00  0.00    -0.076 NA
BRANCH  15  16
ATOM     16  S   UNL     1      -3.597   0.793  24.545  0.00  0.00    +0.077 S 
ATOM     17  O   UNL     1      -3.828   0.723  23.756  0.00  0.00    -0.152 OA
ATOM     18  O   UNL     1      -3.367   0.864  25.334  0.00  0.00    -0.152 OA
BRANCH  16  19
ATOM     19  C   UNL     1      -3.604  -0.028  24.620  0.00  0.00    +0.124 A 
ATOM     20  C   UNL     1      -3.936  -0.494  24.025  0.00  0.00    +0.020 A 
ATOM     21  C   UNL     1      -3.943  -1.316  24.099  0.00  0.00    +0.005 A 
ATOM     22  C   UNL     1      -3.619  -1.672  24.769  0.00  0.00    +0.072 A 
ATOM     23  C   UNL     1      -3.288  -1.206  25.364  0.00  0.00    +0.005 A 
ATOM     24  C   UNL     1      -3.280  -0.385  25.290  0.00  0.00    +0.020 A 
BRANCH  22  25
ATOM     25  C   UNL     1      -3.626  -2.493  24.844  0.00  0.00    +0.419 C 
ATOM     26  F   UNL     1      -3.633  -3.315  24.920  0.00  0.00    -0.166 F 
ATOM     27  F   UNL     1      -3.577  -2.569  24.024  0.00  0.00    -0.166 F 
ATOM     28  F   UNL     1      -3.675  -2.417  25.664  0.00  0.00    -0.166 F 
ENDBRANCH  22  25
ENDBRANCH  16  19
ENDBRANCH  15  16
ENDBRANCH  14  15
TORSDOF 5
ENDMDL
MODEL 3
REMARK VINA RESULT:     -13.3      3.041      4.826
REMARK  Name = 
REMARK  5 active torsions:
REMARK  status: ('A' for Active; 'I' for Inactive)
REMARK    1  A    between atoms: C_7  and  C_8
REMARK    2  A    between atoms: C_14  and  N_15
REMARK    3  A    between atoms: N_15  and  S_16
REMARK    4  A    between atoms: S_16  and  C_19
REMARK    5  A    between atoms: C_22  and  C_25
REMARK                            x       y       z     vdW  Elec       q    Type
REMARK                         _______ _______ _______ _____ _____    ______ ____
ROOT
ATOM      8  C   UNL     1      -4.242   0.338  24.922  0.00  0.00    +0.045 C 
ATOM      9  C   UNL     1      -5.038   0.525  25.030  0.00  0.00    +0.041 C 
ATOM     10  C   UNL     1      -5.146   1.315  24.817  0.00  0.00    +0.184 C 
ATOM     11  O   UNL     1      -5.858   1.730  24.840  0.00  0.00    -0.220 OA
ATOM     12  C   UNL     1      -4.416   1.616  24.576  0.00  0.00    +0.200 C 
ATOM     13  O   UNL     1      -4.271   2.385  24.316  0.00  0.00    -0.219 OA
ATOM     14  C   UNL     1      -3.857   1.012  24.641  0.00  0.00    +0.135 C 
ENDROOT
BRANCH   8   7
ATOM      1  C   UNL     1      -4.390  -0.883  23.822  0.00  0.00    +0.031 C 
ATOM      2  C   UNL     1      -3.965  -1.004  24.519  0.00  0.00    -0.026 A 
ATOM      3  C   UNL     1      -3.615  -1.736  24.665  0.00  0.00    -0.005 A 
ATOM      4  C   UNL     1      -3.190  -1.859  25.362  0.00  0.00    -0.000 A 
ATOM      5  C   UNL     1      -3.116  -1.248  25.912  0.00  0.00    -0.000 A 
ATOM      6  C   UNL     1      -3.467  -0.516  25.766  0.00  0.00    -0.005 A 
ATOM      7  C   UNL     1      -3.891  -0.394  25.069  0.00  0.00    -0.025 A 
ENDBRANCH   8   7
BRANCH  14  15
ATOM     15  N   UNL     1      -3.056   1.072  24.458  0.00  0.00    -0.076 NA
BRANCH  15  16
ATOM     16  S   UNL     1      -2.654   1.781  24.588  0.00  0.00    +0.077 S 
ATOM     17  O   UNL     1      -2.673   1.939  23.779  0.00  0.00    -0.152 OA
ATOM     18  O   UNL     1      -2.635   1.621  25.397  0.00  0.00    -0.152 OA
BRANCH  16  19
ATOM     19  C   UNL     1      -2.252   2.489  24.717  0.00  0.00    +0.124 A 
ATOM     20  C   UNL     1      -1.863   2.863  24.092  0.00  0.00    +0.020 A 
ATOM     21  C   UNL     1      -1.461   3.571  24.221  0.00  0.00    +0.005 A 
ATOM     22  C   UNL     1      -1.447   3.907  24.974  0.00  0.00    +0.072 A 
ATOM     23  C   UNL     1      -1.836   3.534  25.599  0.00  0.00    +0.005 A 
ATOM     24  C   UNL     1      -2.238   2.825  25.471  0.00  0.00    +0.020 A 
BRANCH  22  25
ATOM     25  C   UNL     1      -1.045   4.616  25.104  0.00  0.00    +0.419 C 
ATOM     26  F   UNL     1      -0.642   5.324  25.233  0.00  0.00    -0.166 F 
ATOM     27  F   UNL     1      -1.762   5.024  25.093  0.00  0.00    -0.166 F 
ATOM     28  F   UNL     1      -0.329   4.206  25.114  0.00  0.00    -0.166 F 
ENDBRANCH  22  25
ENDBRANCH  16  19
ENDBRANCH  15  16
ENDBRANCH  14  15
TORSDOF 5
ENDMDL
MODEL 4
REMARK VINA RESULT:     -13.0      1.753      2.298
REMARK  Name = 
REMARK  5 active torsions:
REMARK  status: ('A' for Active; 'I' for Inactive)
REMARK    1  A    between atoms: C_7  and  C_8
REMARK    2  A    between atoms: C_14  and  N_15
REMARK    3  A    between atoms: N_15  and  S_16
REMARK    4  A    between atoms: S_16  and  C_19
REMARK    5  A    between atoms: C_22  and  C_25
REMARK                            x       y       z     vdW  Elec       q    Type
REMARK                         _______ _______ _______ _____ _____    ______ ____
ROOT
ATOM      8  C   UNL     1      -1.046   1.875  24.747  0.00  0.00    +0.045 C 
ATOM      9  C   UNL     1      -0.371   1.876  24.273  0.00  0.00    +0.041 C 
ATOM     10  C   UNL     1      -0.179   1.092  24.101  0.00  0.00    +0.184 C 
ATOM     11  O   UNL     1       0.457   0.839  23.641  0.00  0.00    -0.220 OA
ATOM     12  C   UNL     1      -0.735   0.607  24.469  0.00  0.00    +0.200 C 
ATOM     13  O   UNL     1      -0.753  -0.217  24.443  0.00  0.00    -0.219 OA
ATOM     14  C   UNL     1      -1.271   1.091  24.869  0.00  0.00    +0.135 C 
ENDROOT
BRANCH   8   7
ATOM      1  C   UNL     1      -0.456   2.628  26.092  0.00  0.00    +0.031 C 
ATOM      2  C   UNL     1      -1.133   2.918  25.720  0.00  0.00    -0.026 A 
ATOM      3  C   UNL     1      -1.515   3.584  26.020  0.00  0.00    -0.005 A 
ATOM      4  C   UNL     1      -2.192   3.875  25.649  0.00  0.00    -0.000 A 
ATOM      5  C   UNL     1      -2.487   3.498  24.976  0.00  0.00    -0.000 A 
ATOM      6  C   UNL     1      -2.105   2.831  24.676  0.00  0.00    -0.005 A 
ATOM      7  C   UNL     1      -1.428   2.542  25.048  0.00  0.00    -0.025 A 
ENDBRANCH   8   7
BRANCH  14  15
ATOM     15  N   UNL     1      -1.918   0.836  25.312  0.00  0.00    -0.076 NA
BRANCH  15  16
ATOM     16  S   UNL     1      -2.382   0.208  25.043  0.00  0.00    +0.077 S 
ATOM     17  O   UNL     1      -2.088  -0.268  25.649  0.00  0.00    -0.152 OA
ATOM     18  O   UNL     1      -2.675   0.686  24.437  0.00  0.00    -0.152 OA
BRANCH  16  19
ATOM     19  C   UNL     1      -2.845  -0.419  24.774  0.00  0.00    +0.124 A 
ATOM     20  C   UNL     1      -3.369  -0.305  24.147  0.00  0.00    +0.020 A 
ATOM     21  C   UNL     1      -3.833  -0.933  23.878  0.00  0.00    +0.005 A 
ATOM     22  C   UNL     1      -3.772  -1.673  24.236  0.00  0.00    +0.072 A 
ATOM     23  C   UNL     1      -3.248  -1.787  24.863  0.00  0.00    +0.005 A 
ATOM     24  C   UNL     1      -2.784  -1.160  25.132  0.00  0.00    +0.020 A 
BRANCH  22  25
ATOM     25  C   UNL     1      -4.236  -2.301  23.967  0.00  0.00    +0.419 C 
ATOM     26  F   UNL     1      -4.698  -2.929  23.699  0.00  0.00    -0.166 F 
ATOM     27  F   UNL     1      -4.874  -1.788  23.871  0.00  0.00    -0.166 F 
ATOM     28  F   UNL     1      -3.596  -2.813  24.064  0.00  0.00    -0.166 F 
ENDBRANCH  22  25
ENDBRANCH  16  19
ENDBRANCH  15  16
ENDBRANCH  14  15
TORSDOF 5
ENDMDL
