MODEL 1
REMARK VINA RESULT:     -16.1      0.000      0.000
REMARK  Name = 
REMARK  5 active torsions:
REMARK  status: ('A' for Active; 'I' for Inactive)
REMARK    1  A    between atoms: C_2  and  C_3
REMARK    2  A    between atoms: C_11  and  C_12
REMARK    3  A    between atoms: C_12  and  C_13
REMARK    4  A    between atoms: N_15  and  C_16
REMARK    5  A    between atoms: C_29  and  C_31
REMARK                            x       y       z     vdW  Elec       q    Type
REMARK                         _______ _______ _______ _____ _____    ______ ____
ROOT
ATOM      1  C   UNL     1      -2.320  -2.803  24.715  0.00  0.00    +0.005 C 
ATOM      2  C   UNL     1      -2.614  -2.040  24.606  0.00  0.00    +0.059 C 
ATOM      5  C   UNL     1      -3.289  -2.480  24.434  0.00  0.00    +0.154 C 
ATOM      6  O   UNL     1      -3.266  -3.304  24.470  0.00  0.00    -0.223 OA
ATOM      7  C   UNL     1      -3.990  -2.096  24.226  0.00  0.00    +0.033 C 
ATOM      8  C   UNL     1      -4.014  -1.273  24.190  0.00  0.00    +0.003 C 
ATOM      9  C   UNL     1      -3.338  -0.833  24.362  0.00  0.00    +0.006 C 
ATOM     10  C   UNL     1      -4.037  -0.449  24.154  0.00  0.00    +0.000 C 
ATOM     11  C   UNL     1      -3.361  -0.009  24.325  0.00  0.00    +0.050 C 
ATOM     22  C   UNL     1      -2.685   0.431  24.497  0.00  0.00    +0.063 A 
ATOM     23  C   UNL     1      -1.984   0.047  24.706  0.00  0.00    +0.023 A 
ATOM     24  C   UNL     1      -1.961  -0.776  24.742  0.00  0.00    +0.034 C 
ATOM     25  C   UNL     1      -2.637  -1.217  24.570  0.00  0.00    +0.010 C 
ATOM     26  S   UNL     1      -1.410   0.623  24.845  0.00  0.00    -0.054 S 
ATOM     27  C   UNL     1      -1.755   1.362  24.722  0.00  0.00    +0.185 A 
ATOM     28  N   UNL     1      -1.378   2.092  24.801  0.00  0.00    -0.151 NA
ATOM     29  C   UNL     1      -1.795   2.789  24.660  0.00  0.00    +0.271 C 
ATOM     30  O   UNL     1      -2.590   2.757  24.440  0.00  0.00    -0.268 OA
ATOM     38  N   UNL     1      -2.542   1.244  24.508  0.00  0.00    -0.227 NA
ENDROOT
BRANCH  29  31
ATOM     31  C   UNL     1      -1.419   3.518  24.738  0.00  0.00    +0.056 A 
ATOM     32  C   UNL     1      -1.794   4.137  25.136  0.00  0.00    +0.007 A 
ATOM     33  C   UNL     1      -1.417   4.866  25.214  0.00  0.00    +0.030 A 
ATOM     34  C   UNL     1      -0.665   4.978  24.895  0.00  0.00    +0.140 A 
ATOM     35  F   UNL     1      -0.288   5.708  24.973  0.00  0.00    -0.204 F 
ATOM     36  C   UNL     1      -0.290   4.361  24.497  0.00  0.00    +0.030 A 
ATOM     37  C   UNL     1      -0.666   3.631  24.419  0.00  0.00    +0.007 A 
ENDBRANCH  29  31
BRANCH   2   3
ATOM      3  C   UNL     1      -1.835  -1.865  24.816  0.00  0.00    +0.184 C 
ATOM      4  O   UNL     1      -1.298  -2.477  24.955  0.00  0.00    -0.220 OA
ENDBRANCH   2   3
BRANCH  11  12
ATOM     12  C   UNL     1      -4.061   0.375  24.117  0.00  0.00    +0.093 C 
BRANCH  12  13
ATOM     13  C   UNL     1      -4.494   0.783  24.690  0.00  0.00    +0.246 C 
ATOM     14  O   UNL     1      -4.405   0.592  25.487  0.00  0.00    -0.273 OA
ATOM     15  N   UNL     1      -5.015   1.381  24.464  0.00  0.00    -0.179 NA
BRANCH  15  16
ATOM     16  C   UNL     1      -5.448   1.788  25.035  0.00  0.00    +0.073 A 
ATOM     17  C   UNL     1      -5.254   2.569  25.220  0.00  0.00    +0.017 A 
ATOM     18  C   UNL     1      -5.687   2.977  25.791  0.00  0.00    +0.001 A 
ATOM     19  C   UNL     1      -6.314   2.605  26.178  0.00  0.00    +0.000 A 
ATOM     20  C   UNL     1      -6.507   1.825  25.993  0.00  0.00    +0.001 A 
ATOM     21  C   UNL     1      -6.075   1.417  25.422  0.00  0.00    +0.017 A 
ENDBRANCH  15  16
ENDBRANCH  12  13
ENDBRANCH  11  12
TORSDOF 5
ENDMDL
MODEL 2
REMARK VINA RESULT:     -14.3      2.017      4.835
REMARK  Name = 
REMARK  5 active torsions:
REMARK  status: ('A' for Active; 'I' for Inactive)
REMARK    1  A    between atoms: C_2  and  C_3
REMARK    2  A    between atoms: C_11  and  C_12
REMARK    3  A    between atoms: C_12  and  C_13
REMARK    4  A    between atoms: N_15  and  C_16
REMARK    5  A    between atoms: C_29  and  C_31
REMARK                            x       y       z     vdW  Elec       q    Type
REMARK                         _______ _______ _______ _____ _____    ______ ____
ROOT
ATOM      1  C   UNL     1       0.054   3.815  25.461  0.00  0.00    +0.005 C 
ATOM      2  C   UNL     1      -0.646   3.454  25.216  0.00  0.00    +0.059 C 
ATOM      5  C   UNL     1      -0.848   4.246  25.106  0.00  0.00    +0.154 C 
ATOM      6  O   UNL     1      -0.303   4.840  25.283  0.00  0.00    -0.223 OA
ATOM      7  C   UNL     1      -1.596   4.445  24.818  0.00  0.00    +0.033 C 
ATOM      8  C   UNL     1      -2.141   3.853  24.641  0.00  0.00    +0.003 C 
ATOM      9  C   UNL     1      -1.939   3.061  24.751  0.00  0.00    +0.006 C 
ATOM     10  C   UNL     1      -2.685   3.260  24.464  0.00  0.00    +0.000 C 
ATOM     11  C   UNL     1      -2.484   2.467  24.573  0.00  0.00    +0.050 C 
ATOM     22  C   UNL     1      -2.283   1.676  24.683  0.00  0.00    +0.063 A 
ATOM     23  C   UNL     1      -1.535   1.476  24.971  0.00  0.00    +0.023 A 
ATOM     24  C   UNL     1      -0.990   2.069  25.148  0.00  0.00    +0.034 C 
ATOM     25  C   UNL     1      -1.191   2.861  25.038  0.00  0.00    +0.010 C 
ATOM     26  S   UNL     1      -1.493   0.654  25.022  0.00  0.00    -0.054 S 
ATOM     27  C   UNL     1      -2.214   0.344  24.767  0.00  0.00    +0.185 A 
ATOM     28  N   UNL     1      -2.412  -0.455  24.728  0.00  0.00    -0.151 NA
ATOM     29  C   UNL     1      -3.158  -0.682  24.460  0.00  0.00    +0.271 C 
ATOM     30  O   UNL     1      -3.707  -0.110  24.230  0.00  0.00    -0.268 OA
ATOM     38  N   UNL     1      -2.701   0.976  24.557  0.00  0.00    -0.227 NA
ENDROOT
BRANCH  29  31
ATOM     31  C   UNL     1      -3.356  -1.482  24.421  0.00  0.00    +0.056 A 
ATOM     32  C   UNL     1      -3.958  -1.734  23.914  0.00  0.00    +0.007 A 
ATOM     33  C   UNL     1      -4.156  -2.534  23.875  0.00  0.00    +0.030 A 
ATOM     34  C   UNL     1      -3.753  -3.082  24.343  0.00  0.00    +0.140 A 
ATOM     35  F   UNL     1      -3.952  -3.882  24.304  0.00  0.00    -0.204 F 
ATOM     36  C   UNL     1      -3.153  -2.830  24.848  0.00  0.00    +0.030 A 
ATOM     37  C   UNL     1      -2.954  -2.031  24.887  0.00  0.00    +0.007 A 
ENDBRANCH  29  31
BRANCH   2   3
ATOM      3  C   UNL     1      -0.201   2.788  25.411  0.00  0.00    +0.184 C 
ATOM      4  O   UNL     1       0.523   2.873  25.798  0.00  0.00    -0.220 OA
ENDBRANCH   2   3
BRANCH  11  12
ATOM     12  C   UNL     1      -3.231   2.667  24.286  0.00  0.00    +0.093 C 
BRANCH  12  13
ATOM     13  C   UNL     1      -3.893   2.599  24.775  0.00  0.00    +0.246 C 
ATOM     14  O   UNL     1      -3.799   2.562  25.593  0.00  0.00    -0.273 OA
ATOM     15  N   UNL     1      -4.648   2.569  24.445  0.00  0.00    -0.179 NA
BRANCH  15  16
ATOM     16  C   UNL     1      -5.310   2.502  24.933  0.00  0.00    +0.073 A 
ATOM     17  C   UNL     1      -5.762   1.812  24.920  0.00  0.00    +0.017 A 
ATOM     18  C   UNL     1      -6.424   1.744  25.408  0.00  0.00    +0.001 A 
ATOM     19  C   UNL     1      -6.633   2.366  25.908  0.00  0.00    +0.000 A 
ATOM     20  C   UNL     1      -6.180   3.055  25.921  0.00  0.00    +0.001 A 
ATOM     21  C   UNL     1      -5.519   3.123  25.433  0.00  0.00    +0.017 A 
ENDBRANCH  15  16
ENDBRANCH  12  13
ENDBRANCH  11  12
TORSDOF 5
ENDMDL
MODEL 3
REMARK VINA RESULT:     -14.3      2.144      4.340
REMARK  Name = 
REMARK  5 active torsions:
REMARK  status: ('A' for Active; 'I' for Inactive)
REMARK    1  A    between atoms: C_2  and  C_3
REMARK    2  A    between atoms: C_11  and  C_12
REMARK    3  A    between atoms: C_12  and  C_13
REMARK    4  A    between atoms: N_15  and  C_16
REMARK    5  A    between atoms: C_29  and  C_31
REMARK                            x       y       z     vdW  Elec       q    Type
REMARK                         _______ _______ _______ _____ _____    ______ ____
ROOT
ATOM      1  C   UNL     1      -4.597   3.843  25.935  0.00  0.00    +0.005 C 
ATOM      2  C   UNL     1      -4.305   3.215  25.487  0.00  0.00    +0.059 C 
ATOM      5  C   UNL     1      -5.114   3.070  25.426  0.00  0.00    +0.154 C 
ATOM      6  O   UNL     1      -5.654   3.572  25.799  0.00  0.00    -0.223 OA
ATOM      7  C   UNL     1      -5.386   2.422  24.992  0.00  0.00    +0.033 C 
ATOM      8  C   UNL     1      -4.848   1.921  24.620  0.00  0.00    +0.003 C 
ATOM      9  C   UNL     1      -4.039   2.066  24.681  0.00  0.00    +0.006 C 
ATOM     10  C   UNL     1      -4.309   1.420  24.247  0.00  0.00    +0.000 C 
ATOM     11  C   UNL     1      -3.499   1.565  24.308  0.00  0.00    +0.050 C 
ATOM     22  C   UNL     1      -2.690   1.710  24.369  0.00  0.00    +0.063 A 
ATOM     23  C   UNL     1      -2.419   2.358  24.803  0.00  0.00    +0.023 A 
ATOM     24  C   UNL     1      -2.957   2.859  25.176  0.00  0.00    +0.034 C 
ATOM     25  C   UNL     1      -3.767   2.714  25.115  0.00  0.00    +0.010 C 
ATOM     26  S   UNL     1      -1.594   2.361  24.766  0.00  0.00    -0.054 S 
ATOM     27  C   UNL     1      -1.356   1.717  24.309  0.00  0.00    +0.185 A 
ATOM     28  N   UNL     1      -0.578   1.512  24.129  0.00  0.00    -0.151 NA
ATOM     29  C   UNL     1      -0.424   0.849  23.664  0.00  0.00    +0.271 C 
ATOM     30  O   UNL     1      -1.047   0.391  23.378  0.00  0.00    -0.268 OA
ATOM     38  N   UNL     1      -2.033   1.315  24.064  0.00  0.00    -0.227 NA
ENDROOT
BRANCH  29  31
ATOM     31  C   UNL     1       0.355   0.643  23.484  0.00  0.00    +0.056 A 
ATOM     32  C   UNL     1       0.516  -0.076  23.111  0.00  0.00    +0.007 A 
ATOM     33  C   UNL     1       1.295  -0.281  22.931  0.00  0.00    +0.030 A 
ATOM     34  C   UNL     1       1.912   0.232  23.124  0.00  0.00    +0.140 A 
ATOM     35  F   UNL     1       2.690   0.026  22.944  0.00  0.00    -0.204 F 
ATOM     36  C   UNL     1       1.751   0.949  23.497  0.00  0.00    +0.030 A 
ATOM     37  C   UNL     1       0.972   1.155  23.677  0.00  0.00    +0.007 A 
ENDBRANCH  29  31
BRANCH   2   3
ATOM      3  C   UNL     1      -3.597   3.579  25.704  0.00  0.00    +0.184 C 
ATOM      4  O   UNL     1      -3.607   4.238  26.201  0.00  0.00    -0.220 OA
ENDBRANCH   2   3
BRANCH  11  12
ATOM     12  C   UNL     1      -3.771   0.918  23.874  0.00  0.00    +0.093 C 
BRANCH  12  13
ATOM     13  C   UNL     1      -3.736   0.159  24.199  0.00  0.00    +0.246 C 
ATOM     14  O   UNL     1      -3.743   0.061  25.018  0.00  0.00    -0.273 OA
ATOM     15  N   UNL     1      -3.695  -0.499  23.705  0.00  0.00    -0.179 NA
BRANCH  15  16
ATOM     16  C   UNL     1      -3.661  -1.257  24.028  0.00  0.00    +0.073 A 
ATOM     17  C   UNL     1      -4.291  -1.779  23.922  0.00  0.00    +0.017 A 
ATOM     18  C   UNL     1      -4.257  -2.538  24.246  0.00  0.00    +0.001 A 
ATOM     19  C   UNL     1      -3.593  -2.773  24.676  0.00  0.00    +0.000 A 
ATOM     20  C   UNL     1      -2.964  -2.250  24.782  0.00  0.00    +0.001 A 
ATOM     21  C   UNL     1      -2.997  -1.493  24.458  0.00  0.00    +0.017 A 
ENDBRANCH  15  16
ENDBRANCH  12  13
ENDBRANCH  11  12
TORSDOF 5
ENDMDL
MODEL 4
REMARK VINA RESULT:     -14.0      2.440      6.017
REMARK  Name = 
REMARK  5 active torsions:
REMARK  status: ('A' for Active; 'I' for Inactive)
REMARK    1  A    between atoms: C_2  and  C_3
REMARK    2  A    between atoms: C_11  and  C_12
REMARK    3  A    between atoms: C_12  and  C_13
REMARK    4  A    between atoms: N_15  and  C_16
REMARK    5  A    between atoms: C_29  and  C_31
REMARK                            x       y       z     vdW  Elec       q    Type
REMARK                         _______ _______ _______ _____ _____    ______ ____
ROOT
ATOM      1  C   UNL     1      -2.583   4.902  25.118  0.00  0.00    +0.005 C 
ATOM      2  C   UNL     1      -2.260   4.144  25.105  0.00  0.00    +0.059 C 
ATOM      5  C   UNL     1      -1.581   4.586  25.260  0.00  0.00    +0.154 C 
ATOM      6  O   UNL     1      -1.629   5.407  25.325  0.00  0.00    -0.223 OA
ATOM      7  C   UNL     1      -0.853   4.207  25.349  0.00  0.00    +0.033 C 
ATOM      8  C   UNL     1      -0.805   3.386  25.283  0.00  0.00    +0.003 C 
ATOM      9  C   UNL     1      -1.483   2.944  25.129  0.00  0.00    +0.006 C 
ATOM     10  C   UNL     1      -0.756   2.566  25.218  0.00  0.00    +0.000 C 
ATOM     11  C   UNL     1      -1.435   2.123  25.063  0.00  0.00    +0.050 C 
ATOM     22  C   UNL     1      -2.114   1.681  24.908  0.00  0.00    +0.063 A 
ATOM     23  C   UNL     1      -2.842   2.060  24.819  0.00  0.00    +0.023 A 
ATOM     24  C   UNL     1      -2.890   2.880  24.885  0.00  0.00    +0.034 C 
ATOM     25  C   UNL     1      -2.211   3.323  25.039  0.00  0.00    +0.010 C 
ATOM     26  S   UNL     1      -3.412   1.483  24.671  0.00  0.00    -0.054 S 
ATOM     27  C   UNL     1      -3.038   0.748  24.668  0.00  0.00    +0.185 A 
ATOM     28  N   UNL     1      -3.402   0.018  24.541  0.00  0.00    -0.151 NA
ATOM     29  C   UNL     1      -2.954  -0.674  24.554  0.00  0.00    +0.271 C 
ATOM     30  O   UNL     1      -2.142  -0.637  24.695  0.00  0.00    -0.268 OA
ATOM     38  N   UNL     1      -2.236   0.870  24.815  0.00  0.00    -0.227 NA
ENDROOT
BRANCH  29  31
ATOM     31  C   UNL     1      -3.318  -1.403  24.427  0.00  0.00    +0.056 A 
ATOM     32  C   UNL     1      -3.965  -1.458  23.917  0.00  0.00    +0.007 A 
ATOM     33  C   UNL     1      -4.329  -2.187  23.790  0.00  0.00    +0.030 A 
ATOM     34  C   UNL     1      -4.047  -2.861  24.173  0.00  0.00    +0.140 A 
ATOM     35  F   UNL     1      -4.411  -3.591  24.046  0.00  0.00    -0.204 F 
ATOM     36  C   UNL     1      -3.401  -2.807  24.682  0.00  0.00    +0.030 A 
ATOM     37  C   UNL     1      -3.037  -2.077  24.810  0.00  0.00    +0.007 A 
ENDBRANCH  29  31
BRANCH   2   3
ATOM      3  C   UNL     1      -3.051   3.965  24.955  0.00  0.00    +0.184 C 
ATOM      4  O   UNL     1      -3.604   4.573  24.877  0.00  0.00    -0.220 OA
ENDBRANCH   2   3
BRANCH  11  12
ATOM     12  C   UNL     1      -0.708   1.744  25.152  0.00  0.00    +0.093 C 
BRANCH  12  13
ATOM     13  C   UNL     1      -0.300   1.472  24.488  0.00  0.00    +0.246 C 
ATOM     14  O   UNL     1      -0.499   1.753  23.738  0.00  0.00    -0.273 OA
ATOM     15  N   UNL     1       0.307   0.921  24.574  0.00  0.00    -0.179 NA
BRANCH  15  16
ATOM     16  C   UNL     1       0.715   0.649  23.911  0.00  0.00    +0.073 A 
ATOM     17  C   UNL     1       1.387   1.048  23.649  0.00  0.00    +0.017 A 
ATOM     18  C   UNL     1       1.796   0.776  22.985  0.00  0.00    +0.001 A 
ATOM     19  C   UNL     1       1.532   0.105  22.584  0.00  0.00    +0.000 A 
ATOM     20  C   UNL     1       0.859  -0.293  22.847  0.00  0.00    +0.001 A 
ATOM     21  C   UNL     1       0.450  -0.022  23.509  0.00  0.00    +0.017 A 
ENDBRANCH  15  16
ENDBRANCH  12  13
ENDBRANCH  11  12
TORSDOF 5
ENDMDL
MODEL 5
REMARK VINA RESULT:     -13.8      1.559      3.640
REMARK  Name = 
REMARK  5 active torsions:
REMARK  status: ('A' for Active; 'I' for Inactive)
REMARK    1  A    between atoms: C_2  and  C_3
REMARK    2  A    between atoms: C_11  and  C_12
REMARK    3  A    between atoms: C_12  and  C_13
REMARK    4  A    between atoms: N_15  and  C_16
REMARK    5  A    between atoms: C_29  and  C_31
REMARK                            x       y       z     vdW  Elec       q    Type
REMARK                         _______ _______ _______ _____ _____    ______ ____
ROOT
ATOM      1  C   UNL     1      -3.447  -3.034  23.999  0.00  0.00    +0.005 C 
ATOM      2  C   UNL     1      -3.238  -2.302  24.317  0.00  0.00    +0.059 C 
ATOM      5  C   UNL     1      -2.538  -2.719  24.444  0.00  0.00    +0.154 C 
ATOM      6  O   UNL     1      -2.478  -3.508  24.209  0.00  0.00    -0.223 OA
ATOM      7  C   UNL     1      -1.897  -2.347  24.808  0.00  0.00    +0.033 C 
ATOM      8  C   UNL     1      -1.956  -1.559  25.043  0.00  0.00    +0.003 C 
ATOM      9  C   UNL     1      -2.656  -1.142  24.915  0.00  0.00    +0.006 C 
ATOM     10  C   UNL     1      -2.016  -0.771  25.277  0.00  0.00    +0.000 C 
ATOM     11  C   UNL     1      -2.716  -0.353  25.150  0.00  0.00    +0.050 C 
ATOM     22  C   UNL     1      -3.416   0.063  25.023  0.00  0.00    +0.063 A 
ATOM     23  C   UNL     1      -4.058  -0.309  24.659  0.00  0.00    +0.023 A 
ATOM     24  C   UNL     1      -3.998  -1.097  24.424  0.00  0.00    +0.034 C 
ATOM     25  C   UNL     1      -3.298  -1.514  24.552  0.00  0.00    +0.010 C 
ATOM     26  S   UNL     1      -4.673   0.239  24.607  0.00  0.00    -0.054 S 
ATOM     27  C   UNL     1      -4.412   0.948  24.936  0.00  0.00    +0.185 A 
ATOM     28  N   UNL     1      -4.851   1.644  24.998  0.00  0.00    -0.151 NA
ATOM     29  C   UNL     1      -4.515   2.314  25.343  0.00  0.00    +0.271 C 
ATOM     30  O   UNL     1      -3.741   2.288  25.627  0.00  0.00    -0.268 OA
ATOM     38  N   UNL     1      -3.636   0.840  25.193  0.00  0.00    -0.227 NA
ENDROOT
BRANCH  29  31
ATOM     31  C   UNL     1      -4.954   3.010  25.406  0.00  0.00    +0.056 A 
ATOM     32  C   UNL     1      -4.606   3.735  25.222  0.00  0.00    +0.007 A 
ATOM     33  C   UNL     1      -5.044   4.431  25.284  0.00  0.00    +0.030 A 
ATOM     34  C   UNL     1      -5.832   4.401  25.530  0.00  0.00    +0.140 A 
ATOM     35  F   UNL     1      -6.270   5.097  25.592  0.00  0.00    -0.204 F 
ATOM     36  C   UNL     1      -6.180   3.677  25.713  0.00  0.00    +0.030 A 
ATOM     37  C   UNL     1      -5.741   2.981  25.651  0.00  0.00    +0.007 A 
ENDBRANCH  29  31
BRANCH   2   3
ATOM      3  C   UNL     1      -4.011  -2.140  24.079  0.00  0.00    +0.184 C 
ATOM      4  O   UNL     1      -4.458  -2.723  23.703  0.00  0.00    -0.220 OA
ENDBRANCH   2   3
BRANCH  11  12
ATOM     12  C   UNL     1      -2.075   0.018  25.513  0.00  0.00    +0.093 C 
BRANCH  12  13
ATOM     13  C   UNL     1      -1.619   0.561  25.090  0.00  0.00    +0.246 C 
ATOM     14  O   UNL     1      -1.687   0.605  24.269  0.00  0.00    -0.273 OA
ATOM     15  N   UNL     1      -1.095   1.057  25.487  0.00  0.00    -0.179 NA
BRANCH  15  16
ATOM     16  C   UNL     1      -0.638   1.599  25.065  0.00  0.00    +0.073 A 
ATOM     17  C   UNL     1      -0.840   2.399  25.070  0.00  0.00    +0.017 A 
ATOM     18  C   UNL     1      -0.383   2.941  24.647  0.00  0.00    +0.001 A 
ATOM     19  C   UNL     1       0.274   2.684  24.220  0.00  0.00    +0.000 A 
ATOM     20  C   UNL     1       0.475   1.883  24.216  0.00  0.00    +0.001 A 
ATOM     21  C   UNL     1       0.019   1.341  24.638  0.00  0.00    +0.017 A 
ENDBRANCH  15  16
ENDBRANCH  12  13
ENDBRANCH  11  12
TORSDOF 5
ENDMDL
MODEL 6
REMARK VINA RESULT:     -13.8      1.769      3.723
REMARK  Name = 
REMARK  5 active torsions:
REMARK  status: ('A' for Active; 'I' for Inactive)
REMARK    1  A    between atoms: C_2  and  C_3
REMARK    2  A    between atoms: C_11  and  C_12
REMARK    3  A    between atoms: C_12  and  C_13
REMARK    4  A    between atoms: N_15  and  C_16
REMARK    5  A    between atoms: C_29  and  C_31
REMARK                            x       y       z     vdW  Elec       q    Type
REMARK                         _______ _______ _______ _____ _____    ______ ____
ROOT
ATOM      1  C   UNL     1      -4.313  -2.149  24.193  0.00  0.00    +0.005 C 
ATOM      2  C   UNL     1      -3.643  -1.687  24.330  0.00  0.00    +0.059 C 
ATOM      5  C   UNL     1      -3.301  -2.437  24.321  0.00  0.00    +0.154 C 
ATOM      6  O   UNL     1      -3.770  -3.105  24.198  0.00  0.00    -0.223 OA
ATOM      7  C   UNL     1      -2.487  -2.521  24.436  0.00  0.00    +0.033 C 
ATOM      8  C   UNL     1      -2.018  -1.854  24.560  0.00  0.00    +0.003 C 
ATOM      9  C   UNL     1      -2.360  -1.104  24.568  0.00  0.00    +0.006 C 
ATOM     10  C   UNL     1      -1.549  -1.188  24.683  0.00  0.00    +0.000 C 
ATOM     11  C   UNL     1      -1.891  -0.437  24.692  0.00  0.00    +0.050 C 
ATOM     22  C   UNL     1      -2.234   0.313  24.700  0.00  0.00    +0.063 A 
ATOM     23  C   UNL     1      -3.047   0.396  24.585  0.00  0.00    +0.023 A 
ATOM     24  C   UNL     1      -3.516  -0.270  24.462  0.00  0.00    +0.034 C 
ATOM     25  C   UNL     1      -3.174  -1.021  24.453  0.00  0.00    +0.010 C 
ATOM     26  S   UNL     1      -3.228   1.201  24.622  0.00  0.00    -0.054 S 
ATOM     27  C   UNL     1      -2.528   1.614  24.760  0.00  0.00    +0.185 A 
ATOM     28  N   UNL     1      -2.455   2.432  24.836  0.00  0.00    -0.151 NA
ATOM     29  C   UNL     1      -1.715   2.769  24.974  0.00  0.00    +0.271 C 
ATOM     30  O   UNL     1      -1.047   2.288  25.035  0.00  0.00    -0.268 OA
ATOM     38  N   UNL     1      -1.914   1.066  24.808  0.00  0.00    -0.227 NA
ENDROOT
BRANCH  29  31
ATOM     31  C   UNL     1      -1.642   3.587  25.050  0.00  0.00    +0.056 A 
ATOM     32  C   UNL     1      -0.949   3.964  24.804  0.00  0.00    +0.007 A 
ATOM     33  C   UNL     1      -0.876   4.783  24.881  0.00  0.00    +0.030 A 
ATOM     34  C   UNL     1      -1.495   5.223  25.202  0.00  0.00    +0.140 A 
ATOM     35  F   UNL     1      -1.422   6.042  25.278  0.00  0.00    -0.204 F 
ATOM     36  C   UNL     1      -2.186   4.847  25.447  0.00  0.00    +0.030 A 
ATOM     37  C   UNL     1      -2.260   4.029  25.371  0.00  0.00    +0.007 A 
ENDBRANCH  29  31
BRANCH   2   3
ATOM      3  C   UNL     1      -4.219  -1.098  24.291  0.00  0.00    +0.184 C 
ATOM      4  O   UNL     1      -4.998  -1.294  24.103  0.00  0.00    -0.220 OA
ENDBRANCH   2   3
BRANCH  11  12
ATOM     12  C   UNL     1      -1.078  -0.520  24.807  0.00  0.00    +0.093 C 
BRANCH  12  13
ATOM     13  C   UNL     1      -0.553  -0.322  24.201  0.00  0.00    +0.246 C 
ATOM     14  O   UNL     1      -0.837  -0.182  23.439  0.00  0.00    -0.273 OA
ATOM     15  N   UNL     1       0.254  -0.263  24.358  0.00  0.00    -0.179 NA
BRANCH  15  16
ATOM     16  C   UNL     1       0.779  -0.064  23.754  0.00  0.00    +0.073 A 
ATOM     17  C   UNL     1       1.154   0.670  23.760  0.00  0.00    +0.017 A 
ATOM     18  C   UNL     1       1.680   0.869  23.155  0.00  0.00    +0.001 A 
ATOM     19  C   UNL     1       1.829   0.334  22.546  0.00  0.00    +0.000 A 
ATOM     20  C   UNL     1       1.453  -0.400  22.541  0.00  0.00    +0.001 A 
ATOM     21  C   UNL     1       0.928  -0.599  23.144  0.00  0.00    +0.017 A 
ENDBRANCH  15  16
ENDBRANCH  12  13
ENDBRANCH  11  12
TORSDOF 5
ENDMDL
MODEL 7
REMARK VINA RESULT:     -13.5      2.323      5.694
REMARK  Name = 
REMARK  5 active torsions:
REMARK  status: ('A' for Active; 'I' for Inactive)
REMARK    1  A    between atoms: C_2  and  C_3
REMARK    2  A    between atoms: C_11  and  C_12
REMARK    3  A    between atoms: C_12  and  C_13
REMARK    4  A    between atoms: N_15  and  C_16
REMARK    5  A    between atoms: C_29  and  C_31
REMARK                            x       y       z     vdW  Elec       q    Type
REMARK                         _______ _______ _______ _____ _____    ______ ____
ROOT
ATOM      1  C   UNL     1      -5.762   4.119  25.751  0.00  0.00    +0.005 C 
ATOM      2  C   UNL     1      -5.226   3.633  25.355  0.00  0.00    +0.059 C 
ATOM      5  C   UNL     1      -4.944   4.373  25.127  0.00  0.00    +0.154 C 
ATOM      6  O   UNL     1      -5.317   5.059  25.396  0.00  0.00    -0.223 OA
ATOM      7  C   UNL     1      -4.287   4.429  24.630  0.00  0.00    +0.033 C 
ATOM      8  C   UNL     1      -3.914   3.745  24.361  0.00  0.00    +0.003 C 
ATOM      9  C   UNL     1      -4.196   3.004  24.589  0.00  0.00    +0.006 C 
ATOM     10  C   UNL     1      -3.541   3.060  24.093  0.00  0.00    +0.000 C 
ATOM     11  C   UNL     1      -3.823   2.319  24.321  0.00  0.00    +0.050 C 
ATOM     22  C   UNL     1      -4.106   1.579  24.548  0.00  0.00    +0.063 A 
ATOM     23  C   UNL     1      -4.763   1.523  25.046  0.00  0.00    +0.023 A 
ATOM     24  C   UNL     1      -5.136   2.207  25.314  0.00  0.00    +0.034 C 
ATOM     25  C   UNL     1      -4.853   2.949  25.087  0.00  0.00    +0.010 C 
ATOM     26  S   UNL     1      -4.915   0.723  25.177  0.00  0.00    -0.054 S 
ATOM     27  C   UNL     1      -4.354   0.284  24.761  0.00  0.00    +0.185 A 
ATOM     28  N   UNL     1      -4.302  -0.539  24.738  0.00  0.00    -0.151 NA
ATOM     29  C   UNL     1      -3.708  -0.902  24.296  0.00  0.00    +0.271 C 
ATOM     30  O   UNL     1      -3.165  -0.442  23.877  0.00  0.00    -0.268 OA
ATOM     38  N   UNL     1      -3.854   0.813  24.373  0.00  0.00    -0.227 NA
ENDROOT
BRANCH  29  31
ATOM     31  C   UNL     1      -3.656  -1.725  24.272  0.00  0.00    +0.056 A 
ATOM     32  C   UNL     1      -4.202  -2.161  23.832  0.00  0.00    +0.007 A 
ATOM     33  C   UNL     1      -4.149  -2.984  23.809  0.00  0.00    +0.030 A 
ATOM     34  C   UNL     1      -3.551  -3.371  24.225  0.00  0.00    +0.140 A 
ATOM     35  F   UNL     1      -3.499  -4.194  24.202  0.00  0.00    -0.204 F 
ATOM     36  C   UNL     1      -3.006  -2.936  24.665  0.00  0.00    +0.030 A 
ATOM     37  C   UNL     1      -3.058  -2.113  24.688  0.00  0.00    +0.007 A 
ENDBRANCH  29  31
BRANCH   2   3
ATOM      3  C   UNL     1      -5.695   3.062  25.721  0.00  0.00    +0.184 C 
ATOM      4  O   UNL     1      -6.309   3.291  26.223  0.00  0.00    -0.220 OA
ENDBRANCH   2   3
BRANCH  11  12
ATOM     12  C   UNL     1      -3.167   2.375  23.824  0.00  0.00    +0.093 C 
BRANCH  12  13
ATOM     13  C   UNL     1      -2.409   2.252  24.126  0.00  0.00    +0.246 C 
ATOM     14  O   UNL     1      -2.291   2.218  24.942  0.00  0.00    -0.273 OA
ATOM     15  N   UNL     1      -1.770   2.165  23.613  0.00  0.00    -0.179 NA
BRANCH  15  16
ATOM     16  C   UNL     1      -1.012   2.043  23.915  0.00  0.00    +0.073 A 
ATOM     17  C   UNL     1      -0.688   1.284  23.918  0.00  0.00    +0.017 A 
ATOM     18  C   UNL     1       0.071   1.162  24.220  0.00  0.00    +0.001 A 
ATOM     19  C   UNL     1       0.504   1.797  24.517  0.00  0.00    +0.000 A 
ATOM     20  C   UNL     1       0.179   2.556  24.513  0.00  0.00    +0.001 A 
ATOM     21  C   UNL     1      -0.578   2.679  24.212  0.00  0.00    +0.017 A 
ENDBRANCH  15  16
ENDBRANCH  12  13
ENDBRANCH  11  12
TORSDOF 5
ENDMDL
MODEL 8
REMARK VINA RESULT:     -12.4      2.650      3.785
REMARK  Name = 
REMARK  5 active torsions:
REMARK  status: ('A' for Active; 'I' for Inactive)
REMARK    1  A    between atoms: C_2  and  C_3
REMARK    2  A    between atoms: C_11  and  C_12
REMARK    3  A    between atoms: C_12  and  C_13
REMARK    4  A    between atoms: N_15  and  C_16
REMARK    5  A    between atoms: C_29  and  C_31
REMARK                            x       y       z     vdW  Elec       q    Type
REMARK                         _______ _______ _______ _____ _____    ______ ____
ROOT
ATOM      1  C   UNL     1      -3.566  -1.559  25.605  0.00  0.00    +0.005 C 
ATOM      2  C   UNL     1      -3.140  -0.970  25.214  0.00  0.00    +0.059 C 
ATOM      5  C   UNL     1      -3.869  -0.593  25.289  0.00  0.00    +0.154 C 
ATOM      6  O   UNL     1      -4.498  -0.979  25.659  0.00  0.00    -0.223 OA
ATOM      7  C   UNL     1      -3.970   0.172  24.995  0.00  0.00    +0.033 C 
ATOM      8  C   UNL     1      -3.342   0.558  24.625  0.00  0.00    +0.003 C 
ATOM      9  C   UNL     1      -2.613   0.180  24.550  0.00  0.00    +0.006 C 
ATOM     10  C   UNL     1      -2.714   0.943  24.256  0.00  0.00    +0.000 C 
ATOM     11  C   UNL     1      -1.984   0.566  24.181  0.00  0.00    +0.050 C 
ATOM     22  C   UNL     1      -1.255   0.189  24.106  0.00  0.00    +0.063 A 
ATOM     23  C   UNL     1      -1.153  -0.576  24.401  0.00  0.00    +0.023 A 
ATOM     24  C   UNL     1      -1.782  -0.962  24.770  0.00  0.00    +0.034 C 
ATOM     25  C   UNL     1      -2.512  -0.585  24.845  0.00  0.00    +0.010 C 
ATOM     26  S   UNL     1      -0.376  -0.807  24.247  0.00  0.00    -0.054 S 
ATOM     27  C   UNL     1       0.003  -0.186  23.858  0.00  0.00    +0.185 A 
ATOM     28  N   UNL     1       0.787  -0.182  23.602  0.00  0.00    -0.151 NA
ATOM     29  C   UNL     1       1.091   0.482  23.219  0.00  0.00    +0.271 C 
ATOM     30  O   UNL     1       0.612   1.142  23.092  0.00  0.00    -0.268 OA
ATOM     38  N   UNL     1      -0.540   0.428  23.771  0.00  0.00    -0.227 NA
ENDROOT
BRANCH  29  31
ATOM     31  C   UNL     1       1.875   0.487  22.962  0.00  0.00    +0.056 A 
ATOM     32  C   UNL     1       2.429   0.972  23.336  0.00  0.00    +0.007 A 
ATOM     33  C   UNL     1       3.213   0.977  23.079  0.00  0.00    +0.030 A 
ATOM     34  C   UNL     1       3.443   0.497  22.449  0.00  0.00    +0.140 A 
ATOM     35  F   UNL     1       4.228   0.501  22.193  0.00  0.00    -0.204 F 
ATOM     36  C   UNL     1       2.891   0.012  22.076  0.00  0.00    +0.030 A 
ATOM     37  C   UNL     1       2.107   0.007  22.333  0.00  0.00    +0.007 A 
ENDBRANCH  29  31
BRANCH   2   3
ATOM      3  C   UNL     1      -2.559  -1.553  25.275  0.00  0.00    +0.184 C 
ATOM      4  O   UNL     1      -2.759  -2.311  25.532  0.00  0.00    -0.220 OA
ENDBRANCH   2   3
BRANCH  11  12
ATOM     12  C   UNL     1      -2.085   1.330  23.887  0.00  0.00    +0.093 C 
BRANCH  12  13
ATOM     13  C   UNL     1      -1.824   1.979  24.325  0.00  0.00    +0.246 C 
ATOM     14  O   UNL     1      -1.536   1.871  25.091  0.00  0.00    -0.273 OA
ATOM     15  N   UNL     1      -1.853   2.735  23.999  0.00  0.00    -0.179 NA
BRANCH  15  16
ATOM     16  C   UNL     1      -1.593   3.384  24.437  0.00  0.00    +0.073 A 
ATOM     17  C   UNL     1      -2.128   3.810  24.898  0.00  0.00    +0.017 A 
ATOM     18  C   UNL     1      -1.869   4.460  25.336  0.00  0.00    +0.001 A 
ATOM     19  C   UNL     1      -1.075   4.683  25.313  0.00  0.00    +0.000 A 
ATOM     20  C   UNL     1      -0.540   4.256  24.851  0.00  0.00    +0.001 A 
ATOM     21  C   UNL     1      -0.799   3.607  24.413  0.00  0.00    +0.017 A 
ENDBRANCH  15  16
ENDBRANCH  12  13
ENDBRANCH  11  12
TORSDOF 5
ENDMDL
