MODEL 1
REMARK VINA RESULT:     -12.6      0.000      0.000
REMARK  Name = 
REMARK  5 active torsions:
REMARK  status: ('A' for Active; 'I' for Inactive)
REMARK    1  A    between atoms: C_4  and  N_19
REMARK    2  A    between atoms: C_6  and  C_7
REMARK    3  A    between atoms: C_9  and  C_10
REMARK    4  A    between atoms: C_10  and  C_11
REMARK    5  A    between atoms: N_22  and  C_23
REMARK                            x       y       z     vdW  Elec       q    Type
REMARK                         _______ _______ _______ _____ _____    ______ ____
ROOT
ATOM      1  C   UNL     1      -5.744   2.237  25.848  0.00  0.00    +0.090 C 
ATOM      2  N   UNL     1      -5.235   1.842  25.333  0.00  0.00    -0.264 NA
ATOM      3  C   UNL     1      -5.351   1.086  25.022  0.00  0.00    +0.094 C 
ATOM      4  C   UNL     1      -4.709   0.910  24.536  0.00  0.00    +0.115 C 
ATOM      5  C   UNL     1      -4.196   1.556  24.547  0.00  0.00    +0.049 C 
ATOM      6  C   UNL     1      -4.521   2.132  25.039  0.00  0.00    +0.139 C 
ENDROOT
BRANCH   6   7
ATOM      7  C   UNL     1      -4.191   2.869  25.208  0.00  0.00    +0.251 A 
ATOM      8  N   UNL     1      -3.505   3.004  25.646  0.00  0.00    -0.193 NA
ATOM      9  C   UNL     1      -3.379   3.819  25.678  0.00  0.00    +0.185 A 
ATOM     17  N   UNL     1      -3.987   4.187  25.259  0.00  0.00    -0.060 NA
ATOM     18  O   UNL     1      -4.489   3.600  24.969  0.00  0.00    -0.336 OA
BRANCH   9  10
ATOM     10  C   UNL     1      -2.754   4.198  26.060  0.00  0.00    +0.095 C 
BRANCH  10  11
ATOM     11  C   UNL     1      -2.045   4.329  25.661  0.00  0.00    -0.014 A 
ATOM     12  C   UNL     1      -1.911   5.050  25.283  0.00  0.00    -0.004 A 
ATOM     13  C   UNL     1      -1.201   5.182  24.883  0.00  0.00    -0.000 A 
ATOM     14  C   UNL     1      -0.625   4.592  24.861  0.00  0.00    -0.000 A 
ATOM     15  C   UNL     1      -0.759   3.871  25.238  0.00  0.00    -0.000 A 
ATOM     16  C   UNL     1      -1.468   3.740  25.638  0.00  0.00    -0.004 A 
ENDBRANCH  10  11
ENDBRANCH   9  10
ENDBRANCH   6   7
BRANCH   4  19
ATOM     19  N   UNL     1      -4.598   0.210  24.113  0.00  0.00    -0.187 NA
ATOM     20  C   UNL     1      -4.110  -0.382  24.416  0.00  0.00    +0.339 C 
ATOM     21  O   UNL     1      -3.732  -0.275  25.141  0.00  0.00    -0.249 OA
ATOM     22  N   UNL     1      -3.999  -1.082  23.993  0.00  0.00    -0.189 NA
BRANCH  22  23
ATOM     23  C   UNL     1      -3.510  -1.673  24.296  0.00  0.00    +0.097 C 
ATOM     24  C   UNL     1      -3.842  -2.337  24.658  0.00  0.00    +0.022 C 
ATOM     25  C   UNL     1      -3.355  -2.929  24.961  0.00  0.00    +0.002 C 
ATOM     26  C   UNL     1      -2.534  -2.858  24.903  0.00  0.00    +0.000 C 
ATOM     27  C   UNL     1      -2.203  -2.194  24.542  0.00  0.00    +0.002 C 
ATOM     28  C   UNL     1      -2.691  -1.603  24.239  0.00  0.00    +0.022 C 
ENDBRANCH  22  23
ENDBRANCH   4  19
TORSDOF 5
ENDMDL
MODEL 2
REMARK VINA RESULT:     -12.4      2.303      6.209
REMARK  Name = 
REMARK  5 active torsions:
REMARK  status: ('A' for Active; 'I' for Inactive)
REMARK    1  A    between atoms: C_4  and  N_19
REMARK    2  A    between atoms: C_6  and  C_7
REMARK    3  A    between atoms: C_9  and  C_10
REMARK    4  A    between atoms: C_10  and  C_11
REMARK    5  A    between atoms: N_22  and  C_23
REMARK                            x       y       z     vdW  Elec       q    Type
REMARK                         _______ _______ _______ _____ _____    ______ ____
ROOT
ATOM      1  C   UNL     1      -0.037  -0.199  23.481  0.00  0.00    +0.090 C 
ATOM      2  N   UNL     1      -0.178   0.299  24.124  0.00  0.00    -0.264 NA
ATOM      3  C   UNL     1       0.117   1.064  24.219  0.00  0.00    +0.094 C 
ATOM      4  C   UNL     1      -0.161   1.356  24.938  0.00  0.00    +0.115 C 
ATOM      5  C   UNL     1      -0.627   0.773  25.287  0.00  0.00    +0.049 C 
ATOM      6  C   UNL     1      -0.638   0.119  24.785  0.00  0.00    +0.139 C 
ENDROOT
BRANCH   6   7
ATOM      7  C   UNL     1      -1.038  -0.590  24.919  0.00  0.00    +0.251 A 
ATOM      8  N   UNL     1      -1.828  -0.666  25.141  0.00  0.00    -0.193 NA
ATOM      9  C   UNL     1      -1.997  -1.471  25.214  0.00  0.00    +0.185 A 
ATOM     17  N   UNL     1      -1.310  -1.892  25.036  0.00  0.00    -0.060 NA
ATOM     18  O   UNL     1      -0.717  -1.348  24.853  0.00  0.00    -0.336 OA
BRANCH   9  10
ATOM     10  C   UNL     1      -2.724  -1.796  25.427  0.00  0.00    +0.095 C 
BRANCH  10  11
ATOM     11  C   UNL     1      -3.288  -1.959  24.848  0.00  0.00    -0.014 A 
ATOM     12  C   UNL     1      -3.782  -1.359  24.571  0.00  0.00    -0.004 A 
ATOM     13  C   UNL     1      -4.346  -1.522  23.992  0.00  0.00    -0.000 A 
ATOM     14  C   UNL     1      -4.417  -2.285  23.688  0.00  0.00    -0.000 A 
ATOM     15  C   UNL     1      -3.924  -2.886  23.965  0.00  0.00    -0.000 A 
ATOM     16  C   UNL     1      -3.359  -2.723  24.544  0.00  0.00    -0.004 A 
ENDBRANCH  10  11
ENDBRANCH   9  10
ENDBRANCH   6   7
BRANCH   4  19
ATOM     19  N   UNL     1      -0.001   2.102  25.253  0.00  0.00    -0.187 NA
ATOM     20  C   UNL     1      -0.536   2.720  25.142  0.00  0.00    +0.339 C 
ATOM     21  O   UNL     1      -1.231   2.593  24.717  0.00  0.00    -0.249 OA
ATOM     22  N   UNL     1      -0.376   3.466  25.457  0.00  0.00    -0.189 NA
BRANCH  22  23
ATOM     23  C   UNL     1      -0.911   4.083  25.347  0.00  0.00    +0.097 C 
ATOM     24  C   UNL     1      -0.698   4.737  24.890  0.00  0.00    +0.022 C 
ATOM     25  C   UNL     1      -1.232   5.355  24.779  0.00  0.00    +0.002 C 
ATOM     26  C   UNL     1      -1.982   5.320  25.124  0.00  0.00    +0.000 C 
ATOM     27  C   UNL     1      -2.195   4.666  25.581  0.00  0.00    +0.002 C 
ATOM     28  C   UNL     1      -1.659   4.048  25.691  0.00  0.00    +0.022 C 
ENDBRANCH  22  23
ENDBRANCH   4  19
TORSDOF 5
ENDMDL
MODEL 3
REMARK VINA RESULT:     -11.5      0.750      5.414
REMARK  Name = 
REMARK  5 active torsions:
REMARK  status: ('A' for Active; 'I' for Inactive)
REMARK    1  A    between atoms: C_4  and  N_19
REMARK    2  A    between atoms: C_6  and  C_7
REMARK    3  A    between atoms: C_9  and  C_10
REMARK    4  A    between atoms: C_10  and  C_11
REMARK    5  A    between atoms: N_22  and  C_23
REMARK                            x       y       z     vdW  Elec       q    Type
REMARK                         _______ _______ _______ _____ _____    ______ ____
ROOT
ATOM      1  C   UNL     1      -5.921   2.078  24.701  0.00  0.00    +0.090 C 
ATOM      2  N   UNL     1      -5.182   2.246  25.026  0.00  0.00    -0.264 NA
ATOM      3  C   UNL     1      -4.927   2.983  25.297  0.00  0.00    +0.094 C 
ATOM      4  C   UNL     1      -4.156   2.899  25.576  0.00  0.00    +0.115 C 
ATOM      5  C   UNL     1      -3.933   2.111  25.477  0.00  0.00    +0.049 C 
ATOM      6  C   UNL     1      -4.567   1.708  25.138  0.00  0.00    +0.139 C 
ENDROOT
BRANCH   6   7
ATOM      7  C   UNL     1      -4.584   0.906  24.943  0.00  0.00    +0.251 A 
ATOM      8  N   UNL     1      -4.163   0.546  24.332  0.00  0.00    -0.193 NA
ATOM      9  C   UNL     1      -4.343  -0.259  24.337  0.00  0.00    +0.185 A 
ATOM     17  N   UNL     1      -4.876  -0.397  24.952  0.00  0.00    -0.060 NA
ATOM     18  O   UNL     1      -5.024   0.323  25.327  0.00  0.00    -0.336 OA
BRANCH   9  10
ATOM     10  C   UNL     1      -4.043  -0.826  23.819  0.00  0.00    +0.095 C 
BRANCH  10  11
ATOM     11  C   UNL     1      -3.664  -1.496  24.115  0.00  0.00    -0.014 A 
ATOM     12  C   UNL     1      -2.895  -1.440  24.408  0.00  0.00    -0.004 A 
ATOM     13  C   UNL     1      -2.515  -2.109  24.704  0.00  0.00    -0.000 A 
ATOM     14  C   UNL     1      -2.904  -2.837  24.708  0.00  0.00    -0.000 A 
ATOM     15  C   UNL     1      -3.674  -2.893  24.415  0.00  0.00    -0.000 A 
ATOM     16  C   UNL     1      -4.053  -2.223  24.119  0.00  0.00    -0.004 A 
ENDBRANCH  10  11
ENDBRANCH   9  10
ENDBRANCH   6   7
BRANCH   4  19
ATOM     19  N   UNL     1      -3.688   3.499  25.897  0.00  0.00    -0.187 NA
ATOM     20  C   UNL     1      -2.999   3.735  25.511  0.00  0.00    +0.339 C 
ATOM     21  O   UNL     1      -2.776   3.373  24.805  0.00  0.00    -0.249 OA
ATOM     22  N   UNL     1      -2.531   4.335  25.832  0.00  0.00    -0.189 NA
BRANCH  22  23
ATOM     23  C   UNL     1      -1.842   4.571  25.446  0.00  0.00    +0.097 C 
ATOM     24  C   UNL     1      -1.783   5.333  25.135  0.00  0.00    +0.022 C 
ATOM     25  C   UNL     1      -1.095   5.570  24.750  0.00  0.00    +0.002 C 
ATOM     26  C   UNL     1      -0.462   5.045  24.674  0.00  0.00    +0.000 C 
ATOM     27  C   UNL     1      -0.520   4.282  24.985  0.00  0.00    +0.002 C 
ATOM     28  C   UNL     1      -1.210   4.046  25.371  0.00  0.00    +0.022 C 
ENDBRANCH  22  23
ENDBRANCH   4  19
TORSDOF 5
ENDMDL
MODEL 4
REMARK VINA RESULT:     -11.3      2.141      3.210
REMARK  Name = 
REMARK  5 active torsions:
REMARK  status: ('A' for Active; 'I' for Inactive)
REMARK    1  A    between atoms: C_4  and  N_19
REMARK    2  A    between atoms: C_6  and  C_7
REMARK    3  A    between atoms: C_9  and  C_10
REMARK    4  A    between atoms: C_10  and  C_11
REMARK    5  A    between atoms: N_22  and  C_23
REMARK                            x       y       z     vdW  Elec       q    Type
REMARK                         _______ _______ _______ _____ _____    ______ ____
ROOT
ATOM      1  C   UNL     1       0.433   1.600  23.889  0.00  0.00    +0.090 C 
ATOM      2  N   UNL     1      -0.023   1.129  24.390  0.00  0.00    -0.264 NA
ATOM      3  C   UNL     1      -0.054   0.304  24.387  0.00  0.00    +0.094 C 
ATOM      4  C   UNL     1      -0.578   0.067  24.977  0.00  0.00    +0.115 C 
ATOM      5  C   UNL     1      -0.871   0.745  25.345  0.00  0.00    +0.049 C 
ATOM      6  C   UNL     1      -0.529   1.401  24.982  0.00  0.00    +0.139 C 
ENDROOT
BRANCH   6   7
ATOM      7  C   UNL     1      -0.667   2.191  25.178  0.00  0.00    +0.251 A 
ATOM      8  N   UNL     1      -1.281   2.660  24.890  0.00  0.00    -0.193 NA
ATOM      9  C   UNL     1      -1.209   3.410  25.229  0.00  0.00    +0.185 A 
ATOM     17  N   UNL     1      -0.550   3.402  25.727  0.00  0.00    -0.060 NA
ATOM     18  O   UNL     1      -0.215   2.649  25.695  0.00  0.00    -0.336 OA
BRANCH   9  10
ATOM     10  C   UNL     1      -1.708   4.052  25.095  0.00  0.00    +0.095 C 
BRANCH  10  11
ATOM     11  C   UNL     1      -2.508   4.000  25.286  0.00  0.00    -0.014 A 
ATOM     12  C   UNL     1      -2.757   4.127  26.063  0.00  0.00    -0.004 A 
ATOM     13  C   UNL     1      -3.558   4.075  26.254  0.00  0.00    -0.000 A 
ATOM     14  C   UNL     1      -4.111   3.895  25.669  0.00  0.00    -0.000 A 
ATOM     15  C   UNL     1      -3.862   3.767  24.893  0.00  0.00    -0.000 A 
ATOM     16  C   UNL     1      -3.062   3.819  24.702  0.00  0.00    -0.004 A 
ENDBRANCH  10  11
ENDBRANCH   9  10
ENDBRANCH   6   7
BRANCH   4  19
ATOM     19  N   UNL     1      -0.775  -0.712  25.167  0.00  0.00    -0.187 NA
ATOM     20  C   UNL     1      -1.493  -1.028  24.915  0.00  0.00    +0.339 C 
ATOM     21  O   UNL     1      -2.016  -0.568  24.474  0.00  0.00    -0.249 OA
ATOM     22  N   UNL     1      -1.690  -1.807  25.105  0.00  0.00    -0.189 NA
BRANCH  22  23
ATOM     23  C   UNL     1      -2.408  -2.124  24.853  0.00  0.00    +0.097 C 
ATOM     24  C   UNL     1      -2.429  -2.639  24.208  0.00  0.00    +0.022 C 
ATOM     25  C   UNL     1      -3.146  -2.956  23.956  0.00  0.00    +0.002 C 
ATOM     26  C   UNL     1      -3.846  -2.758  24.347  0.00  0.00    +0.000 C 
ATOM     27  C   UNL     1      -3.826  -2.242  24.992  0.00  0.00    +0.002 C 
ATOM     28  C   UNL     1      -3.107  -1.926  25.244  0.00  0.00    +0.022 C 
ENDBRANCH  22  23
ENDBRANCH   4  19
TORSDOF 5
ENDMDL
MODEL 5
REMARK VINA RESULT:     -10.9      1.995      5.544
REMARK  Name = 
REMARK  5 active torsions:
REMARK  status: ('A' for Active; 'I' for Inactive)
REMARK    1  A    between atoms: C_4  and  N_19
REMARK    2  A    between atoms: C_6  and  C_7
REMARK    3  A    between atoms: C_9  and  C_10
REMARK    4  A    between atoms: C_10  and  C_11
REMARK    5  A    between atoms: N_22  and  C_23
REMARK                            x       y       z     vdW  Elec       q    Type
REMARK                         _______ _______ _______ _____ _____    ______ ____
ROOT
ATOM      1  C   UNL     1       0.258   1.662  24.532  0.00  0.00    +0.090 C 
ATOM      2  N   UNL     1      -0.543   1.716  24.343  0.00  0.00    -0.264 NA
ATOM      3  C   UNL     1      -0.968   2.414  24.231  0.00  0.00    +0.094 C 
ATOM      4  C   UNL     1      -1.747   2.211  24.051  0.00  0.00    +0.115 C 
ATOM      5  C   UNL     1      -1.803   1.388  24.052  0.00  0.00    +0.049 C 
ATOM      6  C   UNL     1      -1.059   1.082  24.232  0.00  0.00    +0.139 C 
ENDROOT
BRANCH   6   7
ATOM      7  C   UNL     1      -0.864   0.282  24.292  0.00  0.00    +0.251 A 
ATOM      8  N   UNL     1      -1.241  -0.274  24.771  0.00  0.00    -0.193 NA
ATOM      9  C   UNL     1      -0.868  -1.002  24.658  0.00  0.00    +0.185 A 
ATOM     17  N   UNL     1      -0.262  -0.895  24.109  0.00  0.00    -0.060 NA
ATOM     18  O   UNL     1      -0.259  -0.102  23.883  0.00  0.00    -0.336 OA
BRANCH   9  10
ATOM     10  C   UNL     1      -1.068  -1.711  25.028  0.00  0.00    +0.095 C 
BRANCH  10  11
ATOM     11  C   UNL     1      -1.822  -2.030  24.928  0.00  0.00    -0.014 A 
ATOM     12  C   UNL     1      -1.974  -2.541  24.298  0.00  0.00    -0.004 A 
ATOM     13  C   UNL     1      -2.728  -2.861  24.198  0.00  0.00    -0.000 A 
ATOM     14  C   UNL     1      -3.331  -2.670  24.728  0.00  0.00    -0.000 A 
ATOM     15  C   UNL     1      -3.179  -2.159  25.358  0.00  0.00    -0.000 A 
ATOM     16  C   UNL     1      -2.425  -1.840  25.458  0.00  0.00    -0.004 A 
ENDBRANCH  10  11
ENDBRANCH   9  10
ENDBRANCH   6   7
BRANCH   4  19
ATOM     19  N   UNL     1      -2.363   2.739  23.897  0.00  0.00    -0.187 NA
ATOM     20  C   UNL     1      -3.038   2.734  24.371  0.00  0.00    +0.339 C 
ATOM     21  O   UNL     1      -3.099   2.202  24.998  0.00  0.00    -0.249 OA
ATOM     22  N   UNL     1      -3.654   3.261  24.217  0.00  0.00    -0.189 NA
BRANCH  22  23
ATOM     23  C   UNL     1      -4.329   3.256  24.690  0.00  0.00    +0.097 C 
ATOM     24  C   UNL     1      -4.427   3.832  25.273  0.00  0.00    +0.022 C 
ATOM     25  C   UNL     1      -5.102   3.828  25.747  0.00  0.00    +0.002 C 
ATOM     26  C   UNL     1      -5.679   3.248  25.639  0.00  0.00    +0.000 C 
ATOM     27  C   UNL     1      -5.580   2.672  25.056  0.00  0.00    +0.002 C 
ATOM     28  C   UNL     1      -4.905   2.677  24.583  0.00  0.00    +0.022 C 
ENDBRANCH  22  23
ENDBRANCH   4  19
TORSDOF 5
ENDMDL
