MODEL 1
REMARK VINA RESULT:     -15.7      0.000      0.000
REMARK  Name = 
REMARK  2 active torsions:
REMARK  status: ('A' for Active; 'I' for Inactive)
REMARK    1  A    between atoms: C_5  and  C_8
REMARK    2  A    between atoms: N_10  and  C_11
REMARK                            x       y       z     vdW  Elec       q    Type
REMARK                         _______ _______ _______ _____ _____    ______ ____
ROOT
ATOM     11  C   UNL     1      -3.210   1.159  24.606  0.00  0.00    +0.130 A 
ATOM     12  C   UNL     1      -3.747   0.545  24.484  0.00  0.00    +0.023 A 
ATOM     13  C   UNL     1      -4.551   0.666  24.625  0.00  0.00    +0.014 A 
ATOM     14  C   UNL     1      -4.817   1.401  24.888  0.00  0.00    +0.041 A 
ATOM     15  C   UNL     1      -5.591   1.837  25.123  0.00  0.00    +0.058 C 
ATOM     16  C   UNL     1      -6.283   1.737  25.181  0.00  0.00    +0.011 C 
ATOM     17  C   UNL     1      -5.750   2.341  25.300  0.00  0.00    +0.043 C 
ATOM     18  C   UNL     1      -5.271   3.182  25.499  0.00  0.00    +0.096 C 
ATOM     19  N   UNL     1      -4.490   2.942  25.324  0.00  0.00    -0.278 N 
ATOM     20  C   UNL     1      -5.142   2.656  25.319  0.00  0.00    +0.099 C 
ATOM     21  C   UNL     1      -3.671   2.993  25.234  0.00  0.00    +0.220 A 
ATOM     22  N   UNL     1      -3.281   3.700  25.403  0.00  0.00    -0.212 NA
ATOM     23  C   UNL     1      -2.462   3.751  25.314  0.00  0.00    +0.103 A 
ATOM     24  C   UNL     1      -2.034   3.095  25.055  0.00  0.00    +0.041 A 
ATOM     25  C   UNL     1      -2.424   2.388  24.886  0.00  0.00    +0.103 A 
ATOM     26  N   UNL     1      -3.242   2.337  24.975  0.00  0.00    -0.212 NA
ATOM     27  C   UNL     1      -4.937   1.894  25.056  0.00  0.00    +0.110 C 
ATOM     28  N   UNL     1      -4.280   2.015  25.009  0.00  0.00    -0.298 N 
ATOM     29  C   UNL     1      -3.476   1.894  24.868  0.00  0.00    +0.276 A 
ATOM     30  O   UNL     1      -2.679   2.101  24.829  0.00  0.00    -0.266 OA
ENDROOT
BRANCH  11  10
ATOM      8  C   UNL     1      -2.082   0.284  24.547  0.00  0.00    +0.269 C 
ATOM      9  O   UNL     1      -1.277   0.163  24.406  0.00  0.00    -0.268 OA
ATOM     10  N   UNL     1      -2.406   1.038  24.464  0.00  0.00    -0.171 NA
BRANCH   8   5
ATOM      1  F   UNL     1      -3.998  -2.247  25.445  0.00  0.00    -0.204 F 
ATOM      2  C   UNL     1      -3.519  -1.614  25.221  0.00  0.00    +0.140 A 
ATOM      3  C   UNL     1      -3.436  -1.422  24.422  0.00  0.00    +0.030 A 
ATOM      4  C   UNL     1      -2.957  -0.789  24.198  0.00  0.00    +0.007 A 
ATOM      5  C   UNL     1      -2.561  -0.349  24.772  0.00  0.00    +0.056 A 
ATOM      6  C   UNL     1      -2.644  -0.541  25.570  0.00  0.00    +0.007 A 
ATOM      7  C   UNL     1      -3.123  -1.174  25.795  0.00  0.00    +0.030 A 
ENDBRANCH   8   5
ENDBRANCH  11  10
TORSDOF 2
ENDMDL
MODEL 2
REMARK VINA RESULT:     -15.2      1.502      3.672
REMARK  Name = 
REMARK  2 active torsions:
REMARK  status: ('A' for Active; 'I' for Inactive)
REMARK    1  A    between atoms: C_5  and  C_8
REMARK    2  A    between atoms: N_10  and  C_11
REMARK                            x       y       z     vdW  Elec       q    Type
REMARK                         _______ _______ _______ _____ _____    ______ ____
ROOT
ATOM     11  C   UNL     1      -2.930   0.443  24.465  0.00  0.00    +0.130 A 
ATOM     12  C   UNL     1      -3.683   0.525  24.138  0.00  0.00    +0.023 A 
ATOM     13  C   UNL     1      -4.131  -0.144  23.961  0.00  0.00    +0.014 A 
ATOM     14  C   UNL     1      -3.827  -0.896  24.112  0.00  0.00    +0.041 A 
ATOM     15  C   UNL     1      -4.050  -1.784  24.038  0.00  0.00    +0.058 C 
ATOM     16  C   UNL     1      -4.569  -2.206  23.824  0.00  0.00    +0.011 C 
ATOM     17  C   UNL     1      -3.825  -2.283  24.147  0.00  0.00    +0.043 C 
ATOM     18  C   UNL     1      -2.962  -2.579  24.527  0.00  0.00    +0.096 C 
ATOM     19  N   UNL     1      -2.606  -1.835  24.662  0.00  0.00    -0.278 N 
ATOM     20  C   UNL     1      -3.221  -2.086  24.403  0.00  0.00    +0.099 C 
ATOM     21  C   UNL     1      -2.036  -1.285  24.894  0.00  0.00    +0.220 A 
ATOM     22  N   UNL     1      -1.319  -1.543  25.210  0.00  0.00    -0.212 NA
ATOM     23  C   UNL     1      -0.749  -0.994  25.442  0.00  0.00    +0.103 A 
ATOM     24  C   UNL     1      -0.896  -0.186  25.358  0.00  0.00    +0.041 A 
ATOM     25  C   UNL     1      -1.613   0.071  25.043  0.00  0.00    +0.103 A 
ATOM     26  N   UNL     1      -2.183  -0.477  24.810  0.00  0.00    -0.212 NA
ATOM     27  C   UNL     1      -3.583  -1.357  24.228  0.00  0.00    +0.110 C 
ATOM     28  N   UNL     1      -3.074  -0.978  24.439  0.00  0.00    -0.298 N 
ATOM     29  C   UNL     1      -2.625  -0.308  24.615  0.00  0.00    +0.276 A 
ATOM     30  O   UNL     1      -1.968   0.108  24.889  0.00  0.00    -0.266 OA
ENDROOT
BRANCH  11  10
ATOM      8  C   UNL     1      -2.858   1.830  24.801  0.00  0.00    +0.269 C 
ATOM      9  O   UNL     1      -2.409   2.500  24.977  0.00  0.00    -0.268 OA
ATOM     10  N   UNL     1      -2.483   1.113  24.641  0.00  0.00    -0.171 NA
BRANCH   8   5
ATOM      1  F   UNL     1      -6.151   2.020  24.733  0.00  0.00    -0.204 F 
ATOM      2  C   UNL     1      -5.327   1.972  24.750  0.00  0.00    +0.140 A 
ATOM      3  C   UNL     1      -4.891   2.134  24.068  0.00  0.00    +0.030 A 
ATOM      4  C   UNL     1      -4.067   2.086  24.085  0.00  0.00    +0.007 A 
ATOM      5  C   UNL     1      -3.681   1.877  24.784  0.00  0.00    +0.056 A 
ATOM      6  C   UNL     1      -4.118   1.716  25.465  0.00  0.00    +0.007 A 
ATOM      7  C   UNL     1      -4.941   1.763  25.448  0.00  0.00    +0.030 A 
ENDBRANCH   8   5
ENDBRANCH  11  10
TORSDOF 2
ENDMDL
MODEL 3
REMARK VINA RESULT:     -14.9      1.660      3.229
REMARK  Name = 
REMARK  2 active torsions:
REMARK  status: ('A' for Active; 'I' for Inactive)
REMARK    1  A    between atoms: C_5  and  C_8
REMARK    2  A    between atoms: N_10  and  C_11
REMARK                            x       y       z     vdW  Elec       q    Type
REMARK                         _______ _______ _______ _____ _____    ______ ____
ROOT
ATOM     11  C   UNL     1      -2.898   2.882  24.805  0.00  0.00    +0.130 A 
ATOM     12  C   UNL     1      -2.253   2.442  24.537  0.00  0.00    +0.023 A 
ATOM     13  C   UNL     1      -2.336   1.634  24.392  0.00  0.00    +0.014 A 
ATOM     14  C   UNL     1      -3.063   1.266  24.515  0.00  0.00    +0.041 A 
ATOM     15  C   UNL     1      -3.465   0.441  24.454  0.00  0.00    +0.058 C 
ATOM     16  C   UNL     1      -3.330  -0.225  24.278  0.00  0.00    +0.011 C 
ATOM     17  C   UNL     1      -3.965   0.212  24.543  0.00  0.00    +0.043 C 
ATOM     18  C   UNL     1      -4.835   0.561  24.854  0.00  0.00    +0.096 C 
ATOM     19  N   UNL     1      -4.632   1.364  24.965  0.00  0.00    -0.278 N 
ATOM     20  C   UNL     1      -4.312   0.764  24.753  0.00  0.00    +0.099 C 
ATOM     21  C   UNL     1      -4.723   2.162  25.156  0.00  0.00    +0.220 A 
ATOM     22  N   UNL     1      -5.454   2.443  25.415  0.00  0.00    -0.212 NA
ATOM     23  C   UNL     1      -5.545   3.241  25.605  0.00  0.00    +0.103 A 
ATOM     24  C   UNL     1      -4.905   3.757  25.537  0.00  0.00    +0.041 A 
ATOM     25  C   UNL     1      -4.174   3.475  25.278  0.00  0.00    +0.103 A 
ATOM     26  N   UNL     1      -4.083   2.678  25.087  0.00  0.00    -0.212 NA
ATOM     27  C   UNL     1      -3.554   1.077  24.610  0.00  0.00    +0.110 C 
ATOM     28  N   UNL     1      -3.708   1.705  24.783  0.00  0.00    -0.298 N 
ATOM     29  C   UNL     1      -3.626   2.513  24.928  0.00  0.00    +0.276 A 
ATOM     30  O   UNL     1      -3.872   3.267  25.152  0.00  0.00    -0.266 OA
ENDROOT
BRANCH  11  10
ATOM      8  C   UNL     1      -2.085   3.993  25.184  0.00  0.00    +0.269 C 
ATOM      9  O   UNL     1      -2.002   4.802  25.328  0.00  0.00    -0.268 OA
ATOM     10  N   UNL     1      -2.815   3.689  24.950  0.00  0.00    -0.171 NA
BRANCH   8   5
ATOM      1  F   UNL     1       0.504   1.980  25.542  0.00  0.00    -0.204 F 
ATOM      2  C   UNL     1      -0.144   2.484  25.452  0.00  0.00    +0.140 A 
ATOM      3  C   UNL     1      -0.298   2.831  24.719  0.00  0.00    +0.030 A 
ATOM      4  C   UNL     1      -0.945   3.334  24.630  0.00  0.00    +0.007 A 
ATOM      5  C   UNL     1      -1.438   3.490  25.273  0.00  0.00    +0.056 A 
ATOM      6  C   UNL     1      -1.283   3.143  26.006  0.00  0.00    +0.007 A 
ATOM      7  C   UNL     1      -0.636   2.639  26.095  0.00  0.00    +0.030 A 
ENDBRANCH   8   5
ENDBRANCH  11  10
TORSDOF 2
ENDMDL
MODEL 4
REMARK VINA RESULT:     -14.6      1.670      3.069
REMARK  Name = 
REMARK  2 active torsions:
REMARK  status: ('A' for Active; 'I' for Inactive)
REMARK    1  A    between atoms: C_5  and  C_8
REMARK    2  A    between atoms: N_10  and  C_11
REMARK                            x       y       z     vdW  Elec       q    Type
REMARK                         _______ _______ _______ _____ _____    ______ ____
ROOT
ATOM     11  C   UNL     1      -2.864   1.850  24.314  0.00  0.00    +0.130 A 
ATOM     12  C   UNL     1      -2.781   2.669  24.378  0.00  0.00    +0.023 A 
ATOM     13  C   UNL     1      -3.406   3.125  24.664  0.00  0.00    +0.014 A 
ATOM     14  C   UNL     1      -4.113   2.763  24.885  0.00  0.00    +0.041 A 
ATOM     15  C   UNL     1      -4.945   2.967  25.219  0.00  0.00    +0.058 C 
ATOM     16  C   UNL     1      -5.337   3.510  25.428  0.00  0.00    +0.011 C 
ATOM     17  C   UNL     1      -5.414   2.702  25.363  0.00  0.00    +0.043 C 
ATOM     18  C   UNL     1      -5.698   1.755  25.359  0.00  0.00    +0.096 C 
ATOM     19  N   UNL     1      -5.003   1.402  25.059  0.00  0.00    -0.278 N 
ATOM     20  C   UNL     1      -5.234   2.056  25.221  0.00  0.00    +0.099 C 
ATOM     21  C   UNL     1      -4.491   0.809  24.800  0.00  0.00    +0.220 A 
ATOM     22  N   UNL     1      -4.739   0.022  24.801  0.00  0.00    -0.212 NA
ATOM     23  C   UNL     1      -4.227  -0.571  24.541  0.00  0.00    +0.103 A 
ATOM     24  C   UNL     1      -3.468  -0.377  24.281  0.00  0.00    +0.041 A 
ATOM     25  C   UNL     1      -3.222   0.410  24.280  0.00  0.00    +0.103 A 
ATOM     26  N   UNL     1      -3.732   1.003  24.539  0.00  0.00    -0.212 NA
ATOM     27  C   UNL     1      -4.548   2.480  25.015  0.00  0.00    +0.110 C 
ATOM     28  N   UNL     1      -4.196   1.945  24.821  0.00  0.00    -0.298 N 
ATOM     29  C   UNL     1      -3.571   1.488  24.535  0.00  0.00    +0.276 A 
ATOM     30  O   UNL     1      -3.185   0.795  24.311  0.00  0.00    -0.266 OA
ENDROOT
BRANCH  11  10
ATOM      8  C   UNL     1      -1.461   1.646  24.138  0.00  0.00    +0.269 C 
ATOM      9  O   UNL     1      -0.835   1.189  23.852  0.00  0.00    -0.268 OA
ATOM     10  N   UNL     1      -2.239   1.395  24.028  0.00  0.00    -0.171 NA
BRANCH   8   5
ATOM      1  F   UNL     1      -0.848   4.473  25.725  0.00  0.00    -0.204 F 
ATOM      2  C   UNL     1      -1.001   3.766  25.328  0.00  0.00    +0.140 A 
ATOM      3  C   UNL     1      -1.107   3.767  24.510  0.00  0.00    +0.030 A 
ATOM      4  C   UNL     1      -1.260   3.060  24.113  0.00  0.00    +0.007 A 
ATOM      5  C   UNL     1      -1.308   2.353  24.535  0.00  0.00    +0.056 A 
ATOM      6  C   UNL     1      -1.202   2.352  25.354  0.00  0.00    +0.007 A 
ATOM      7  C   UNL     1      -1.049   3.059  25.750  0.00  0.00    +0.030 A 
ENDBRANCH   8   5
ENDBRANCH  11  10
TORSDOF 2
ENDMDL
MODEL 5
REMARK VINA RESULT:     -14.5      1.113      2.412
REMARK  Name = 
REMARK  2 active torsions:
REMARK  status: ('A' for Active; 'I' for Inactive)
REMARK    1  A    between atoms: C_5  and  C_8
REMARK    2  A    between atoms: N_10  and  C_11
REMARK                            x       y       z     vdW  Elec       q    Type
REMARK                         _______ _______ _______ _____ _____    ______ ____
ROOT
ATOM     11  C   UNL     1      -3.421   1.405  24.683  0.00  0.00    +0.130 A 
ATOM     12  C   UNL     1      -2.635   1.176  24.583  0.00  0.00    +0.023 A 
ATOM     13  C   UNL     1      -2.025   1.691  24.792  0.00  0.00    +0.014 A 
ATOM     14  C   UNL     1      -2.202   2.434  25.102  0.00  0.00    +0.041 A 
ATOM     15  C   UNL     1      -1.790   3.194  25.414  0.00  0.00    +0.058 C 
ATOM     16  C   UNL     1      -1.153   3.469  25.524  0.00  0.00    +0.011 C 
ATOM     17  C   UNL     1      -1.931   3.692  25.621  0.00  0.00    +0.043 C 
ATOM     18  C   UNL     1      -2.792   4.137  25.812  0.00  0.00    +0.096 C 
ATOM     19  N   UNL     1      -3.318   3.536  25.566  0.00  0.00    -0.278 N 
ATOM     20  C   UNL     1      -2.614   3.638  25.604  0.00  0.00    +0.099 C 
ATOM     21  C   UNL     1      -4.034   3.155  25.413  0.00  0.00    +0.220 A 
ATOM     22  N   UNL     1      -4.747   3.536  25.576  0.00  0.00    -0.212 NA
ATOM     23  C   UNL     1      -5.462   3.155  25.423  0.00  0.00    +0.103 A 
ATOM     24  C   UNL     1      -5.465   2.392  25.107  0.00  0.00    +0.041 A 
ATOM     25  C   UNL     1      -4.751   2.012  24.944  0.00  0.00    +0.103 A 
ATOM     26  N   UNL     1      -4.036   2.392  25.097  0.00  0.00    -0.212 NA
ATOM     27  C   UNL     1      -2.371   2.903  25.297  0.00  0.00    +0.110 C 
ATOM     28  N   UNL     1      -2.989   2.663  25.202  0.00  0.00    -0.298 N 
ATOM     29  C   UNL     1      -3.598   2.148  24.993  0.00  0.00    +0.276 A 
ATOM     30  O   UNL     1      -4.381   1.906  24.898  0.00  0.00    -0.266 OA
ENDROOT
BRANCH  11  10
ATOM      8  C   UNL     1      -3.922   0.074  24.538  0.00  0.00    +0.269 C 
ATOM      9  O   UNL     1      -4.532  -0.441  24.328  0.00  0.00    -0.268 OA
ATOM     10  N   UNL     1      -4.030   0.889  24.474  0.00  0.00    -0.171 NA
BRANCH   8   5
ATOM      1  F   UNL     1      -1.050  -1.126  25.633  0.00  0.00    -0.204 F 
ATOM      2  C   UNL     1      -1.768  -0.826  25.359  0.00  0.00    +0.140 A 
ATOM      3  C   UNL     1      -1.867  -0.662  24.556  0.00  0.00    +0.030 A 
ATOM      4  C   UNL     1      -2.586  -0.362  24.283  0.00  0.00    +0.007 A 
ATOM      5  C   UNL     1      -3.203  -0.226  24.812  0.00  0.00    +0.056 A 
ATOM      6  C   UNL     1      -3.104  -0.390  25.615  0.00  0.00    +0.007 A 
ATOM      7  C   UNL     1      -2.386  -0.690  25.888  0.00  0.00    +0.030 A 
ENDBRANCH   8   5
ENDBRANCH  11  10
TORSDOF 2
ENDMDL
MODEL 6
REMARK VINA RESULT:     -14.4      1.982      3.631
REMARK  Name = 
REMARK  2 active torsions:
REMARK  status: ('A' for Active; 'I' for Inactive)
REMARK    1  A    between atoms: C_5  and  C_8
REMARK    2  A    between atoms: N_10  and  C_11
REMARK                            x       y       z     vdW  Elec       q    Type
REMARK                         _______ _______ _______ _____ _____    ______ ____
ROOT
ATOM     11  C   UNL     1      -1.539   1.153  24.554  0.00  0.00    +0.130 A 
ATOM     12  C   UNL     1      -1.992   1.837  24.472  0.00  0.00    +0.023 A 
ATOM     13  C   UNL     1      -2.813   1.800  24.547  0.00  0.00    +0.014 A 
ATOM     14  C   UNL     1      -3.180   1.079  24.705  0.00  0.00    +0.041 A 
ATOM     15  C   UNL     1      -4.014   0.717  24.838  0.00  0.00    +0.058 C 
ATOM     16  C   UNL     1      -4.693   0.893  24.864  0.00  0.00    +0.011 C 
ATOM     17  C   UNL     1      -4.242   0.219  24.945  0.00  0.00    +0.043 C 
ATOM     18  C   UNL     1      -3.878  -0.690  25.075  0.00  0.00    +0.096 C 
ATOM     19  N   UNL     1      -3.064  -0.529  24.978  0.00  0.00    -0.278 N 
ATOM     20  C   UNL     1      -3.677  -0.168  24.966  0.00  0.00    +0.099 C 
ATOM     21  C   UNL     1      -2.251  -0.669  24.935  0.00  0.00    +0.220 A 
ATOM     22  N   UNL     1      -1.958  -1.432  25.045  0.00  0.00    -0.212 NA
ATOM     23  C   UNL     1      -1.146  -1.572  25.002  0.00  0.00    +0.103 A 
ATOM     24  C   UNL     1      -0.627  -0.948  24.849  0.00  0.00    +0.041 A 
ATOM     25  C   UNL     1      -0.921  -0.185  24.739  0.00  0.00    +0.103 A 
ATOM     26  N   UNL     1      -1.733  -0.045  24.782  0.00  0.00    -0.212 NA
ATOM     27  C   UNL     1      -3.367   0.588  24.807  0.00  0.00    +0.110 C 
ATOM     28  N   UNL     1      -2.727   0.394  24.788  0.00  0.00    -0.298 N 
ATOM     29  C   UNL     1      -1.906   0.431  24.712  0.00  0.00    +0.276 A 
ATOM     30  O   UNL     1      -1.136   0.135  24.700  0.00  0.00    -0.266 OA
ENDROOT
BRANCH  11  10
ATOM      8  C   UNL     1      -0.316   1.880  24.687  0.00  0.00    +0.269 C 
ATOM      9  O   UNL     1       0.506   1.917  24.612  0.00  0.00    -0.268 OA
ATOM     10  N   UNL     1      -0.718   1.190  24.479  0.00  0.00    -0.171 NA
BRANCH   8   5
ATOM      1  F   UNL     1      -1.988   4.488  25.822  0.00  0.00    -0.204 F 
ATOM      2  C   UNL     1      -1.570   3.835  25.538  0.00  0.00    +0.140 A 
ATOM      3  C   UNL     1      -1.438   3.751  24.728  0.00  0.00    +0.030 A 
ATOM      4  C   UNL     1      -1.020   3.098  24.444  0.00  0.00    +0.007 A 
ATOM      5  C   UNL     1      -0.734   2.532  24.971  0.00  0.00    +0.056 A 
ATOM      6  C   UNL     1      -0.866   2.617  25.781  0.00  0.00    +0.007 A 
ATOM      7  C   UNL     1      -1.284   3.269  26.065  0.00  0.00    +0.030 A 
ENDBRANCH   8   5
ENDBRANCH  11  10
TORSDOF 2
ENDMDL
MODEL 7
REMARK VINA RESULT:     -14.3      1.204      2.806
REMARK  Name = 
REMARK  2 active torsions:
REMARK  status: ('A' for Active; 'I' for Inactive)
REMARK    1  A    between atoms: C_5  and  C_8
REMARK    2  A    between atoms: N_10  and  C_11
REMARK                            x       y       z     vdW  Elec       q    Type
REMARK                         _______ _______ _______ _____ _____    ______ ____
ROOT
ATOM     11  C   UNL     1      -3.161   1.196  24.546  0.00  0.00    +0.130 A 
ATOM     12  C   UNL     1      -2.914   0.463  24.259  0.00  0.00    +0.023 A 
ATOM     13  C   UNL     1      -2.112   0.321  24.126  0.00  0.00    +0.014 A 
ATOM     14  C   UNL     1      -1.558   0.911  24.281  0.00  0.00    +0.041 A 
ATOM     15  C   UNL     1      -0.653   1.068  24.245  0.00  0.00    +0.058 C 
ATOM     16  C   UNL     1      -0.047   0.758  24.073  0.00  0.00    +0.011 C 
ATOM     17  C   UNL     1      -0.294   1.480  24.356  0.00  0.00    +0.043 C 
ATOM     18  C   UNL     1      -0.394   2.403  24.696  0.00  0.00    +0.096 C 
ATOM     19  N   UNL     1      -1.223   2.429  24.789  0.00  0.00    -0.278 N 
ATOM     20  C   UNL     1      -0.732   1.961  24.572  0.00  0.00    +0.099 C 
ATOM     21  C   UNL     1      -1.968   2.734  24.974  0.00  0.00    +0.220 A 
ATOM     22  N   UNL     1      -2.039   3.505  25.256  0.00  0.00    -0.212 NA
ATOM     23  C   UNL     1      -2.784   3.810  25.441  0.00  0.00    +0.103 A 
ATOM     24  C   UNL     1      -3.457   3.343  25.342  0.00  0.00    +0.041 A 
ATOM     25  C   UNL     1      -3.385   2.571  25.059  0.00  0.00    +0.103 A 
ATOM     26  N   UNL     1      -2.641   2.267  24.875  0.00  0.00    -0.212 NA
ATOM     27  C   UNL     1      -1.241   1.326  24.397  0.00  0.00    +0.110 C 
ATOM     28  N   UNL     1      -1.805   1.644  24.568  0.00  0.00    -0.298 N 
ATOM     29  C   UNL     1      -2.606   1.787  24.700  0.00  0.00    +0.276 A 
ATOM     30  O   UNL     1      -3.266   2.227  24.924  0.00  0.00    -0.266 OA
ENDROOT
BRANCH  11  10
ATOM      8  C   UNL     1      -4.473   0.709  24.830  0.00  0.00    +0.269 C 
ATOM      9  O   UNL     1      -5.276   0.851  24.962  0.00  0.00    -0.268 OA
ATOM     10  N   UNL     1      -3.962   1.338  24.677  0.00  0.00    -0.171 NA
BRANCH   8   5
ATOM      1  F   UNL     1      -3.310  -2.378  24.912  0.00  0.00    -0.204 F 
ATOM      2  C   UNL     1      -3.601  -1.606  24.891  0.00  0.00    +0.140 A 
ATOM      3  C   UNL     1      -3.888  -1.292  24.184  0.00  0.00    +0.030 A 
ATOM      4  C   UNL     1      -4.179  -0.520  24.163  0.00  0.00    +0.007 A 
ATOM      5  C   UNL     1      -4.183  -0.063  24.850  0.00  0.00    +0.056 A 
ATOM      6  C   UNL     1      -3.895  -0.377  25.557  0.00  0.00    +0.007 A 
ATOM      7  C   UNL     1      -3.605  -1.149  25.578  0.00  0.00    +0.030 A 
ENDBRANCH   8   5
ENDBRANCH  11  10
TORSDOF 2
ENDMDL
