MODEL 1
REMARK VINA RESULT:     -12.9      0.000      0.000
REMARK  Name = 
REMARK  4 active torsions:
REMARK  status: ('A' for Active; 'I' for Inactive)
REMARK    1  A    between atoms: C_2  and  C_5
REMARK    2  A    between atoms: C_8  and  C_9
REMARK    3  A    between atoms: C_9  and  N_10
REMARK    4  A    between atoms: C_13  and  C_15
REMARK                            x       y       z     vdW  Elec       q    Type
REMARK                         _______ _______ _______ _____ _____    ______ ____
ROOT
ATOM     10  N   UNL     1      -3.958   1.049  24.621  0.00  0.00    -0.269 NA
ATOM     11  C   UNL     1      -3.922   1.214  23.814  0.00  0.00    +0.073 C 
ATOM     12  C   UNL     1      -3.428   1.867  23.709  0.00  0.00    +0.026 C 
ATOM     13  C   UNL     1      -3.159   2.105  24.453  0.00  0.00    +0.076 C 
ATOM     14  C   UNL     1      -3.486   1.600  25.016  0.00  0.00    +0.080 C 
ENDROOT
BRANCH  13  15
ATOM     15  C   UNL     1      -2.651   2.737  24.605  0.00  0.00    +0.142 A 
ATOM     16  N   UNL     1      -1.834   2.742  24.492  0.00  0.00    -0.210 NA
ATOM     17  C   UNL     1      -1.550   3.483  24.714  0.00  0.00    +0.181 A 
ATOM     18  C   UNL     1      -2.192   3.937  24.965  0.00  0.00    +0.118 A 
ATOM     19  N   UNL     1      -2.872   3.477  24.898  0.00  0.00    -0.228 NA
ATOM     20  C   UNL     1      -2.072   4.712  25.222  0.00  0.00    +0.024 A 
ATOM     21  C   UNL     1      -1.313   5.033  25.229  0.00  0.00    +0.022 A 
ATOM     22  C   UNL     1      -0.671   4.578  24.978  0.00  0.00    +0.101 A 
ATOM     23  N   UNL     1      -0.789   3.804  24.720  0.00  0.00    -0.224 NA
ENDBRANCH  13  15
BRANCH  10   9
ATOM      9  C   UNL     1      -4.390   0.440  24.973  0.00  0.00    +0.099 C 
BRANCH   9   8
ATOM      5  C   UNL     1      -3.586  -1.895  24.822  0.00  0.00    +0.071 A 
ATOM      6  C   UNL     1      -4.048  -1.578  24.216  0.00  0.00    +0.004 A 
ATOM      7  C   UNL     1      -4.316  -0.799  24.266  0.00  0.00    -0.003 A 
ATOM      8  C   UNL     1      -4.122  -0.338  24.923  0.00  0.00    -0.006 A 
ATOM     24  C   UNL     1      -3.660  -0.655  25.529  0.00  0.00    -0.003 A 
ATOM     25  C   UNL     1      -3.393  -1.435  25.478  0.00  0.00    +0.004 A 
BRANCH   5   2
ATOM      1  F   UNL     1      -3.050  -3.453  24.719  0.00  0.00    -0.166 F 
ATOM      2  C   UNL     1      -3.318  -2.674  24.771  0.00  0.00    +0.419 C 
ATOM      3  F   UNL     1      -2.925  -2.493  24.069  0.00  0.00    -0.166 F 
ATOM      4  F   UNL     1      -3.711  -2.856  25.472  0.00  0.00    -0.166 F 
ENDBRANCH   5   2
ENDBRANCH   9   8
ENDBRANCH  10   9
TORSDOF 4
ENDMDL
MODEL 2
REMARK VINA RESULT:     -12.8      2.788      5.383
REMARK  Name = 
REMARK  4 active torsions:
REMARK  status: ('A' for Active; 'I' for Inactive)
REMARK    1  A    between atoms: C_2  and  C_5
REMARK    2  A    between atoms: C_8  and  C_9
REMARK    3  A    between atoms: C_9  and  N_10
REMARK    4  A    between atoms: C_13  and  C_15
REMARK                            x       y       z     vdW  Elec       q    Type
REMARK                         _______ _______ _______ _____ _____    ______ ____
ROOT
ATOM     10  N   UNL     1      -4.539   2.113  24.671  0.00  0.00    -0.269 NA
ATOM     11  C   UNL     1      -5.114   1.915  25.229  0.00  0.00    +0.073 C 
ATOM     12  C   UNL     1      -5.086   1.098  25.344  0.00  0.00    +0.026 C 
ATOM     13  C   UNL     1      -4.495   0.791  24.857  0.00  0.00    +0.076 C 
ATOM     14  C   UNL     1      -4.157   1.418  24.441  0.00  0.00    +0.080 C 
ENDROOT
BRANCH  13  15
ATOM     15  C   UNL     1      -4.280  -0.003  24.796  0.00  0.00    +0.142 A 
ATOM     16  N   UNL     1      -3.866  -0.437  25.362  0.00  0.00    -0.210 NA
ATOM     17  C   UNL     1      -3.771  -1.204  25.075  0.00  0.00    +0.181 A 
ATOM     18  C   UNL     1      -4.127  -1.244  24.331  0.00  0.00    +0.118 A 
ATOM     19  N   UNL     1      -4.442  -0.502  24.159  0.00  0.00    -0.228 NA
ATOM     20  C   UNL     1      -4.119  -1.953  23.908  0.00  0.00    +0.024 A 
ATOM     21  C   UNL     1      -3.755  -2.620  24.227  0.00  0.00    +0.022 A 
ATOM     22  C   UNL     1      -3.399  -2.580  24.970  0.00  0.00    +0.101 A 
ATOM     23  N   UNL     1      -3.407  -1.873  25.394  0.00  0.00    -0.224 NA
ENDBRANCH  13  15
BRANCH  10   9
ATOM      9  C   UNL     1      -4.376   2.871  24.391  0.00  0.00    +0.099 C 
BRANCH   9   8
ATOM      5  C   UNL     1      -2.321   4.042  25.120  0.00  0.00    +0.071 A 
ATOM      6  C   UNL     1      -2.317   3.596  24.426  0.00  0.00    +0.004 A 
ATOM      7  C   UNL     1      -3.002   3.205  24.183  0.00  0.00    -0.003 A 
ATOM      8  C   UNL     1      -3.691   3.262  24.635  0.00  0.00    -0.006 A 
ATOM     24  C   UNL     1      -3.694   3.708  25.328  0.00  0.00    -0.003 A 
ATOM     25  C   UNL     1      -3.009   4.099  25.570  0.00  0.00    +0.004 A 
BRANCH   5   2
ATOM      1  F   UNL     1      -0.949   4.822  25.605  0.00  0.00    -0.166 F 
ATOM      2  C   UNL     1      -1.635   4.433  25.362  0.00  0.00    +0.419 C 
ATOM      3  F   UNL     1      -1.374   3.743  25.734  0.00  0.00    -0.166 F 
ATOM      4  F   UNL     1      -1.895   5.121  24.991  0.00  0.00    -0.166 F 
ENDBRANCH   5   2
ENDBRANCH   9   8
ENDBRANCH  10   9
TORSDOF 4
ENDMDL
MODEL 3
REMARK VINA RESULT:     -12.3      1.547      1.868
REMARK  Name = 
REMARK  4 active torsions:
REMARK  status: ('A' for Active; 'I' for Inactive)
REMARK    1  A    between atoms: C_2  and  C_5
REMARK    2  A    between atoms: C_8  and  C_9
REMARK    3  A    between atoms: C_9  and  N_10
REMARK    4  A    between atoms: C_13  and  C_15
REMARK                            x       y       z     vdW  Elec       q    Type
REMARK                         _______ _______ _______ _____ _____    ______ ____
ROOT
ATOM     10  N   UNL     1      -1.202  -0.040  25.356  0.00  0.00    -0.269 NA
ATOM     11  C   UNL     1      -0.639   0.031  24.757  0.00  0.00    +0.073 C 
ATOM     12  C   UNL     1      -0.545   0.834  24.590  0.00  0.00    +0.026 C 
ATOM     13  C   UNL     1      -1.050   1.259  25.087  0.00  0.00    +0.076 C 
ATOM     14  C   UNL     1      -1.455   0.718  25.560  0.00  0.00    +0.080 C 
ENDROOT
BRANCH  13  15
ATOM     15  C   UNL     1      -1.133   2.079  25.106  0.00  0.00    +0.142 A 
ATOM     16  N   UNL     1      -0.573   2.630  24.854  0.00  0.00    -0.210 NA
ATOM     17  C   UNL     1      -0.885   3.383  24.973  0.00  0.00    +0.181 A 
ATOM     18  C   UNL     1      -1.639   3.299  25.299  0.00  0.00    +0.118 A 
ATOM     19  N   UNL     1      -1.792   2.493  25.381  0.00  0.00    -0.228 NA
ATOM     20  C   UNL     1      -2.087   3.968  25.478  0.00  0.00    +0.024 A 
ATOM     21  C   UNL     1      -1.783   4.720  25.332  0.00  0.00    +0.022 A 
ATOM     22  C   UNL     1      -1.030   4.805  25.007  0.00  0.00    +0.101 A 
ATOM     23  N   UNL     1      -0.580   4.137  24.827  0.00  0.00    -0.224 NA
ENDBRANCH  13  15
BRANCH  10   9
ATOM      9  C   UNL     1      -1.465  -0.746  25.692  0.00  0.00    +0.099 C 
BRANCH   9   8
ATOM      5  C   UNL     1      -3.275  -2.037  24.605  0.00  0.00    +0.071 A 
ATOM      6  C   UNL     1      -3.460  -1.448  25.151  0.00  0.00    +0.004 A 
ATOM      7  C   UNL     1      -2.857  -1.017  25.514  0.00  0.00    -0.003 A 
ATOM      8  C   UNL     1      -2.068  -1.176  25.329  0.00  0.00    -0.006 A 
ATOM     24  C   UNL     1      -1.883  -1.765  24.783  0.00  0.00    -0.003 A 
ATOM     25  C   UNL     1      -2.487  -2.195  24.420  0.00  0.00    +0.004 A 
BRANCH   5   2
ATOM      1  F   UNL     1      -4.483  -2.896  23.879  0.00  0.00    -0.166 F 
ATOM      2  C   UNL     1      -3.879  -2.467  24.242  0.00  0.00    +0.419 C 
ATOM      3  F   UNL     1      -4.017  -1.838  23.726  0.00  0.00    -0.166 F 
ATOM      4  F   UNL     1      -3.741  -3.095  24.757  0.00  0.00    -0.166 F 
ENDBRANCH   5   2
ENDBRANCH   9   8
ENDBRANCH  10   9
TORSDOF 4
ENDMDL
MODEL 4
REMARK VINA RESULT:     -12.2      3.260      5.716
REMARK  Name = 
REMARK  4 active torsions:
REMARK  status: ('A' for Active; 'I' for Inactive)
REMARK    1  A    between atoms: C_2  and  C_5
REMARK    2  A    between atoms: C_8  and  C_9
REMARK    3  A    between atoms: C_9  and  N_10
REMARK    4  A    between atoms: C_13  and  C_15
REMARK                            x       y       z     vdW  Elec       q    Type
REMARK                         _______ _______ _______ _____ _____    ______ ____
ROOT
ATOM     10  N   UNL     1      -0.741   1.318  25.260  0.00  0.00    -0.269 NA
ATOM     11  C   UNL     1      -0.356   1.071  24.573  0.00  0.00    +0.073 C 
ATOM     12  C   UNL     1      -0.780   0.437  24.258  0.00  0.00    +0.026 C 
ATOM     13  C   UNL     1      -1.427   0.292  24.751  0.00  0.00    +0.076 C 
ATOM     14  C   UNL     1      -1.402   0.837  25.370  0.00  0.00    +0.080 C 
ENDROOT
BRANCH  13  15
ATOM     15  C   UNL     1      -1.997  -0.294  24.643  0.00  0.00    +0.142 A 
ATOM     16  N   UNL     1      -1.888  -1.103  24.758  0.00  0.00    -0.210 NA
ATOM     17  C   UNL     1      -2.600  -1.483  24.588  0.00  0.00    +0.181 A 
ATOM     18  C   UNL     1      -3.149  -0.908  24.366  0.00  0.00    +0.118 A 
ATOM     19  N   UNL     1      -2.777  -0.173  24.401  0.00  0.00    -0.228 NA
ATOM     20  C   UNL     1      -3.917  -1.129  24.162  0.00  0.00    +0.024 A 
ATOM     21  C   UNL     1      -4.137  -1.924  24.179  0.00  0.00    +0.022 A 
ATOM     22  C   UNL     1      -3.588  -2.498  24.401  0.00  0.00    +0.101 A 
ATOM     23  N   UNL     1      -2.819  -2.279  24.605  0.00  0.00    -0.224 NA
ENDBRANCH  13  15
BRANCH  10   9
ATOM      9  C   UNL     1      -0.505   1.938  25.751  0.00  0.00    +0.099 C 
BRANCH   9   8
ATOM      5  C   UNL     1      -1.211   4.255  25.246  0.00  0.00    +0.071 A 
ATOM      6  C   UNL     1      -1.633   3.806  25.794  0.00  0.00    +0.004 A 
ATOM      7  C   UNL     1      -1.398   3.033  25.962  0.00  0.00    -0.003 A 
ATOM      8  C   UNL     1      -0.740   2.710  25.583  0.00  0.00    -0.006 A 
ATOM     24  C   UNL     1      -0.318   3.159  25.035  0.00  0.00    -0.003 A 
ATOM     25  C   UNL     1      -0.554   3.932  24.866  0.00  0.00    +0.004 A 
BRANCH   5   2
ATOM      1  F   UNL     1      -1.681   5.801  24.909  0.00  0.00    -0.166 F 
ATOM      2  C   UNL     1      -1.446   5.028  25.077  0.00  0.00    +0.419 C 
ATOM      3  F   UNL     1      -0.658   5.272  25.093  0.00  0.00    -0.166 F 
ATOM      4  F   UNL     1      -2.234   4.785  25.062  0.00  0.00    -0.166 F 
ENDBRANCH   5   2
ENDBRANCH   9   8
ENDBRANCH  10   9
TORSDOF 4
ENDMDL
