MODEL 1
REMARK VINA RESULT:     -16.3      0.000      0.000
REMARK  Name = 
REMARK  3 active torsions:
REMARK  status: ('A' for Active; 'I' for Inactive)
REMARK    1  A    between atoms: C_5  and  C_6
REMARK    2  A    between atoms: C_7  and  C_8
REMARK    3  A    between atoms: C_18  and  C_20
REMARK                            x       y       z     vdW  Elec       q    Type
REMARK                         _______ _______ _______ _____ _____    ______ ____
ROOT
ATOM      8  C   UNL     1      -4.109   1.037  24.875  0.00  0.00    +0.056 A 
ATOM      9  C   UNL     1      -4.919   1.173  24.956  0.00  0.00    +0.006 A 
ATOM     10  C   UNL     1      -5.199   1.940  25.074  0.00  0.00    +0.013 A 
ATOM     11  C   UNL     1      -4.668   2.571  25.112  0.00  0.00    +0.041 A 
ATOM     12  C   UNL     1      -4.651   3.483  25.225  0.00  0.00    +0.058 C 
ATOM     13  C   UNL     1      -5.074   4.033  25.327  0.00  0.00    +0.011 C 
ATOM     14  C   UNL     1      -4.276   3.895  25.247  0.00  0.00    +0.043 C 
ATOM     15  C   UNL     1      -3.291   3.931  25.175  0.00  0.00    +0.096 C 
ATOM     16  N   UNL     1      -3.129   3.120  25.060  0.00  0.00    -0.276 N 
ATOM     17  C   UNL     1      -3.700   3.534  25.157  0.00  0.00    +0.099 C 
ATOM     18  C   UNL     1      -2.688   2.432  24.939  0.00  0.00    +0.252 C 
ATOM     19  O   UNL     1      -3.070   1.703  24.878  0.00  0.00    -0.270 OA
ATOM     26  C   UNL     1      -4.284   2.942  25.128  0.00  0.00    +0.110 C 
ATOM     27  N   UNL     1      -3.859   2.435  25.031  0.00  0.00    -0.299 N 
ATOM     28  C   UNL     1      -3.579   1.667  24.913  0.00  0.00    +0.261 A 
ATOM     29  O   UNL     1      -2.854   1.289  24.809  0.00  0.00    -0.267 OA
ENDROOT
BRANCH  18  20
ATOM     20  C   UNL     1      -1.867   2.474  24.880  0.00  0.00    +0.092 A 
ATOM     21  C   UNL     1      -1.511   2.581  24.144  0.00  0.00    +0.107 A 
ATOM     22  N   UNL     1      -0.689   2.623  24.085  0.00  0.00    -0.222 NA
ATOM     23  C   UNL     1      -0.223   2.558  24.762  0.00  0.00    +0.199 A 
ATOM     24  N   UNL     1      -0.578   2.452  25.499  0.00  0.00    -0.222 NA
ATOM     25  C   UNL     1      -1.401   2.410  25.558  0.00  0.00    +0.107 A 
ENDBRANCH  18  20
BRANCH   8   7
ATOM      6  C   UNL     1      -4.350  -0.370  24.804  0.00  0.00    +0.000 C 
ATOM      7  C   UNL     1      -3.831   0.270  24.757  0.00  0.00    +0.005 C 
BRANCH   6   5
ATOM      1 CL   UNL     1      -3.233  -3.439  24.331  0.00  0.00    -0.082 Cl
ATOM      2  C   UNL     1      -3.512  -2.672  24.449  0.00  0.00    +0.058 A 
ATOM      3  C   UNL     1      -3.356  -2.281  25.158  0.00  0.00    +0.011 A 
ATOM      4  C   UNL     1      -3.635  -1.514  25.277  0.00  0.00    +0.001 A 
ATOM      5  C   UNL     1      -4.070  -1.138  24.686  0.00  0.00    +0.000 A 
ATOM     30  C   UNL     1      -4.227  -1.528  23.976  0.00  0.00    +0.001 A 
ATOM     31  C   UNL     1      -3.948  -2.296  23.857  0.00  0.00    +0.011 A 
ENDBRANCH   6   5
ENDBRANCH   8   7
TORSDOF 3
ENDMDL
MODEL 2
REMARK VINA RESULT:     -14.4      2.094      4.204
REMARK  Name = 
REMARK  3 active torsions:
REMARK  status: ('A' for Active; 'I' for Inactive)
REMARK    1  A    between atoms: C_5  and  C_6
REMARK    2  A    between atoms: C_7  and  C_8
REMARK    3  A    between atoms: C_18  and  C_20
REMARK                            x       y       z     vdW  Elec       q    Type
REMARK                         _______ _______ _______ _____ _____    ______ ____
ROOT
ATOM      8  C   UNL     1      -3.682   0.073  24.908  0.00  0.00    +0.056 A 
ATOM      9  C   UNL     1      -4.216  -0.556  24.906  0.00  0.00    +0.006 A 
ATOM     10  C   UNL     1      -3.944  -1.328  24.802  0.00  0.00    +0.013 A 
ATOM     11  C   UNL     1      -3.138  -1.471  24.699  0.00  0.00    +0.041 A 
ATOM     12  C   UNL     1      -2.547  -2.162  24.567  0.00  0.00    +0.058 C 
ATOM     13  C   UNL     1      -2.523  -2.860  24.497  0.00  0.00    +0.011 C 
ATOM     14  C   UNL     1      -1.999  -2.237  24.499  0.00  0.00    +0.043 C 
ATOM     15  C   UNL     1      -1.221  -1.628  24.472  0.00  0.00    +0.096 C 
ATOM     16  N   UNL     1      -1.611  -0.898  24.585  0.00  0.00    -0.276 N 
ATOM     17  C   UNL     1      -1.786  -1.587  24.538  0.00  0.00    +0.099 C 
ATOM     18  C   UNL     1      -1.709  -0.083  24.675  0.00  0.00    +0.252 C 
ATOM     19  O   UNL     1      -2.463   0.232  24.789  0.00  0.00    -0.270 OA
ATOM     26  C   UNL     1      -2.609  -1.508  24.637  0.00  0.00    +0.110 C 
ATOM     27  N   UNL     1      -2.604  -0.842  24.700  0.00  0.00    -0.299 N 
ATOM     28  C   UNL     1      -2.876  -0.070  24.805  0.00  0.00    +0.261 A 
ATOM     29  O   UNL     1      -2.560   0.691  24.844  0.00  0.00    -0.267 OA
ENDROOT
BRANCH  18  20
ATOM     20  C   UNL     1      -1.053   0.416  24.650  0.00  0.00    +0.092 A 
ATOM     21  C   UNL     1      -0.730   0.708  25.351  0.00  0.00    +0.107 A 
ATOM     22  N   UNL     1      -0.073   1.208  25.326  0.00  0.00    -0.222 NA
ATOM     23  C   UNL     1       0.260   1.414  24.601  0.00  0.00    +0.199 A 
ATOM     24  N   UNL     1      -0.062   1.123  23.900  0.00  0.00    -0.222 NA
ATOM     25  C   UNL     1      -0.719   0.623  23.925  0.00  0.00    +0.107 A 
ENDBRANCH  18  20
BRANCH   8   7
ATOM      6  C   UNL     1      -4.763   0.990  25.084  0.00  0.00    +0.000 C 
ATOM      7  C   UNL     1      -3.954   0.844  25.012  0.00  0.00    +0.005 C 
BRANCH   6   5
ATOM      1 CL   UNL     1      -5.851   4.077  25.502  0.00  0.00    -0.082 Cl
ATOM      2  C   UNL     1      -5.579   3.306  25.397  0.00  0.00    +0.058 A 
ATOM      3  C   UNL     1      -5.062   3.131  24.780  0.00  0.00    +0.011 A 
ATOM      4  C   UNL     1      -4.790   2.360  24.675  0.00  0.00    +0.001 A 
ATOM      5  C   UNL     1      -5.035   1.763  25.188  0.00  0.00    +0.000 A 
ATOM     30  C   UNL     1      -5.553   1.936  25.807  0.00  0.00    +0.001 A 
ATOM     31  C   UNL     1      -5.825   2.709  25.911  0.00  0.00    +0.011 A 
ENDBRANCH   6   5
ENDBRANCH   8   7
TORSDOF 3
ENDMDL
MODEL 3
REMARK VINA RESULT:     -14.1      1.189      2.756
REMARK  Name = 
REMARK  3 active torsions:
REMARK  status: ('A' for Active; 'I' for Inactive)
REMARK    1  A    between atoms: C_5  and  C_6
REMARK    2  A    between atoms: C_7  and  C_8
REMARK    3  A    between atoms: C_18  and  C_20
REMARK                            x       y       z     vdW  Elec       q    Type
REMARK                         _______ _______ _______ _____ _____    ______ ____
ROOT
ATOM      8  C   UNL     1      -1.905   1.448  24.987  0.00  0.00    +0.056 A 
ATOM      9  C   UNL     1      -1.083   1.445  24.920  0.00  0.00    +0.006 A 
ATOM     10  C   UNL     1      -0.664   2.155  24.942  0.00  0.00    +0.013 A 
ATOM     11  C   UNL     1      -1.068   2.869  25.030  0.00  0.00    +0.041 A 
ATOM     12  C   UNL     1      -0.914   3.773  25.088  0.00  0.00    +0.058 C 
ATOM     13  C   UNL     1      -0.394   4.245  25.083  0.00  0.00    +0.011 C 
ATOM     14  C   UNL     1      -1.206   4.244  25.149  0.00  0.00    +0.043 C 
ATOM     15  C   UNL     1      -2.169   4.448  25.242  0.00  0.00    +0.096 C 
ATOM     16  N   UNL     1      -2.480   3.674  25.207  0.00  0.00    -0.276 N 
ATOM     17  C   UNL     1      -1.841   3.986  25.180  0.00  0.00    +0.099 C 
ATOM     18  C   UNL     1      -3.042   3.070  25.206  0.00  0.00    +0.252 C 
ATOM     19  O   UNL     1      -2.803   2.284  25.125  0.00  0.00    -0.270 OA
ATOM     26  C   UNL     1      -1.376   3.301  25.089  0.00  0.00    +0.110 C 
ATOM     27  N   UNL     1      -1.890   2.872  25.097  0.00  0.00    -0.299 N 
ATOM     28  C   UNL     1      -2.309   2.162  25.076  0.00  0.00    +0.261 A 
ATOM     29  O   UNL     1      -3.093   1.911  25.120  0.00  0.00    -0.267 OA
ENDROOT
BRANCH  18  20
ATOM     20  C   UNL     1      -3.843   3.251  25.285  0.00  0.00    +0.092 A 
ATOM     21  C   UNL     1      -4.306   3.378  24.614  0.00  0.00    +0.107 A 
ATOM     22  N   UNL     1      -5.107   3.559  24.693  0.00  0.00    -0.222 NA
ATOM     23  C   UNL     1      -5.444   3.615  25.444  0.00  0.00    +0.199 A 
ATOM     24  N   UNL     1      -4.982   3.489  26.115  0.00  0.00    -0.222 NA
ATOM     25  C   UNL     1      -4.181   3.307  26.036  0.00  0.00    +0.107 A 
ENDBRANCH  18  20
BRANCH   8   7
ATOM      6  C   UNL     1      -1.927   0.022  25.078  0.00  0.00    +0.000 C 
ATOM      7  C   UNL     1      -2.323   0.737  24.966  0.00  0.00    +0.005 C 
BRANCH   6   5
ATOM      1 CL   UNL     1      -3.601  -2.821  24.991  0.00  0.00    -0.082 Cl
ATOM      2  C   UNL     1      -3.182  -2.110  25.013  0.00  0.00    +0.058 A 
ATOM      3  C   UNL     1      -3.254  -1.609  25.663  0.00  0.00    +0.011 A 
ATOM      4  C   UNL     1      -2.836  -0.898  25.685  0.00  0.00    +0.001 A 
ATOM      5  C   UNL     1      -2.346  -0.689  25.056  0.00  0.00    +0.000 A 
ATOM     30  C   UNL     1      -2.273  -1.190  24.404  0.00  0.00    +0.001 A 
ATOM     31  C   UNL     1      -2.692  -1.901  24.382  0.00  0.00    +0.011 A 
ENDBRANCH   6   5
ENDBRANCH   8   7
TORSDOF 3
ENDMDL
MODEL 4
REMARK VINA RESULT:     -13.9      2.428      4.550
REMARK  Name = 
REMARK  3 active torsions:
REMARK  status: ('A' for Active; 'I' for Inactive)
REMARK    1  A    between atoms: C_5  and  C_6
REMARK    2  A    between atoms: C_7  and  C_8
REMARK    3  A    between atoms: C_18  and  C_20
REMARK                            x       y       z     vdW  Elec       q    Type
REMARK                         _______ _______ _______ _____ _____    ______ ____
ROOT
ATOM      8  C   UNL     1      -3.379   0.669  24.632  0.00  0.00    +0.056 A 
ATOM      9  C   UNL     1      -4.188   0.669  24.468  0.00  0.00    +0.006 A 
ATOM     10  C   UNL     1      -4.571  -0.036  24.276  0.00  0.00    +0.013 A 
ATOM     11  C   UNL     1      -4.145  -0.742  24.250  0.00  0.00    +0.041 A 
ATOM     12  C   UNL     1      -4.258  -1.638  24.083  0.00  0.00    +0.058 C 
ATOM     13  C   UNL     1      -4.750  -2.107  23.907  0.00  0.00    +0.011 C 
ATOM     14  C   UNL     1      -3.952  -2.104  24.070  0.00  0.00    +0.043 C 
ATOM     15  C   UNL     1      -2.998  -2.303  24.233  0.00  0.00    +0.096 C 
ATOM     16  N   UNL     1      -2.723  -1.534  24.412  0.00  0.00    -0.276 N 
ATOM     17  C   UNL     1      -3.339  -1.846  24.237  0.00  0.00    +0.099 C 
ATOM     18  C   UNL     1      -2.195  -0.934  24.616  0.00  0.00    +0.252 C 
ATOM     19  O   UNL     1      -2.462  -0.156  24.687  0.00  0.00    -0.270 OA
ATOM     26  C   UNL     1      -3.823  -1.169  24.247  0.00  0.00    +0.110 C 
ATOM     27  N   UNL     1      -3.336  -0.742  24.415  0.00  0.00    -0.299 N 
ATOM     28  C   UNL     1      -2.953  -0.037  24.606  0.00  0.00    +0.261 A 
ATOM     29  O   UNL     1      -2.193   0.214  24.801  0.00  0.00    -0.267 OA
ENDROOT
BRANCH  18  20
ATOM     20  C   UNL     1      -1.401  -1.111  24.749  0.00  0.00    +0.092 A 
ATOM     21  C   UNL     1      -1.159  -1.391  25.486  0.00  0.00    +0.107 A 
ATOM     22  N   UNL     1      -0.363  -1.569  25.619  0.00  0.00    -0.222 NA
ATOM     23  C   UNL     1       0.188  -1.465  25.015  0.00  0.00    +0.199 A 
ATOM     24  N   UNL     1      -0.053  -1.184  24.279  0.00  0.00    -0.222 NA
ATOM     25  C   UNL     1      -0.848  -1.007  24.145  0.00  0.00    +0.107 A 
ENDBRANCH  18  20
BRANCH   8   7
ATOM      6  C   UNL     1      -3.394   2.093  24.742  0.00  0.00    +0.000 C 
ATOM      7  C   UNL     1      -2.998   1.375  24.823  0.00  0.00    +0.005 C 
BRANCH   6   5
ATOM      1 CL   UNL     1      -1.865   4.916  25.508  0.00  0.00    -0.082 Cl
ATOM      2  C   UNL     1      -2.247   4.211  25.316  0.00  0.00    +0.058 A 
ATOM      3  C   UNL     1      -2.052   3.811  24.622  0.00  0.00    +0.011 A 
ATOM      4  C   UNL     1      -2.434   3.105  24.431  0.00  0.00    +0.001 A 
ATOM      5  C   UNL     1      -3.012   2.800  24.934  0.00  0.00    +0.000 A 
ATOM     30  C   UNL     1      -3.208   3.199  25.629  0.00  0.00    +0.001 A 
ATOM     31  C   UNL     1      -2.825   3.905  25.820  0.00  0.00    +0.011 A 
ENDBRANCH   6   5
ENDBRANCH   8   7
TORSDOF 3
ENDMDL
MODEL 5
REMARK VINA RESULT:     -12.8      2.343      4.882
REMARK  Name = 
REMARK  3 active torsions:
REMARK  status: ('A' for Active; 'I' for Inactive)
REMARK    1  A    between atoms: C_5  and  C_6
REMARK    2  A    between atoms: C_7  and  C_8
REMARK    3  A    between atoms: C_18  and  C_20
REMARK                            x       y       z     vdW  Elec       q    Type
REMARK                         _______ _______ _______ _____ _____    ______ ____
ROOT
ATOM      8  C   UNL     1      -2.283   1.374  24.899  0.00  0.00    +0.056 A 
ATOM      9  C   UNL     1      -1.651   0.845  24.854  0.00  0.00    +0.006 A 
ATOM     10  C   UNL     1      -1.791   0.033  24.874  0.00  0.00    +0.013 A 
ATOM     11  C   UNL     1      -2.562  -0.252  24.939  0.00  0.00    +0.041 A 
ATOM     12  C   UNL     1      -3.030  -1.041  24.984  0.00  0.00    +0.058 C 
ATOM     13  C   UNL     1      -2.938  -1.737  24.984  0.00  0.00    +0.011 C 
ATOM     14  C   UNL     1      -3.559  -1.212  25.029  0.00  0.00    +0.043 C 
ATOM     15  C   UNL     1      -4.428  -0.747  25.093  0.00  0.00    +0.096 C 
ATOM     16  N   UNL     1      -4.165   0.046  25.064  0.00  0.00    -0.276 N 
ATOM     17  C   UNL     1      -3.878  -0.606  25.048  0.00  0.00    +0.099 C 
ATOM     18  C   UNL     1      -4.205   0.870  25.058  0.00  0.00    +0.252 C 
ATOM     19  O   UNL     1      -3.512   1.316  24.998  0.00  0.00    -0.270 OA
ATOM     26  C   UNL     1      -3.079  -0.382  24.981  0.00  0.00    +0.110 C 
ATOM     27  N   UNL     1      -3.194   0.277  24.984  0.00  0.00    -0.299 N 
ATOM     28  C   UNL     1      -3.055   1.090  24.964  0.00  0.00    +0.261 A 
ATOM     29  O   UNL     1      -3.493   1.787  24.992  0.00  0.00    -0.267 OA
ENDROOT
BRANCH  18  20
ATOM     20  C   UNL     1      -4.935   1.248  25.113  0.00  0.00    +0.092 A 
ATOM     21  C   UNL     1      -5.240   1.453  25.851  0.00  0.00    +0.107 A 
ATOM     22  N   UNL     1      -5.972   1.832  25.906  0.00  0.00    -0.222 NA
ATOM     23  C   UNL     1      -6.398   2.005  25.221  0.00  0.00    +0.199 A 
ATOM     24  N   UNL     1      -6.094   1.800  24.483  0.00  0.00    -0.222 NA
ATOM     25  C   UNL     1      -5.363   1.421  24.428  0.00  0.00    +0.107 A 
ENDBRANCH  18  20
BRANCH   8   7
ATOM      6  C   UNL     1      -1.380   2.477  24.999  0.00  0.00    +0.000 C 
ATOM      7  C   UNL     1      -2.143   2.186  24.879  0.00  0.00    +0.005 C 
BRANCH   6   5
ATOM      1 CL   UNL     1      -0.821   5.728  24.919  0.00  0.00    -0.082 Cl
ATOM      2  C   UNL     1      -0.961   4.915  24.939  0.00  0.00    +0.058 A 
ATOM      3  C   UNL     1      -1.520   4.606  25.459  0.00  0.00    +0.011 A 
ATOM      4  C   UNL     1      -1.660   3.793  25.479  0.00  0.00    +0.001 A 
ATOM      5  C   UNL     1      -1.240   3.290  24.979  0.00  0.00    +0.000 A 
ATOM     30  C   UNL     1      -0.680   3.599  24.457  0.00  0.00    +0.001 A 
ATOM     31  C   UNL     1      -0.540   4.413  24.438  0.00  0.00    +0.011 A 
ENDBRANCH   6   5
ENDBRANCH   8   7
TORSDOF 3
ENDMDL
MODEL 6
REMARK VINA RESULT:     -12.5      2.539      4.849
REMARK  Name = 
REMARK  3 active torsions:
REMARK  status: ('A' for Active; 'I' for Inactive)
REMARK    1  A    between atoms: C_5  and  C_6
REMARK    2  A    between atoms: C_7  and  C_8
REMARK    3  A    between atoms: C_18  and  C_20
REMARK                            x       y       z     vdW  Elec       q    Type
REMARK                         _______ _______ _______ _____ _____    ______ ____
ROOT
ATOM      8  C   UNL     1      -2.041   1.421  24.534  0.00  0.00    +0.056 A 
ATOM      9  C   UNL     1      -1.404   1.889  24.298  0.00  0.00    +0.006 A 
ATOM     10  C   UNL     1      -0.692   1.536  24.076  0.00  0.00    +0.013 A 
ATOM     11  C   UNL     1      -0.617   0.715  24.091  0.00  0.00    +0.041 A 
ATOM     12  C   UNL     1      -0.006   0.051  23.918  0.00  0.00    +0.058 C 
ATOM     13  C   UNL     1       0.655  -0.047  23.701  0.00  0.00    +0.011 C 
ATOM     14  C   UNL     1       0.024  -0.506  23.935  0.00  0.00    +0.043 C 
ATOM     15  C   UNL     1      -0.613  -1.220  24.182  0.00  0.00    +0.096 C 
ATOM     16  N   UNL     1      -1.276  -0.753  24.382  0.00  0.00    -0.276 N 
ATOM     17  C   UNL     1      -0.610  -0.650  24.154  0.00  0.00    +0.099 C 
ATOM     18  C   UNL     1      -2.042  -0.569  24.630  0.00  0.00    +0.252 C 
ATOM     19  O   UNL     1      -2.284   0.219  24.673  0.00  0.00    -0.270 OA
ATOM     26  C   UNL     1      -0.622   0.181  24.118  0.00  0.00    +0.110 C 
ATOM     27  N   UNL     1      -1.254   0.247  24.327  0.00  0.00    -0.299 N 
ATOM     28  C   UNL     1      -1.966   0.600  24.548  0.00  0.00    +0.261 A 
ATOM     29  O   UNL     1      -2.712   0.364  24.809  0.00  0.00    -0.267 OA
ENDROOT
BRANCH  18  20
ATOM     20  C   UNL     1      -2.565  -1.173  24.834  0.00  0.00    +0.092 A 
ATOM     21  C   UNL     1      -2.663  -1.385  25.625  0.00  0.00    +0.107 A 
ATOM     22  N   UNL     1      -3.186  -1.990  25.829  0.00  0.00    -0.222 NA
ATOM     23  C   UNL     1      -3.612  -2.382  25.241  0.00  0.00    +0.199 A 
ATOM     24  N   UNL     1      -3.515  -2.170  24.451  0.00  0.00    -0.222 NA
ATOM     25  C   UNL     1      -2.991  -1.566  24.246  0.00  0.00    +0.107 A 
ENDBRANCH  18  20
BRANCH   8   7
ATOM      6  C   UNL     1      -2.842   2.593  24.696  0.00  0.00    +0.000 C 
ATOM      7  C   UNL     1      -2.752   1.775  24.755  0.00  0.00    +0.005 C 
BRANCH   6   5
ATOM      1 CL   UNL     1      -5.690   4.007  25.582  0.00  0.00    -0.082 Cl
ATOM      2  C   UNL     1      -4.978   3.653  25.360  0.00  0.00    +0.058 A 
ATOM      3  C   UNL     1      -4.942   3.192  24.678  0.00  0.00    +0.011 A 
ATOM      4  C   UNL     1      -4.230   2.839  24.456  0.00  0.00    +0.001 A 
ATOM      5  C   UNL     1      -3.555   2.947  24.918  0.00  0.00    +0.000 A 
ATOM     30  C   UNL     1      -3.590   3.408  25.601  0.00  0.00    +0.001 A 
ATOM     31  C   UNL     1      -4.303   3.761  25.823  0.00  0.00    +0.011 A 
ENDBRANCH   6   5
ENDBRANCH   8   7
TORSDOF 3
ENDMDL
