REMARK  Name = 
REMARK  6 active torsions:
REMARK  status: ('A' for Active; 'I' for Inactive)
REMARK    1  A    between atoms: C_8  and  C_10
REMARK    2  A    between atoms: C_10  and  C_11
REMARK    3  A    between atoms: C_13  and  C_14
REMARK    4  A    between atoms: C_14  and  N_15
REMARK    5  A    between atoms: N_15  and  S_16
REMARK    6  A    between atoms: S_16  and  C_19
REMARK                            x       y       z     vdW  Elec       q    Type
REMARK                         _______ _______ _______ _____ _____    ______ ____
ROOT
ATOM     11  C   UNL     1       1.429  -3.300   0.000  0.00  0.00    +0.157 C 
ATOM     12  O   UNL     1       2.096  -3.785   0.000  0.00  0.00    -0.351 OA
ATOM     13  C   UNL     1       1.841  -4.569   0.000  0.00  0.00    +0.167 C 
ATOM     26  C   UNL     1       1.016  -4.569   0.000  0.00  0.00    +0.213 C 
ATOM     27  O   UNL     1       0.531  -5.237   0.000  0.00  0.00    -0.218 OA
ATOM     28  C   UNL     1       0.761  -3.785   0.000  0.00  0.00    +0.212 C 
ATOM     29  O   UNL     1      -0.023  -3.530   0.000  0.00  0.00    -0.218 OA
ENDROOT
BRANCH  11  10
ATOM     10  C   UNL     1       1.429  -2.475   0.000  0.00  0.00    +0.117 C 
BRANCH  10   8
ATOM      1  C   UNL     1       0.715   1.238   0.000  0.00  0.00    +0.000 C 
ATOM      2  C   UNL     1       0.715   0.412   0.000  0.00  0.00    +0.003 C 
ATOM      3  C   UNL     1       1.429   0.000   0.000  0.00  0.00    +0.022 C 
ATOM      4  C   UNL     1       1.429  -0.825   0.000  0.00  0.00    +0.093 C 
ATOM      5  N   UNL     1       0.715  -1.238   0.000  0.00  0.00    -0.279 N 
ATOM      6  C   UNL     1       0.000  -0.825   0.000  0.00  0.00    +0.093 C 
ATOM      7  C   UNL     1       0.000   0.000   0.000  0.00  0.00    +0.022 C 
ATOM      8  C   UNL     1       0.715  -2.062   0.000  0.00  0.00    +0.228 C 
ATOM      9  O   UNL     1       0.000  -2.475   0.000  0.00  0.00    -0.275 OA
ENDBRANCH  10   8
ENDBRANCH  11  10
BRANCH  13  14
ATOM     14  C   UNL     1       2.326  -5.237   0.000  0.00  0.00    +0.148 C 
BRANCH  14  15
ATOM     15  N   UNL     1       3.147  -5.151   0.000  0.00  0.00    -0.075 NA
BRANCH  15  16
ATOM     16  S   UNL     1       3.632  -5.818   0.000  0.00  0.00    +0.077 S 
ATOM     17  O   UNL     1       2.964  -6.303   0.000  0.00  0.00    -0.152 OA
ATOM     18  O   UNL     1       4.299  -5.333   0.000  0.00  0.00    -0.152 OA
BRANCH  16  19
ATOM     19  C   UNL     1       4.117  -6.486   0.000  0.00  0.00    +0.124 A 
ATOM     20  C   UNL     1       4.937  -6.399   0.000  0.00  0.00    +0.021 A 
ATOM     21  C   UNL     1       5.422  -7.067   0.000  0.00  0.00    +0.013 A 
ATOM     22  C   UNL     1       5.087  -7.821   0.000  0.00  0.00    +0.058 A 
ATOM     23 CL   UNL     1       5.572  -8.488   0.000  0.00  0.00    -0.082 Cl
ATOM     24  C   UNL     1       4.266  -7.907   0.000  0.00  0.00    +0.013 A 
ATOM     25  C   UNL     1       3.781  -7.239   0.000  0.00  0.00    +0.021 A 
ENDBRANCH  16  19
ENDBRANCH  15  16
ENDBRANCH  14  15
ENDBRANCH  13  14
TORSDOF 6
