MODEL 1
REMARK VINA RESULT:     -11.3      0.000      0.000
REMARK  Name = 
REMARK  6 active torsions:
REMARK  status: ('A' for Active; 'I' for Inactive)
REMARK    1  A    between atoms: N_2  and  C_4
REMARK    2  A    between atoms: C_7  and  C_10
REMARK    3  A    between atoms: C_13  and  C_15
REMARK    4  A    between atoms: N_18  and  C_19
REMARK    5  A    between atoms: C_19  and  C_20
REMARK    6  A    between atoms: C_25  and  N_26
REMARK                            x       y       z     vdW  Elec       q    Type
REMARK                         _______ _______ _______ _____ _____    ______ ____
ROOT
ATOM     15  C   UNL     1      -3.805   2.626  25.175  0.00  0.00    +0.096 C 
ATOM     16  C   UNL     1      -4.170   3.260  25.556  0.00  0.00    +0.028 C 
ATOM     17  C   UNL     1      -3.621   3.874  25.608  0.00  0.00    +0.073 C 
ATOM     18  N   UNL     1      -2.918   3.620  25.260  0.00  0.00    -0.268 NA
ATOM     29  C   UNL     1      -3.032   2.848  24.992  0.00  0.00    +0.082 C 
ENDROOT
BRANCH  15  13
ATOM     10  C   UNL     1      -4.319   0.590  24.786  0.00  0.00    +0.250 A 
ATOM     11  N   UNL     1      -5.053   0.958  24.706  0.00  0.00    -0.107 NA
ATOM     12  N   UNL     1      -4.950   1.766  24.841  0.00  0.00    -0.111 NA
ATOM     13  C   UNL     1      -4.152   1.897  25.006  0.00  0.00    +0.227 A 
ATOM     14  O   UNL     1      -3.762   1.170  24.972  0.00  0.00    -0.419 OA
BRANCH  10   7
ATOM      4  C   UNL     1      -3.867  -1.828  24.519  0.00  0.00    +0.048 A 
ATOM      5  C   UNL     1      -4.177  -1.394  23.890  0.00  0.00    +0.015 A 
ATOM      6  C   UNL     1      -4.328  -0.588  23.979  0.00  0.00    +0.006 A 
ATOM      7  C   UNL     1      -4.168  -0.216  24.697  0.00  0.00    +0.055 A 
ATOM      8  C   UNL     1      -3.858  -0.649  25.327  0.00  0.00    +0.006 A 
ATOM      9  C   UNL     1      -3.707  -1.455  25.238  0.00  0.00    +0.015 A 
BRANCH   4   2
ATOM      1  C   UNL     1      -4.088  -3.059  23.828  0.00  0.00    +0.112 C 
ATOM      2  N   UNL     1      -3.716  -2.635  24.430  0.00  0.00    -0.304 N 
ATOM      3  C   UNL     1      -3.194  -3.015  24.942  0.00  0.00    +0.112 C 
ENDBRANCH   4   2
ENDBRANCH  10   7
ENDBRANCH  15  13
BRANCH  18  19
ATOM     19  C   UNL     1      -2.224   4.060  25.192  0.00  0.00    +0.101 C 
BRANCH  19  20
ATOM     20  C   UNL     1      -1.505   3.736  25.431  0.00  0.00    +0.016 A 
ATOM     21  C   UNL     1      -1.494   3.067  25.916  0.00  0.00    -0.001 A 
ATOM     22  C   UNL     1      -0.775   2.743  26.155  0.00  0.00    -0.000 A 
ATOM     23  C   UNL     1      -0.066   3.086  25.911  0.00  0.00    +0.002 A 
ATOM     24  C   UNL     1      -0.075   3.754  25.427  0.00  0.00    +0.024 A 
ATOM     25  C   UNL     1      -0.796   4.079  25.187  0.00  0.00    +0.140 A 
BRANCH  25  26
ATOM     26  N   UNL     1      -0.805   4.747  24.703  0.00  0.00    +0.057 N 
ATOM     27  O   UNL     1      -0.618   4.677  23.903  0.00  0.00    -0.126 OA
ATOM     28  O   UNL     1      -1.001   5.483  25.019  0.00  0.00    -0.126 OA
ENDBRANCH  25  26
ENDBRANCH  19  20
ENDBRANCH  18  19
TORSDOF 6
ENDMDL
MODEL 2
REMARK VINA RESULT:     -10.8      2.102      6.189
REMARK  Name = 
REMARK  6 active torsions:
REMARK  status: ('A' for Active; 'I' for Inactive)
REMARK    1  A    between atoms: N_2  and  C_4
REMARK    2  A    between atoms: C_7  and  C_10
REMARK    3  A    between atoms: C_13  and  C_15
REMARK    4  A    between atoms: N_18  and  C_19
REMARK    5  A    between atoms: C_19  and  C_20
REMARK    6  A    between atoms: C_25  and  N_26
REMARK                            x       y       z     vdW  Elec       q    Type
REMARK                         _______ _______ _______ _____ _____    ______ ____
ROOT
ATOM     15  C   UNL     1      -1.175   0.030  25.183  0.00  0.00    +0.096 C 
ATOM     16  C   UNL     1      -0.718  -0.449  24.691  0.00  0.00    +0.028 C 
ATOM     17  C   UNL     1      -1.128  -1.155  24.572  0.00  0.00    +0.073 C 
ATOM     18  N   UNL     1      -1.838  -1.113  24.990  0.00  0.00    -0.268 NA
ATOM     29  C   UNL     1      -1.867  -0.380  25.368  0.00  0.00    +0.082 C 
ENDROOT
BRANCH  15  13
ATOM     10  C   UNL     1      -0.913   2.115  25.559  0.00  0.00    +0.250 A 
ATOM     11  N   UNL     1      -0.425   1.786  26.137  0.00  0.00    -0.107 NA
ATOM     12  N   UNL     1      -0.463   0.965  26.066  0.00  0.00    -0.111 NA
ATOM     13  C   UNL     1      -0.976   0.786  25.445  0.00  0.00    +0.227 A 
ATOM     14  O   UNL     1      -1.254   1.497  25.131  0.00  0.00    -0.419 OA
BRANCH  10   7
ATOM      4  C   UNL     1      -1.292   4.531  25.176  0.00  0.00    +0.048 A 
ATOM      5  C   UNL     1      -0.646   4.154  24.829  0.00  0.00    +0.015 A 
ATOM      6  C   UNL     1      -0.519   3.349  24.956  0.00  0.00    +0.006 A 
ATOM      7  C   UNL     1      -1.040   2.920  25.432  0.00  0.00    +0.055 A 
ATOM      8  C   UNL     1      -1.686   3.296  25.780  0.00  0.00    +0.006 A 
ATOM      9  C   UNL     1      -1.813   4.102  25.652  0.00  0.00    +0.015 A 
BRANCH   4   2
ATOM      1  C   UNL     1      -0.828   5.795  24.699  0.00  0.00    +0.112 C 
ATOM      2  N   UNL     1      -1.418   5.336  25.048  0.00  0.00    -0.304 N 
ATOM      3  C   UNL     1      -2.133   5.681  25.269  0.00  0.00    +0.112 C 
ENDBRANCH   4   2
ENDBRANCH  10   7
ENDBRANCH  15  13
BRANCH  18  19
ATOM     19  C   UNL     1      -2.417  -1.700  25.024  0.00  0.00    +0.101 C 
BRANCH  19  20
ATOM     20  C   UNL     1      -3.116  -1.614  24.596  0.00  0.00    +0.016 A 
ATOM     21  C   UNL     1      -3.357  -0.866  24.343  0.00  0.00    -0.001 A 
ATOM     22  C   UNL     1      -4.056  -0.781  23.915  0.00  0.00    -0.000 A 
ATOM     23  C   UNL     1      -4.516  -1.443  23.739  0.00  0.00    +0.002 A 
ATOM     24  C   UNL     1      -4.276  -2.191  23.991  0.00  0.00    +0.024 A 
ATOM     25  C   UNL     1      -3.575  -2.276  24.420  0.00  0.00    +0.140 A 
BRANCH  25  26
ATOM     26  N   UNL     1      -3.336  -3.024  24.672  0.00  0.00    +0.057 N 
ATOM     27  O   UNL     1      -3.492  -3.267  25.444  0.00  0.00    -0.126 OA
ATOM     28  O   UNL     1      -2.941  -3.528  24.152  0.00  0.00    -0.126 OA
ENDBRANCH  25  26
ENDBRANCH  19  20
ENDBRANCH  18  19
TORSDOF 6
ENDMDL
MODEL 3
REMARK VINA RESULT:     -10.4      1.700      2.518
REMARK  Name = 
REMARK  6 active torsions:
REMARK  status: ('A' for Active; 'I' for Inactive)
REMARK    1  A    between atoms: N_2  and  C_4
REMARK    2  A    between atoms: C_7  and  C_10
REMARK    3  A    between atoms: C_13  and  C_15
REMARK    4  A    between atoms: N_18  and  C_19
REMARK    5  A    between atoms: C_19  and  C_20
REMARK    6  A    between atoms: C_25  and  N_26
REMARK                            x       y       z     vdW  Elec       q    Type
REMARK                         _______ _______ _______ _____ _____    ______ ____
ROOT
ATOM     15  C   UNL     1      -0.609   1.461  25.397  0.00  0.00    +0.096 C 
ATOM     16  C   UNL     1      -0.275   1.638  26.131  0.00  0.00    +0.028 C 
ATOM     17  C   UNL     1      -0.230   2.459  26.197  0.00  0.00    +0.073 C 
ATOM     18  N   UNL     1      -0.534   2.789  25.506  0.00  0.00    -0.268 NA
ATOM     29  C   UNL     1      -0.769   2.173  25.011  0.00  0.00    +0.082 C 
ENDROOT
BRANCH  15  13
ATOM     10  C   UNL     1      -1.381  -0.423  24.753  0.00  0.00    +0.250 A 
ATOM     11  N   UNL     1      -0.588  -0.493  24.538  0.00  0.00    -0.107 NA
ATOM     12  N   UNL     1      -0.202   0.204  24.753  0.00  0.00    -0.111 NA
ATOM     13  C   UNL     1      -0.756   0.705  25.101  0.00  0.00    +0.227 A 
ATOM     14  O   UNL     1      -1.485   0.318  25.101  0.00  0.00    -0.419 OA
BRANCH  10   7
ATOM      4  C   UNL     1      -3.139  -2.132  24.415  0.00  0.00    +0.048 A 
ATOM      5  C   UNL     1      -2.357  -2.363  24.540  0.00  0.00    +0.015 A 
ATOM      6  C   UNL     1      -1.771  -1.793  24.653  0.00  0.00    +0.006 A 
ATOM      7  C   UNL     1      -1.967  -0.993  24.640  0.00  0.00    +0.055 A 
ATOM      8  C   UNL     1      -2.749  -0.760  24.515  0.00  0.00    +0.006 A 
ATOM      9  C   UNL     1      -3.335  -1.330  24.402  0.00  0.00    +0.015 A 
BRANCH   4   2
ATOM      1  C   UNL     1      -4.372  -2.537  23.817  0.00  0.00    +0.112 C 
ATOM      2  N   UNL     1      -3.725  -2.702  24.302  0.00  0.00    -0.304 N 
ATOM      3  C   UNL     1      -3.664  -3.435  24.674  0.00  0.00    +0.112 C 
ENDBRANCH   4   2
ENDBRANCH  10   7
ENDBRANCH  15  13
BRANCH  18  19
ATOM     19  C   UNL     1      -0.594   3.595  25.339  0.00  0.00    +0.101 C 
BRANCH  19  20
ATOM     20  C   UNL     1      -1.310   3.987  25.450  0.00  0.00    +0.016 A 
ATOM     21  C   UNL     1      -1.913   3.631  25.888  0.00  0.00    -0.001 A 
ATOM     22  C   UNL     1      -2.629   4.023  26.000  0.00  0.00    -0.000 A 
ATOM     23  C   UNL     1      -2.744   4.772  25.674  0.00  0.00    +0.002 A 
ATOM     24  C   UNL     1      -2.143   5.129  25.237  0.00  0.00    +0.024 A 
ATOM     25  C   UNL     1      -1.426   4.736  25.125  0.00  0.00    +0.140 A 
BRANCH  25  26
ATOM     26  N   UNL     1      -0.825   5.093  24.687  0.00  0.00    +0.057 N 
ATOM     27  O   UNL     1      -0.342   5.661  25.039  0.00  0.00    -0.126 OA
ATOM     28  O   UNL     1      -0.707   4.883  23.898  0.00  0.00    -0.126 OA
ENDBRANCH  25  26
ENDBRANCH  19  20
ENDBRANCH  18  19
TORSDOF 6
ENDMDL
MODEL 4
REMARK VINA RESULT:     -10.2      1.583      5.694
REMARK  Name = 
REMARK  6 active torsions:
REMARK  status: ('A' for Active; 'I' for Inactive)
REMARK    1  A    between atoms: N_2  and  C_4
REMARK    2  A    between atoms: C_7  and  C_10
REMARK    3  A    between atoms: C_13  and  C_15
REMARK    4  A    between atoms: N_18  and  C_19
REMARK    5  A    between atoms: C_19  and  C_20
REMARK    6  A    between atoms: C_25  and  N_26
REMARK                            x       y       z     vdW  Elec       q    Type
REMARK                         _______ _______ _______ _____ _____    ______ ____
ROOT
ATOM     15  C   UNL     1      -4.099   0.610  24.851  0.00  0.00    +0.096 C 
ATOM     16  C   UNL     1      -4.599   0.268  24.291  0.00  0.00    +0.028 C 
ATOM     17  C   UNL     1      -4.496  -0.550  24.324  0.00  0.00    +0.073 C 
ATOM     18  N   UNL     1      -3.934  -0.714  24.904  0.00  0.00    -0.268 NA
ATOM     29  C   UNL     1      -3.688   0.003  25.230  0.00  0.00    +0.082 C 
ENDROOT
BRANCH  15  13
ATOM     10  C   UNL     1      -3.511   2.644  25.129  0.00  0.00    +0.250 A 
ATOM     11  N   UNL     1      -4.302   2.674  25.358  0.00  0.00    -0.107 NA
ATOM     12  N   UNL     1      -4.619   1.916  25.282  0.00  0.00    -0.111 NA
ATOM     13  C   UNL     1      -4.024   1.417  25.006  0.00  0.00    +0.227 A 
ATOM     14  O   UNL     1      -3.338   1.866  24.911  0.00  0.00    -0.419 OA
BRANCH  10   7
ATOM      4  C   UNL     1      -1.930   4.548  25.099  0.00  0.00    +0.048 A 
ATOM      5  C   UNL     1      -2.422   4.430  25.750  0.00  0.00    +0.015 A 
ATOM      6  C   UNL     1      -2.949   3.795  25.760  0.00  0.00    +0.006 A 
ATOM      7  C   UNL     1      -2.984   3.278  25.119  0.00  0.00    +0.055 A 
ATOM      8  C   UNL     1      -2.492   3.395  24.467  0.00  0.00    +0.006 A 
ATOM      9  C   UNL     1      -1.965   4.030  24.457  0.00  0.00    +0.015 A 
BRANCH   4   2
ATOM      1  C   UNL     1      -1.689   5.956  25.124  0.00  0.00    +0.112 C 
ATOM      2  N   UNL     1      -1.403   5.182  25.089  0.00  0.00    -0.304 N 
ATOM      3  C   UNL     1      -0.592   5.044  25.044  0.00  0.00    +0.112 C 
ENDBRANCH   4   2
ENDBRANCH  10   7
ENDBRANCH  15  13
BRANCH  18  19
ATOM     19  C   UNL     1      -3.664  -1.463  25.120  0.00  0.00    +0.101 C 
BRANCH  19  20
ATOM     20  C   UNL     1      -2.915  -1.714  24.885  0.00  0.00    +0.016 A 
ATOM     21  C   UNL     1      -2.296  -1.172  24.826  0.00  0.00    -0.001 A 
ATOM     22  C   UNL     1      -1.547  -1.423  24.591  0.00  0.00    -0.000 A 
ATOM     23  C   UNL     1      -1.416  -2.219  24.415  0.00  0.00    +0.002 A 
ATOM     24  C   UNL     1      -2.033  -2.762  24.474  0.00  0.00    +0.024 A 
ATOM     25  C   UNL     1      -2.783  -2.510  24.709  0.00  0.00    +0.140 A 
BRANCH  25  26
ATOM     26  N   UNL     1      -3.401  -3.053  24.768  0.00  0.00    +0.057 N 
ATOM     27  O   UNL     1      -3.611  -3.359  25.505  0.00  0.00    -0.126 OA
ATOM     28  O   UNL     1      -3.808  -3.291  24.091  0.00  0.00    -0.126 OA
ENDBRANCH  25  26
ENDBRANCH  19  20
ENDBRANCH  18  19
TORSDOF 6
ENDMDL
MODEL 5
REMARK VINA RESULT:      -9.7      2.934      4.692
REMARK  Name = 
REMARK  6 active torsions:
REMARK  status: ('A' for Active; 'I' for Inactive)
REMARK    1  A    between atoms: N_2  and  C_4
REMARK    2  A    between atoms: C_7  and  C_10
REMARK    3  A    between atoms: C_13  and  C_15
REMARK    4  A    between atoms: N_18  and  C_19
REMARK    5  A    between atoms: C_19  and  C_20
REMARK    6  A    between atoms: C_25  and  N_26
REMARK                            x       y       z     vdW  Elec       q    Type
REMARK                         _______ _______ _______ _____ _____    ______ ____
ROOT
ATOM     15  C   UNL     1      -3.036   0.309  24.655  0.00  0.00    +0.096 C 
ATOM     16  C   UNL     1      -3.584  -0.008  24.126  0.00  0.00    +0.028 C 
ATOM     17  C   UNL     1      -4.319   0.330  24.288  0.00  0.00    +0.073 C 
ATOM     18  N   UNL     1      -4.226   0.855  24.917  0.00  0.00    -0.268 NA
ATOM     29  C   UNL     1      -3.433   0.842  25.144  0.00  0.00    +0.082 C 
ENDROOT
BRANCH  15  13
ATOM     10  C   UNL     1      -0.942   0.006  24.369  0.00  0.00    +0.250 A 
ATOM     11  N   UNL     1      -1.050  -0.321  25.118  0.00  0.00    -0.107 NA
ATOM     12  N   UNL     1      -1.848  -0.248  25.317  0.00  0.00    -0.111 NA
ATOM     13  C   UNL     1      -2.233   0.125  24.690  0.00  0.00    +0.227 A 
ATOM     14  O   UNL     1      -1.674   0.283  24.104  0.00  0.00    -0.419 OA
BRANCH  10   7
ATOM      4  C   UNL     1       1.197   0.138  23.131  0.00  0.00    +0.048 A 
ATOM      5  C   UNL     1       0.809  -0.585  23.210  0.00  0.00    +0.015 A 
ATOM      6  C   UNL     1       0.096  -0.629  23.622  0.00  0.00    +0.006 A 
ATOM      7  C   UNL     1      -0.229   0.050  23.956  0.00  0.00    +0.055 A 
ATOM      8  C   UNL     1       0.158   0.775  23.879  0.00  0.00    +0.006 A 
ATOM      9  C   UNL     1       0.871   0.819  23.466  0.00  0.00    +0.015 A 
BRANCH   4   2
ATOM      1  C   UNL     1       1.982  -0.180  21.981  0.00  0.00    +0.112 C 
ATOM      2  N   UNL     1       1.910   0.182  22.719  0.00  0.00    -0.304 N 
ATOM      3  C   UNL     1       2.549   0.589  23.044  0.00  0.00    +0.112 C 
ENDBRANCH   4   2
ENDBRANCH  10   7
ENDBRANCH  15  13
BRANCH  18  19
ATOM     19  C   UNL     1      -4.821   1.313  25.259  0.00  0.00    +0.101 C 
BRANCH  19  20
ATOM     20  C   UNL     1      -4.811   2.133  25.174  0.00  0.00    +0.016 A 
ATOM     21  C   UNL     1      -4.189   2.499  24.775  0.00  0.00    -0.001 A 
ATOM     22  C   UNL     1      -4.178   3.319  24.690  0.00  0.00    -0.000 A 
ATOM     23  C   UNL     1      -4.790   3.774  25.005  0.00  0.00    +0.002 A 
ATOM     24  C   UNL     1      -5.413   3.409  25.404  0.00  0.00    +0.024 A 
ATOM     25  C   UNL     1      -5.423   2.588  25.489  0.00  0.00    +0.140 A 
BRANCH  25  26
ATOM     26  N   UNL     1      -6.045   2.223  25.889  0.00  0.00    +0.057 N 
ATOM     27  O   UNL     1      -6.046   2.198  26.713  0.00  0.00    -0.126 OA
ATOM     28  O   UNL     1      -6.666   1.884  25.464  0.00  0.00    -0.126 OA
ENDBRANCH  25  26
ENDBRANCH  19  20
ENDBRANCH  18  19
TORSDOF 6
ENDMDL
