REMARK  Name = 
REMARK  6 active torsions:
REMARK  status: ('A' for Active; 'I' for Inactive)
REMARK    1  A    between atoms: N_2  and  C_4
REMARK    2  A    between atoms: C_7  and  C_10
REMARK    3  A    between atoms: N_12  and  C_13
REMARK    4  A    between atoms: C_13  and  C_14
REMARK    5  A    between atoms: C_21  and  C_22
REMARK    6  A    between atoms: C_22  and  N_23
REMARK                            x       y       z     vdW  Elec       q    Type
REMARK                         _______ _______ _______ _____ _____    ______ ____
ROOT
ATOM     14  C   UNL     1       1.814  -2.106   0.000  0.00  0.00    +0.079 C 
ATOM     15  C   UNL     1       1.661  -1.343   0.000  0.00  0.00    +0.018 C 
ATOM     16  C   UNL     1       0.923  -1.010   0.000  0.00  0.00    +0.005 C 
ATOM     17  C   UNL     1       0.961  -0.114   0.000  0.00  0.00    +0.017 C 
ATOM     18  C   UNL     1       1.205  -0.720   0.000  0.00  0.00    +0.072 C 
ATOM     19  N   UNL     1       1.065  -1.759   0.000  0.00  0.00    -0.272 NA
ATOM     20  C   UNL     1       0.226  -2.118   0.000  0.00  0.00    +0.073 C 
ATOM     21  C   UNL     1       0.119  -1.362   0.000  0.00  0.00    +0.032 C 
ENDROOT
BRANCH  14  13
ATOM     13  C   UNL     1       2.324  -2.754   0.000  0.00  0.00    +0.131 C 
BRANCH  13  12
ATOM     10  C   UNL     1       2.529  -4.168   0.000  0.00  0.00    +0.265 C 
ATOM     11  O   UNL     1       3.345  -4.050   0.000  0.00  0.00    -0.268 OA
ATOM     12  N   UNL     1       2.018  -3.520   0.000  0.00  0.00    -0.200 NA
BRANCH  10   7
ATOM      4  C   UNL     1       1.611  -6.466   0.000  0.00  0.00    +0.048 A 
ATOM      5  C   UNL     1       1.100  -5.818   0.000  0.00  0.00    +0.015 A 
ATOM      6  C   UNL     1       1.406  -5.052   0.000  0.00  0.00    +0.006 A 
ATOM      7  C   UNL     1       2.223  -4.934   0.000  0.00  0.00    +0.055 A 
ATOM      8  C   UNL     1       2.733  -5.582   0.000  0.00  0.00    +0.006 A 
ATOM      9  C   UNL     1       2.427  -6.348   0.000  0.00  0.00    +0.015 A 
BRANCH   4   2
ATOM      1  C   UNL     1       1.815  -7.880   0.000  0.00  0.00    +0.112 C 
ATOM      2  N   UNL     1       1.304  -7.232   0.000  0.00  0.00    -0.304 N 
ATOM      3  C   UNL     1       0.488  -7.350   0.000  0.00  0.00    +0.112 C 
ENDBRANCH   4   2
ENDBRANCH  10   7
ENDBRANCH  13  12
ENDBRANCH  14  13
BRANCH  21  22
ATOM     22  C   UNL     1      -0.602  -0.960   0.000  0.00  0.00    +0.074 C 
BRANCH  22  23
ATOM     23  N   UNL     1      -0.614  -0.136   0.000  0.00  0.00    -0.270 NA
ATOM     24  C   UNL     1      -1.335   0.266   0.000  0.00  0.00    +0.094 C 
ATOM     25  C   UNL     1      -1.347   1.091   0.000  0.00  0.00    +0.111 C 
ATOM     26  N   UNL     1      -0.639   1.514   0.000  0.00  0.00    -0.275 N 
ATOM     27  C   UNL     1       0.082   1.113   0.000  0.00  0.00    +0.111 C 
ATOM     28  C   UNL     1       0.094   0.288   0.000  0.00  0.00    +0.094 C 
ATOM     29  C   UNL     1      -0.651   2.339   0.000  0.00  0.00    +0.220 A 
ATOM     30  N   UNL     1      -1.372   2.741   0.000  0.00  0.00    -0.212 NA
ATOM     31  C   UNL     1      -1.384   3.566   0.000  0.00  0.00    +0.103 A 
ATOM     32  C   UNL     1      -0.676   3.989   0.000  0.00  0.00    +0.041 A 
ATOM     33  C   UNL     1       0.045   3.587   0.000  0.00  0.00    +0.103 A 
ATOM     34  N   UNL     1       0.057   2.762   0.000  0.00  0.00    -0.212 NA
ENDBRANCH  22  23
ENDBRANCH  21  22
TORSDOF 6
