MODEL 1
REMARK VINA RESULT:     -15.7      0.000      0.000
REMARK  Name = 
REMARK  3 active torsions:
REMARK  status: ('A' for Active; 'I' for Inactive)
REMARK    1  A    between atoms: C_5  and  C_8
REMARK    2  A    between atoms: C_19  and  N_20
REMARK    3  A    between atoms: C_21  and  C_23
REMARK                            x       y       z     vdW  Elec       q    Type
REMARK                         _______ _______ _______ _____ _____    ______ ____
ROOT
ATOM      8  C   UNL     1      -2.399   2.020  24.604  0.00  0.00    +0.249 C 
ATOM      9  O   UNL     1      -1.598   2.372  24.578  0.00  0.00    -0.270 OA
ATOM     10  N   UNL     1      -2.873   2.664  24.856  0.00  0.00    -0.276 N 
ATOM     11  C   UNL     1      -2.940   3.463  25.088  0.00  0.00    +0.096 C 
ATOM     12  C   UNL     1      -3.914   3.507  25.250  0.00  0.00    +0.043 C 
ATOM     13  C   UNL     1      -4.685   3.706  25.424  0.00  0.00    +0.011 C 
ATOM     14  C   UNL     1      -4.330   3.138  25.212  0.00  0.00    +0.058 C 
ATOM     15  C   UNL     1      -3.388   3.112  25.060  0.00  0.00    +0.099 C 
ATOM     16  C   UNL     1      -4.451   2.256  24.986  0.00  0.00    +0.041 A 
ATOM     17  C   UNL     1      -5.045   1.687  24.920  0.00  0.00    +0.014 A 
ATOM     18  C   UNL     1      -4.856   0.921  24.679  0.00  0.00    +0.023 A 
ATOM     19  C   UNL     1      -4.075   0.724  24.503  0.00  0.00    +0.130 A 
ATOM     28  C   UNL     1      -3.481   1.292  24.569  0.00  0.00    +0.276 A 
ATOM     29  O   UNL     1      -2.453   1.303  24.414  0.00  0.00    -0.266 OA
ATOM     30  N   UNL     1      -3.669   2.058  24.811  0.00  0.00    -0.298 N 
ATOM     31  C   UNL     1      -4.030   2.584  25.013  0.00  0.00    +0.110 C 
ENDROOT
BRANCH   8   5
ATOM      1  F   UNL     1      -4.807  -1.042  24.198  0.00  0.00    -0.204 F 
ATOM      2  C   UNL     1      -4.189  -0.261  24.217  0.00  0.00    +0.140 A 
ATOM      3  C   UNL     1      -3.902   0.147  24.967  0.00  0.00    +0.030 A 
ATOM      4  C   UNL     1      -3.331   0.876  25.111  0.00  0.00    +0.007 A 
ATOM      5  C   UNL     1      -2.976   1.286  24.490  0.00  0.00    +0.054 A 
ATOM      6  C   UNL     1      -3.118   1.059  23.710  0.00  0.00    +0.007 A 
ATOM      7  C   UNL     1      -3.616   0.420  23.550  0.00  0.00    +0.030 A 
ENDBRANCH   8   5
BRANCH  19  20
ATOM     20  N   UNL     1      -3.754  -0.042  24.242  0.00  0.00    -0.168 NA
ATOM     21  C   UNL     1      -3.908  -0.541  25.076  0.00  0.00    +0.304 C 
ATOM     22  O   UNL     1      -4.219  -0.574  25.965  0.00  0.00    -0.265 OA
BRANCH  21  23
ATOM     23  C   UNL     1      -3.573  -1.376  24.829  0.00  0.00    +0.201 A 
ATOM     24  C   UNL     1      -3.367  -1.922  25.411  0.00  0.00    +0.046 A 
ATOM     25  C   UNL     1      -3.090  -2.603  25.036  0.00  0.00    +0.044 A 
ATOM     26  C   UNL     1      -3.126  -2.477  24.221  0.00  0.00    +0.180 A 
ATOM     27  O   UNL     1      -3.424  -1.718  24.094  0.00  0.00    -0.446 OA
ENDBRANCH  21  23
ENDBRANCH  19  20
TORSDOF 3
ENDMDL
MODEL 2
REMARK VINA RESULT:     -15.7      1.207      3.695
REMARK  Name = 
REMARK  3 active torsions:
REMARK  status: ('A' for Active; 'I' for Inactive)
REMARK    1  A    between atoms: C_5  and  C_8
REMARK    2  A    between atoms: C_19  and  N_20
REMARK    3  A    between atoms: C_21  and  C_23
REMARK                            x       y       z     vdW  Elec       q    Type
REMARK                         _______ _______ _______ _____ _____    ______ ____
ROOT
ATOM      8  C   UNL     1      -2.097  -0.603  25.336  0.00  0.00    +0.249 C 
ATOM      9  O   UNL     1      -1.362  -0.770  25.780  0.00  0.00    -0.270 OA
ATOM     10  N   UNL     1      -2.391  -1.370  25.173  0.00  0.00    -0.276 N 
ATOM     11  C   UNL     1      -2.315  -2.200  25.232  0.00  0.00    +0.096 C 
ATOM     12  C   UNL     1      -3.131  -2.476  24.747  0.00  0.00    +0.043 C 
ATOM     13  C   UNL     1      -3.750  -2.860  24.382  0.00  0.00    +0.011 C 
ATOM     14  C   UNL     1      -3.544  -2.199  24.494  0.00  0.00    +0.058 C 
ATOM     15  C   UNL     1      -2.752  -1.948  24.966  0.00  0.00    +0.099 C 
ATOM     16  C   UNL     1      -3.792  -1.329  24.331  0.00  0.00    +0.041 A 
ATOM     17  C   UNL     1      -4.388  -0.891  23.966  0.00  0.00    +0.014 A 
ATOM     18  C   UNL     1      -4.356  -0.067  23.971  0.00  0.00    +0.023 A 
ATOM     19  C   UNL     1      -3.728   0.319  24.342  0.00  0.00    +0.130 A 
ATOM     28  C   UNL     1      -3.132  -0.118  24.707  0.00  0.00    +0.276 A 
ATOM     29  O   UNL     1      -2.262   0.115  25.225  0.00  0.00    -0.266 OA
ATOM     30  N   UNL     1      -3.164  -0.943  24.701  0.00  0.00    -0.298 N 
ATOM     31  C   UNL     1      -3.382  -1.564  24.581  0.00  0.00    +0.110 C 
ENDROOT
BRANCH   8   5
ATOM      1  F   UNL     1      -4.680   1.923  23.823  0.00  0.00    -0.204 F 
ATOM      2  C   UNL     1      -3.970   1.303  24.145  0.00  0.00    +0.140 A 
ATOM      3  C   UNL     1      -4.045   0.771  24.869  0.00  0.00    +0.030 A 
ATOM      4  C   UNL     1      -3.458   0.157  25.264  0.00  0.00    +0.007 A 
ATOM      5  C   UNL     1      -2.706   0.008  24.960  0.00  0.00    +0.054 A 
ATOM      6  C   UNL     1      -2.447   0.405  24.286  0.00  0.00    +0.007 A 
ATOM      7  C   UNL     1      -2.941   0.953  23.914  0.00  0.00    +0.030 A 
ENDBRANCH   8   5
BRANCH  19  20
ATOM     20  N   UNL     1      -3.585   1.175  24.414  0.00  0.00    -0.168 NA
ATOM     21  C   UNL     1      -4.365   1.392  24.973  0.00  0.00    +0.304 C 
ATOM     22  O   UNL     1      -5.141   1.125  25.434  0.00  0.00    -0.265 OA
BRANCH  21  23
ATOM     23  C   UNL     1      -4.242   2.312  25.071  0.00  0.00    +0.201 A 
ATOM     24  C   UNL     1      -4.725   2.737  25.586  0.00  0.00    +0.046 A 
ATOM     25  C   UNL     1      -4.492   3.528  25.560  0.00  0.00    +0.044 A 
ATOM     26  C   UNL     1      -3.865   3.592  25.029  0.00  0.00    +0.180 A 
ATOM     27  O   UNL     1      -3.710   2.840  24.726  0.00  0.00    -0.446 OA
ENDBRANCH  21  23
ENDBRANCH  19  20
TORSDOF 3
ENDMDL
MODEL 3
REMARK VINA RESULT:     -15.4      1.071      1.666
REMARK  Name = 
REMARK  3 active torsions:
REMARK  status: ('A' for Active; 'I' for Inactive)
REMARK    1  A    between atoms: C_5  and  C_8
REMARK    2  A    between atoms: C_19  and  N_20
REMARK    3  A    between atoms: C_21  and  C_23
REMARK                            x       y       z     vdW  Elec       q    Type
REMARK                         _______ _______ _______ _____ _____    ______ ____
ROOT
ATOM      8  C   UNL     1      -5.231   2.041  24.916  0.00  0.00    +0.249 C 
ATOM      9  O   UNL     1      -6.061   2.306  24.999  0.00  0.00    -0.270 OA
ATOM     10  N   UNL     1      -4.798   2.712  25.173  0.00  0.00    -0.276 N 
ATOM     11  C   UNL     1      -4.786   3.495  25.463  0.00  0.00    +0.096 C 
ATOM     12  C   UNL     1      -3.809   3.630  25.532  0.00  0.00    +0.043 C 
ATOM     13  C   UNL     1      -3.048   3.896  25.644  0.00  0.00    +0.011 C 
ATOM     14  C   UNL     1      -3.365   3.311  25.422  0.00  0.00    +0.058 C 
ATOM     15  C   UNL     1      -4.311   3.196  25.361  0.00  0.00    +0.099 C 
ATOM     16  C   UNL     1      -3.183   2.465  25.112  0.00  0.00    +0.041 A 
ATOM     17  C   UNL     1      -2.547   1.970  24.940  0.00  0.00    +0.014 A 
ATOM     18  C   UNL     1      -2.683   1.208  24.655  0.00  0.00    +0.023 A 
ATOM     19  C   UNL     1      -3.456   0.941  24.542  0.00  0.00    +0.130 A 
ATOM     28  C   UNL     1      -4.092   1.437  24.714  0.00  0.00    +0.276 A 
ATOM     29  O   UNL     1      -5.127   1.350  24.662  0.00  0.00    -0.266 OA
ATOM     30  N   UNL     1      -3.956   2.199  24.999  0.00  0.00    -0.298 N 
ATOM     31  C   UNL     1      -3.629   2.745  25.207  0.00  0.00    +0.110 C 
ENDROOT
BRANCH   8   5
ATOM      1  F   UNL     1      -2.599  -0.669  23.885  0.00  0.00    -0.204 F 
ATOM      2  C   UNL     1      -3.273  -0.019  24.223  0.00  0.00    +0.140 A 
ATOM      3  C   UNL     1      -3.595   0.677  23.750  0.00  0.00    +0.030 A 
ATOM      4  C   UNL     1      -4.219   1.345  23.954  0.00  0.00    +0.007 A 
ATOM      5  C   UNL     1      -4.600   1.383  24.684  0.00  0.00    +0.054 A 
ATOM      6  C   UNL     1      -4.437   0.821  25.265  0.00  0.00    +0.007 A 
ATOM      7  C   UNL     1      -3.891   0.220  25.116  0.00  0.00    +0.030 A 
ENDBRANCH   8   5
BRANCH  19  20
ATOM     20  N   UNL     1      -3.725   0.167  24.250  0.00  0.00    -0.168 NA
ATOM     21  C   UNL     1      -3.258  -0.392  24.912  0.00  0.00    +0.304 C 
ATOM     22  O   UNL     1      -2.694  -0.475  25.662  0.00  0.00    -0.265 OA
BRANCH  21  23
ATOM     23  C   UNL     1      -3.527  -1.239  24.626  0.00  0.00    +0.201 A 
ATOM     24  C   UNL     1      -3.350  -1.901  25.084  0.00  0.00    +0.046 A 
ATOM     25  C   UNL     1      -3.653  -2.566  24.700  0.00  0.00    +0.044 A 
ATOM     26  C   UNL     1      -4.016  -2.314  24.004  0.00  0.00    +0.180 A 
ATOM     27  O   UNL     1      -3.939  -1.494  23.958  0.00  0.00    -0.446 OA
ENDBRANCH  21  23
ENDBRANCH  19  20
TORSDOF 3
ENDMDL
MODEL 4
REMARK VINA RESULT:     -15.2      0.963      1.109
REMARK  Name = 
REMARK  3 active torsions:
REMARK  status: ('A' for Active; 'I' for Inactive)
REMARK    1  A    between atoms: C_5  and  C_8
REMARK    2  A    between atoms: C_19  and  N_20
REMARK    3  A    between atoms: C_21  and  C_23
REMARK                            x       y       z     vdW  Elec       q    Type
REMARK                         _______ _______ _______ _____ _____    ______ ____
ROOT
ATOM      8  C   UNL     1      -3.140   1.759  23.539  0.00  0.00    +0.249 C 
ATOM      9  O   UNL     1      -2.689   2.285  23.004  0.00  0.00    -0.270 OA
ATOM     10  N   UNL     1      -3.661   2.292  23.922  0.00  0.00    -0.276 N 
ATOM     11  C   UNL     1      -3.946   3.069  24.033  0.00  0.00    +0.096 C 
ATOM     12  C   UNL     1      -4.635   2.897  24.720  0.00  0.00    +0.043 C 
ATOM     13  C   UNL     1      -5.229   2.922  25.277  0.00  0.00    +0.011 C 
ATOM     14  C   UNL     1      -4.814   2.439  24.983  0.00  0.00    +0.058 C 
ATOM     15  C   UNL     1      -4.152   2.622  24.319  0.00  0.00    +0.099 C 
ATOM     16  C   UNL     1      -4.635   1.538  24.998  0.00  0.00    +0.041 A 
ATOM     17  C   UNL     1      -4.877   0.842  25.370  0.00  0.00    +0.014 A 
ATOM     18  C   UNL     1      -4.518   0.125  25.177  0.00  0.00    +0.023 A 
ATOM     19  C   UNL     1      -3.917   0.103  24.613  0.00  0.00    +0.130 A 
ATOM     28  C   UNL     1      -3.674   0.798  24.241  0.00  0.00    +0.276 A 
ATOM     29  O   UNL     1      -2.964   1.037  23.520  0.00  0.00    -0.266 OA
ATOM     30  N   UNL     1      -4.033   1.515  24.434  0.00  0.00    -0.298 N 
ATOM     31  C   UNL     1      -4.441   1.957  24.729  0.00  0.00    +0.110 C 
ENDROOT
BRANCH   8   5
ATOM      1  F   UNL     1      -3.865  -1.782  25.045  0.00  0.00    -0.204 F 
ATOM      2  C   UNL     1      -3.717  -0.909  24.590  0.00  0.00    +0.140 A 
ATOM      3  C   UNL     1      -3.321  -0.194  24.970  0.00  0.00    +0.030 A 
ATOM      4  C   UNL     1      -3.129   0.665  24.651  0.00  0.00    +0.007 A 
ATOM      5  C   UNL     1      -3.322   0.904  23.886  0.00  0.00    +0.054 A 
ATOM      6  C   UNL     1      -3.697   0.380  23.371  0.00  0.00    +0.007 A 
ATOM      7  C   UNL     1      -3.880  -0.385  23.623  0.00  0.00    +0.030 A 
ENDBRANCH   8   5
BRANCH  19  20
ATOM     20  N   UNL     1      -3.466  -0.584  24.327  0.00  0.00    -0.168 NA
ATOM     21  C   UNL     1      -2.963  -0.764  25.154  0.00  0.00    +0.304 C 
ATOM     22  O   UNL     1      -2.755  -0.553  26.048  0.00  0.00    -0.265 OA
BRANCH  21  23
ATOM     23  C   UNL     1      -2.463  -1.503  24.882  0.00  0.00    +0.201 A 
ATOM     24  C   UNL     1      -1.697  -1.607  25.167  0.00  0.00    +0.046 A 
ATOM     25  C   UNL     1      -1.392  -2.300  24.837  0.00  0.00    +0.044 A 
ATOM     26  C   UNL     1      -1.972  -2.623  24.346  0.00  0.00    +0.180 A 
ATOM     27  O   UNL     1      -2.634  -2.131  24.374  0.00  0.00    -0.446 OA
ENDBRANCH  21  23
ENDBRANCH  19  20
TORSDOF 3
ENDMDL
MODEL 5
REMARK VINA RESULT:     -14.9      1.540      2.205
REMARK  Name = 
REMARK  3 active torsions:
REMARK  status: ('A' for Active; 'I' for Inactive)
REMARK    1  A    between atoms: C_5  and  C_8
REMARK    2  A    between atoms: C_19  and  N_20
REMARK    3  A    between atoms: C_21  and  C_23
REMARK                            x       y       z     vdW  Elec       q    Type
REMARK                         _______ _______ _______ _____ _____    ______ ____
ROOT
ATOM      8  C   UNL     1      -3.800   3.246  24.684  0.00  0.00    +0.249 C 
ATOM      9  O   UNL     1      -3.754   4.118  24.736  0.00  0.00    -0.270 OA
ATOM     10  N   UNL     1      -4.554   3.082  25.009  0.00  0.00    -0.276 N 
ATOM     11  C   UNL     1      -5.267   3.352  25.351  0.00  0.00    +0.096 C 
ATOM     12  C   UNL     1      -5.725   2.486  25.485  0.00  0.00    +0.043 C 
ATOM     13  C   UNL     1      -6.227   1.869  25.659  0.00  0.00    +0.011 C 
ATOM     14  C   UNL     1      -5.589   1.956  25.380  0.00  0.00    +0.058 C 
ATOM     15  C   UNL     1      -5.160   2.800  25.257  0.00  0.00    +0.099 C 
ATOM     16  C   UNL     1      -4.886   1.481  25.025  0.00  0.00    +0.041 A 
ATOM     17  C   UNL     1      -4.656   0.707  24.858  0.00  0.00    +0.014 A 
ATOM     18  C   UNL     1      -3.920   0.560  24.516  0.00  0.00    +0.023 A 
ATOM     19  C   UNL     1      -3.414   1.188  24.341  0.00  0.00    +0.130 A 
ATOM     28  C   UNL     1      -3.644   1.962  24.508  0.00  0.00    +0.276 A 
ATOM     29  O   UNL     1      -3.210   2.900  24.391  0.00  0.00    -0.266 OA
ATOM     30  N   UNL     1      -4.380   2.109  24.850  0.00  0.00    -0.298 N 
ATOM     31  C   UNL     1      -4.986   1.999  25.113  0.00  0.00    +0.110 C 
ENDROOT
BRANCH   8   5
ATOM      1  F   UNL     1      -2.211  -0.213  23.760  0.00  0.00    -0.204 F 
ATOM      2  C   UNL     1      -2.625   0.680  23.912  0.00  0.00    +0.140 A 
ATOM      3  C   UNL     1      -2.765   1.049  24.722  0.00  0.00    +0.030 A 
ATOM      4  C   UNL     1      -3.138   1.866  24.988  0.00  0.00    +0.007 A 
ATOM      5  C   UNL     1      -3.420   2.418  24.445  0.00  0.00    +0.054 A 
ATOM      6  C   UNL     1      -3.379   2.262  23.637  0.00  0.00    +0.007 A 
ATOM      7  C   UNL     1      -3.056   1.550  23.371  0.00  0.00    +0.030 A 
ENDBRANCH   8   5
BRANCH  19  20
ATOM     20  N   UNL     1      -2.621   1.162  23.983  0.00  0.00    -0.168 NA
ATOM     21  C   UNL     1      -2.158   0.708  24.723  0.00  0.00    +0.304 C 
ATOM     22  O   UNL     1      -2.172   0.315  25.579  0.00  0.00    -0.265 OA
BRANCH  21  23
ATOM     23  C   UNL     1      -1.295   0.662  24.370  0.00  0.00    +0.201 A 
ATOM     24  C   UNL     1      -0.653   0.546  24.873  0.00  0.00    +0.046 A 
ATOM     25  C   UNL     1       0.032   0.529  24.414  0.00  0.00    +0.044 A 
ATOM     26  C   UNL     1      -0.188   0.636  23.626  0.00  0.00    +0.180 A 
ATOM     27  O   UNL     1      -1.008   0.718  23.599  0.00  0.00    -0.446 OA
ENDBRANCH  21  23
ENDBRANCH  19  20
TORSDOF 3
ENDMDL
