MODEL 1
REMARK VINA RESULT:     -12.5      0.000      0.000
REMARK  Name = 
REMARK  7 active torsions:
REMARK  status: ('A' for Active; 'I' for Inactive)
REMARK    1  A    between atoms: C_5  and  C_6
REMARK    2  A    between atoms: C_6  and  C_7
REMARK    3  A    between atoms: N_12  and  C_15
REMARK    4  A    between atoms: C_23  and  C_24
REMARK    5  A    between atoms: C_24  and  N_25
REMARK    6  A    between atoms: N_25  and  S_26
REMARK    7  A    between atoms: S_26  and  C_29
REMARK                            x       y       z     vdW  Elec       q    Type
REMARK                         _______ _______ _______ _____ _____    ______ ____
ROOT
ATOM      1  O   UNL     1      -0.840   4.612  24.699  0.00  0.00    -0.218 OA
ATOM      2  C   UNL     1      -0.995   3.806  24.781  0.00  0.00    +0.213 C 
ATOM      3  C   UNL     1      -0.454   3.194  24.673  0.00  0.00    +0.212 C 
ATOM      4  O   UNL     1       0.340   3.281  24.463  0.00  0.00    -0.218 OA
ATOM      5  C   UNL     1      -0.844   2.481  24.810  0.00  0.00    +0.157 C 
ATOM     22  O   UNL     1      -1.627   2.652  25.004  0.00  0.00    -0.351 OA
ATOM     23  C   UNL     1      -1.721   3.471  24.986  0.00  0.00    +0.167 C 
ENDROOT
BRANCH   5   6
ATOM      6  C   UNL     1      -0.509   1.728  24.763  0.00  0.00    +0.117 C 
BRANCH   6   7
ATOM      7  C   UNL     1      -0.660   1.171  25.353  0.00  0.00    +0.228 C 
ATOM      8  O   UNL     1      -0.346   1.276  26.109  0.00  0.00    -0.275 OA
ATOM      9  N   UNL     1      -1.125   0.510  25.188  0.00  0.00    -0.276 N 
ATOM     10  C   UNL     1      -1.276  -0.046  25.777  0.00  0.00    +0.115 C 
ATOM     11  C   UNL     1      -1.740  -0.707  25.612  0.00  0.00    +0.112 C 
ATOM     12  N   UNL     1      -2.055  -0.812  24.857  0.00  0.00    -0.304 N 
ATOM     13  C   UNL     1      -1.904  -0.255  24.266  0.00  0.00    +0.112 C 
ATOM     14  C   UNL     1      -1.439   0.406  24.432  0.00  0.00    +0.115 C 
BRANCH  12  15
ATOM     15  C   UNL     1      -2.520  -1.474  24.691  0.00  0.00    +0.048 A 
ATOM     16  C   UNL     1      -3.335  -1.391  24.598  0.00  0.00    +0.017 A 
ATOM     17  C   UNL     1      -3.800  -2.052  24.432  0.00  0.00    +0.031 A 
ATOM     18  C   UNL     1      -3.449  -2.795  24.360  0.00  0.00    +0.140 A 
ATOM     19  F   UNL     1      -3.914  -3.456  24.194  0.00  0.00    -0.204 F 
ATOM     20  C   UNL     1      -2.634  -2.878  24.453  0.00  0.00    +0.031 A 
ATOM     21  C   UNL     1      -2.169  -2.217  24.619  0.00  0.00    +0.017 A 
ENDBRANCH  12  15
ENDBRANCH   6   7
ENDBRANCH   5   6
BRANCH  23  24
ATOM     24  C   UNL     1      -2.418   3.883  25.145  0.00  0.00    +0.148 C 
BRANCH  24  25
ATOM     25  N   UNL     1      -3.041   3.863  24.605  0.00  0.00    -0.075 NA
BRANCH  25  26
ATOM     26  S   UNL     1      -3.756   3.506  24.813  0.00  0.00    +0.077 S 
ATOM     27  O   UNL     1      -3.819   3.190  24.053  0.00  0.00    -0.152 OA
ATOM     28  O   UNL     1      -3.692   3.822  25.573  0.00  0.00    -0.152 OA
BRANCH  26  29
ATOM     29  C   UNL     1      -4.470   3.150  25.020  0.00  0.00    +0.124 A 
ATOM     30  C   UNL     1      -5.016   3.560  25.486  0.00  0.00    +0.021 A 
ATOM     31  C   UNL     1      -5.730   3.204  25.693  0.00  0.00    +0.013 A 
ATOM     32  C   UNL     1      -5.900   2.438  25.436  0.00  0.00    +0.058 A 
ATOM     33 CL   UNL     1      -6.614   2.083  25.643  0.00  0.00    -0.082 Cl
ATOM     34  C   UNL     1      -5.355   2.029  24.971  0.00  0.00    +0.013 A 
ATOM     35  C   UNL     1      -4.640   2.385  24.763  0.00  0.00    +0.021 A 
ENDBRANCH  26  29
ENDBRANCH  25  26
ENDBRANCH  24  25
ENDBRANCH  23  24
TORSDOF 7
ENDMDL
MODEL 2
REMARK VINA RESULT:     -12.4      2.036      3.745
REMARK  Name = 
REMARK  7 active torsions:
REMARK  status: ('A' for Active; 'I' for Inactive)
REMARK    1  A    between atoms: C_5  and  C_6
REMARK    2  A    between atoms: C_6  and  C_7
REMARK    3  A    between atoms: N_12  and  C_15
REMARK    4  A    between atoms: C_23  and  C_24
REMARK    5  A    between atoms: C_24  and  N_25
REMARK    6  A    between atoms: N_25  and  S_26
REMARK    7  A    between atoms: S_26  and  C_29
REMARK                            x       y       z     vdW  Elec       q    Type
REMARK                         _______ _______ _______ _____ _____    ______ ____
ROOT
ATOM      1  O   UNL     1      -5.952   3.746  26.058  0.00  0.00    -0.218 OA
ATOM      2  C   UNL     1      -5.519   3.092  25.802  0.00  0.00    +0.213 C 
ATOM      3  C   UNL     1      -5.796   2.317  25.748  0.00  0.00    +0.212 C 
ATOM      4  O   UNL     1      -6.556   2.060  25.941  0.00  0.00    -0.218 OA
ATOM      5  C   UNL     1      -5.180   1.846  25.468  0.00  0.00    +0.157 C 
ATOM     22  O   UNL     1      -4.522   2.329  25.349  0.00  0.00    -0.351 OA
ATOM     23  C   UNL     1      -4.731   3.099  25.555  0.00  0.00    +0.167 C 
ENDROOT
BRANCH   5   6
ATOM      6  C   UNL     1      -5.216   1.032  25.331  0.00  0.00    +0.117 C 
BRANCH   6   7
ATOM      7  C   UNL     1      -4.902   0.717  24.636  0.00  0.00    +0.228 C 
ATOM      8  O   UNL     1      -5.189   0.968  23.904  0.00  0.00    -0.275 OA
ATOM      9  N   UNL     1      -4.303   0.151  24.672  0.00  0.00    -0.276 N 
ATOM     10  C   UNL     1      -3.990  -0.164  23.978  0.00  0.00    +0.115 C 
ATOM     11  C   UNL     1      -3.391  -0.730  24.015  0.00  0.00    +0.112 C 
ATOM     12  N   UNL     1      -3.105  -0.981  24.747  0.00  0.00    -0.304 N 
ATOM     13  C   UNL     1      -3.418  -0.665  25.442  0.00  0.00    +0.112 C 
ATOM     14  C   UNL     1      -4.017  -0.099  25.405  0.00  0.00    +0.115 C 
BRANCH  12  15
ATOM     15  C   UNL     1      -2.505  -1.547  24.784  0.00  0.00    +0.048 A 
ATOM     16  C   UNL     1      -1.736  -1.319  24.976  0.00  0.00    +0.017 A 
ATOM     17  C   UNL     1      -1.136  -1.885  25.013  0.00  0.00    +0.031 A 
ATOM     18  C   UNL     1      -1.307  -2.677  24.859  0.00  0.00    +0.140 A 
ATOM     19  F   UNL     1      -0.707  -3.243  24.896  0.00  0.00    -0.204 F 
ATOM     20  C   UNL     1      -2.076  -2.905  24.667  0.00  0.00    +0.031 A 
ATOM     21  C   UNL     1      -2.676  -2.338  24.630  0.00  0.00    +0.017 A 
ENDBRANCH  12  15
ENDBRANCH   6   7
ENDBRANCH   5   6
BRANCH  23  24
ATOM     24  C   UNL     1      -4.240   3.760  25.520  0.00  0.00    +0.148 C 
BRANCH  24  25
ATOM     25  N   UNL     1      -3.579   3.809  26.011  0.00  0.00    -0.075 NA
BRANCH  25  26
ATOM     26  S   UNL     1      -2.862   4.089  25.712  0.00  0.00    +0.077 S 
ATOM     27  O   UNL     1      -2.468   3.786  26.371  0.00  0.00    -0.152 OA
ATOM     28  O   UNL     1      -3.256   4.392  25.053  0.00  0.00    -0.152 OA
BRANCH  26  29
ATOM     29  C   UNL     1      -2.146   4.369  25.414  0.00  0.00    +0.124 A 
ATOM     30  C   UNL     1      -2.036   5.179  25.297  0.00  0.00    +0.021 A 
ATOM     31  C   UNL     1      -1.320   5.458  24.998  0.00  0.00    +0.013 A 
ATOM     32  C   UNL     1      -0.713   4.929  24.816  0.00  0.00    +0.058 A 
ATOM     33 CL   UNL     1       0.002   5.209  24.517  0.00  0.00    -0.082 Cl
ATOM     34  C   UNL     1      -0.823   4.120  24.932  0.00  0.00    +0.013 A 
ATOM     35  C   UNL     1      -1.540   3.840  25.231  0.00  0.00    +0.021 A 
ENDBRANCH  26  29
ENDBRANCH  25  26
ENDBRANCH  24  25
ENDBRANCH  23  24
TORSDOF 7
ENDMDL
MODEL 3
REMARK VINA RESULT:     -12.3      2.364      4.747
REMARK  Name = 
REMARK  7 active torsions:
REMARK  status: ('A' for Active; 'I' for Inactive)
REMARK    1  A    between atoms: C_5  and  C_6
REMARK    2  A    between atoms: C_6  and  C_7
REMARK    3  A    between atoms: N_12  and  C_15
REMARK    4  A    between atoms: C_23  and  C_24
REMARK    5  A    between atoms: C_24  and  N_25
REMARK    6  A    between atoms: N_25  and  S_26
REMARK    7  A    between atoms: S_26  and  C_29
REMARK                            x       y       z     vdW  Elec       q    Type
REMARK                         _______ _______ _______ _____ _____    ______ ____
ROOT
ATOM      1  O   UNL     1       1.087  -0.102  23.504  0.00  0.00    -0.218 OA
ATOM      2  C   UNL     1       0.524   0.406  23.829  0.00  0.00    +0.213 C 
ATOM      3  C   UNL     1       0.582   1.227  23.879  0.00  0.00    +0.212 C 
ATOM      4  O   UNL     1       1.215   1.685  23.611  0.00  0.00    -0.218 OA
ATOM      5  C   UNL     1      -0.101   1.509  24.242  0.00  0.00    +0.157 C 
ATOM     22  O   UNL     1      -0.583   0.863  24.418  0.00  0.00    -0.351 OA
ATOM     23  C   UNL     1      -0.197   0.181  24.163  0.00  0.00    +0.167 C 
ENDROOT
BRANCH   5   6
ATOM      6  C   UNL     1      -0.274   2.301  24.403  0.00  0.00    +0.117 C 
BRANCH   6   7
ATOM      7  C   UNL     1      -0.590   2.514  25.135  0.00  0.00    +0.228 C 
ATOM      8  O   UNL     1      -0.115   2.495  25.809  0.00  0.00    -0.275 OA
ATOM      9  N   UNL     1      -1.380   2.745  25.193  0.00  0.00    -0.276 N 
ATOM     10  C   UNL     1      -1.695   2.958  25.924  0.00  0.00    +0.115 C 
ATOM     11  C   UNL     1      -2.484   3.189  25.982  0.00  0.00    +0.112 C 
ATOM     12  N   UNL     1      -2.959   3.208  25.308  0.00  0.00    -0.304 N 
ATOM     13  C   UNL     1      -2.644   2.994  24.575  0.00  0.00    +0.112 C 
ATOM     14  C   UNL     1      -1.854   2.763  24.518  0.00  0.00    +0.115 C 
BRANCH  12  15
ATOM     15  C   UNL     1      -3.750   3.439  25.365  0.00  0.00    +0.048 A 
ATOM     16  C   UNL     1      -3.942   4.240  25.401  0.00  0.00    +0.017 A 
ATOM     17  C   UNL     1      -4.733   4.472  25.458  0.00  0.00    +0.031 A 
ATOM     18  C   UNL     1      -5.328   3.902  25.479  0.00  0.00    +0.140 A 
ATOM     19  F   UNL     1      -6.118   4.133  25.537  0.00  0.00    -0.204 F 
ATOM     20  C   UNL     1      -5.136   3.101  25.443  0.00  0.00    +0.031 A 
ATOM     21  C   UNL     1      -4.345   2.869  25.386  0.00  0.00    +0.017 A 
ENDBRANCH  12  15
ENDBRANCH   6   7
ENDBRANCH   5   6
BRANCH  23  24
ATOM     24  C   UNL     1      -0.480  -0.591  24.229  0.00  0.00    +0.148 C 
BRANCH  24  25
ATOM     25  N   UNL     1      -0.974  -0.796  24.857  0.00  0.00    -0.075 NA
BRANCH  25  26
ATOM     26  S   UNL     1      -1.637  -1.268  24.722  0.00  0.00    +0.077 S 
ATOM     27  O   UNL     1      -2.093  -0.762  25.189  0.00  0.00    -0.152 OA
ATOM     28  O   UNL     1      -1.182  -1.775  24.256  0.00  0.00    -0.152 OA
BRANCH  26  29
ATOM     29  C   UNL     1      -2.300  -1.740  24.589  0.00  0.00    +0.124 A 
ATOM     30  C   UNL     1      -3.028  -1.390  24.416  0.00  0.00    +0.021 A 
ATOM     31  C   UNL     1      -3.691  -1.862  24.283  0.00  0.00    +0.013 A 
ATOM     32  C   UNL     1      -3.628  -2.684  24.321  0.00  0.00    +0.058 A 
ATOM     33 CL   UNL     1      -4.291  -3.155  24.187  0.00  0.00    -0.082 Cl
ATOM     34  C   UNL     1      -2.901  -3.034  24.493  0.00  0.00    +0.013 A 
ATOM     35  C   UNL     1      -2.237  -2.562  24.627  0.00  0.00    +0.021 A 
ENDBRANCH  26  29
ENDBRANCH  25  26
ENDBRANCH  24  25
ENDBRANCH  23  24
TORSDOF 7
ENDMDL
MODEL 4
REMARK VINA RESULT:     -12.2      3.022      4.421
REMARK  Name = 
REMARK  7 active torsions:
REMARK  status: ('A' for Active; 'I' for Inactive)
REMARK    1  A    between atoms: C_5  and  C_6
REMARK    2  A    between atoms: C_6  and  C_7
REMARK    3  A    between atoms: N_12  and  C_15
REMARK    4  A    between atoms: C_23  and  C_24
REMARK    5  A    between atoms: C_24  and  N_25
REMARK    6  A    between atoms: N_25  and  S_26
REMARK    7  A    between atoms: S_26  and  C_29
REMARK                            x       y       z     vdW  Elec       q    Type
REMARK                         _______ _______ _______ _____ _____    ______ ____
ROOT
ATOM      1  O   UNL     1      -3.734  -1.963  25.213  0.00  0.00    -0.218 OA
ATOM      2  C   UNL     1      -3.141  -1.423  25.018  0.00  0.00    +0.213 C 
ATOM      3  C   UNL     1      -2.364  -1.609  24.812  0.00  0.00    +0.212 C 
ATOM      4  O   UNL     1      -2.044  -2.368  24.765  0.00  0.00    -0.218 OA
ATOM      5  C   UNL     1      -1.965  -0.904  24.661  0.00  0.00    +0.157 C 
ATOM     22  O   UNL     1      -2.495  -0.282  24.773  0.00  0.00    -0.351 OA
ATOM     23  C   UNL     1      -3.221  -0.602  24.994  0.00  0.00    +0.167 C 
ENDROOT
BRANCH   5   6
ATOM      6  C   UNL     1      -1.174  -0.833  24.436  0.00  0.00    +0.117 C 
BRANCH   6   7
ATOM      7  C   UNL     1      -0.810  -0.092  24.434  0.00  0.00    +0.228 C 
ATOM      8  O   UNL     1      -1.170   0.545  24.817  0.00  0.00    -0.275 OA
ATOM      9  N   UNL     1      -0.089   0.013  24.048  0.00  0.00    -0.276 N 
ATOM     10  C   UNL     1       0.274   0.753  24.046  0.00  0.00    +0.115 C 
ATOM     11  C   UNL     1       0.996   0.858  23.661  0.00  0.00    +0.112 C 
ATOM     12  N   UNL     1       1.355   0.222  23.278  0.00  0.00    -0.304 N 
ATOM     13  C   UNL     1       0.992  -0.519  23.280  0.00  0.00    +0.112 C 
ATOM     14  C   UNL     1       0.270  -0.624  23.665  0.00  0.00    +0.115 C 
BRANCH  12  15
ATOM     15  C   UNL     1       2.078   0.326  22.892  0.00  0.00    +0.048 A 
ATOM     16  C   UNL     1       2.664   0.794  23.235  0.00  0.00    +0.017 A 
ATOM     17  C   UNL     1       3.386   0.898  22.849  0.00  0.00    +0.031 A 
ATOM     18  C   UNL     1       3.521   0.534  22.122  0.00  0.00    +0.140 A 
ATOM     19  F   UNL     1       4.243   0.638  21.736  0.00  0.00    -0.204 F 
ATOM     20  C   UNL     1       2.935   0.066  21.779  0.00  0.00    +0.031 A 
ATOM     21  C   UNL     1       2.212  -0.038  22.164  0.00  0.00    +0.017 A 
ENDBRANCH  12  15
ENDBRANCH   6   7
ENDBRANCH   5   6
BRANCH  23  24
ATOM     24  C   UNL     1      -3.908  -0.177  25.162  0.00  0.00    +0.148 C 
BRANCH  24  25
ATOM     25  N   UNL     1      -4.238   0.315  24.588  0.00  0.00    -0.075 NA
BRANCH  25  26
ATOM     26  S   UNL     1      -4.549   1.049  24.804  0.00  0.00    +0.077 S 
ATOM     27  O   UNL     1      -4.253   1.379  24.108  0.00  0.00    -0.152 OA
ATOM     28  O   UNL     1      -4.846   0.719  25.500  0.00  0.00    -0.152 OA
BRANCH  26  29
ATOM     29  C   UNL     1      -4.859   1.782  25.019  0.00  0.00    +0.124 A 
ATOM     30  C   UNL     1      -5.633   1.836  25.301  0.00  0.00    +0.021 A 
ATOM     31  C   UNL     1      -5.944   2.569  25.516  0.00  0.00    +0.013 A 
ATOM     32  C   UNL     1      -5.482   3.249  25.449  0.00  0.00    +0.058 A 
ATOM     33 CL   UNL     1      -5.792   3.982  25.664  0.00  0.00    -0.082 Cl
ATOM     34  C   UNL     1      -4.708   3.196  25.167  0.00  0.00    +0.013 A 
ATOM     35  C   UNL     1      -4.397   2.462  24.952  0.00  0.00    +0.021 A 
ENDBRANCH  26  29
ENDBRANCH  25  26
ENDBRANCH  24  25
ENDBRANCH  23  24
TORSDOF 7
ENDMDL
MODEL 5
REMARK VINA RESULT:     -12.0      3.489      6.056
REMARK  Name = 
REMARK  7 active torsions:
REMARK  status: ('A' for Active; 'I' for Inactive)
REMARK    1  A    between atoms: C_5  and  C_6
REMARK    2  A    between atoms: C_6  and  C_7
REMARK    3  A    between atoms: N_12  and  C_15
REMARK    4  A    between atoms: C_23  and  C_24
REMARK    5  A    between atoms: C_24  and  N_25
REMARK    6  A    between atoms: N_25  and  S_26
REMARK    7  A    between atoms: S_26  and  C_29
REMARK                            x       y       z     vdW  Elec       q    Type
REMARK                         _______ _______ _______ _____ _____    ______ ____
ROOT
ATOM      1  O   UNL     1      -0.523  -2.172  25.004  0.00  0.00    -0.218 OA
ATOM      2  C   UNL     1      -1.014  -1.543  24.794  0.00  0.00    +0.213 C 
ATOM      3  C   UNL     1      -1.822  -1.485  24.949  0.00  0.00    +0.212 C 
ATOM      4  O   UNL     1      -2.282  -2.046  25.343  0.00  0.00    -0.218 OA
ATOM      5  C   UNL     1      -2.089  -0.768  24.642  0.00  0.00    +0.157 C 
ATOM     22  O   UNL     1      -1.446  -0.382  24.297  0.00  0.00    -0.351 OA
ATOM     23  C   UNL     1      -0.782  -0.861  24.390  0.00  0.00    +0.167 C 
ENDROOT
BRANCH   5   6
ATOM      6  C   UNL     1      -2.864  -0.485  24.675  0.00  0.00    +0.117 C 
BRANCH   6   7
ATOM      7  C   UNL     1      -3.128   0.060  24.114  0.00  0.00    +0.228 C 
ATOM      8  O   UNL     1      -2.967  -0.061  23.314  0.00  0.00    -0.275 OA
ATOM      9  N   UNL     1      -3.553   0.726  24.353  0.00  0.00    -0.276 N 
ATOM     10  C   UNL     1      -3.816   1.270  23.793  0.00  0.00    +0.115 C 
ATOM     11  C   UNL     1      -4.241   1.935  24.032  0.00  0.00    +0.112 C 
ATOM     12  N   UNL     1      -4.402   2.057  24.832  0.00  0.00    -0.304 N 
ATOM     13  C   UNL     1      -4.138   1.512  25.392  0.00  0.00    +0.112 C 
ATOM     14  C   UNL     1      -3.713   0.846  25.153  0.00  0.00    +0.115 C 
BRANCH  12  15
ATOM     15  C   UNL     1      -4.827   2.723  25.071  0.00  0.00    +0.048 A 
ATOM     16  C   UNL     1      -4.485   3.471  25.018  0.00  0.00    +0.017 A 
ATOM     17  C   UNL     1      -4.910   4.137  25.258  0.00  0.00    +0.031 A 
ATOM     18  C   UNL     1      -5.676   4.053  25.550  0.00  0.00    +0.140 A 
ATOM     19  F   UNL     1      -6.101   4.718  25.790  0.00  0.00    -0.204 F 
ATOM     20  C   UNL     1      -6.019   3.305  25.604  0.00  0.00    +0.031 A 
ATOM     21  C   UNL     1      -5.594   2.639  25.364  0.00  0.00    +0.017 A 
ENDBRANCH  12  15
ENDBRANCH   6   7
ENDBRANCH   5   6
BRANCH  23  24
ATOM     24  C   UNL     1      -0.019  -0.690  24.127  0.00  0.00    +0.148 C 
BRANCH  24  25
ATOM     25  N   UNL     1       0.099  -0.098  23.565  0.00  0.00    -0.075 NA
BRANCH  25  26
ATOM     26  S   UNL     1       0.864   0.085  23.313  0.00  0.00    +0.077 S 
ATOM     27  O   UNL     1       0.800  -0.478  22.712  0.00  0.00    -0.152 OA
ATOM     28  O   UNL     1       0.927   0.647  23.914  0.00  0.00    -0.152 OA
BRANCH  26  29
ATOM     29  C   UNL     1       1.627   0.267  23.061  0.00  0.00    +0.124 A 
ATOM     30  C   UNL     1       2.024   0.916  23.382  0.00  0.00    +0.021 A 
ATOM     31  C   UNL     1       2.788   1.098  23.130  0.00  0.00    +0.013 A 
ATOM     32  C   UNL     1       3.156   0.632  22.557  0.00  0.00    +0.058 A 
ATOM     33 CL   UNL     1       3.920   0.814  22.305  0.00  0.00    -0.082 Cl
ATOM     34  C   UNL     1       2.760  -0.016  22.236  0.00  0.00    +0.013 A 
ATOM     35  C   UNL     1       1.995  -0.199  22.488  0.00  0.00    +0.021 A 
ENDBRANCH  26  29
ENDBRANCH  25  26
ENDBRANCH  24  25
ENDBRANCH  23  24
TORSDOF 7
ENDMDL
MODEL 6
REMARK VINA RESULT:     -10.0     14.348     16.205
REMARK  Name = 
REMARK  7 active torsions:
REMARK  status: ('A' for Active; 'I' for Inactive)
REMARK    1  A    between atoms: C_5  and  C_6
REMARK    2  A    between atoms: C_6  and  C_7
REMARK    3  A    between atoms: N_12  and  C_15
REMARK    4  A    between atoms: C_23  and  C_24
REMARK    5  A    between atoms: C_24  and  N_25
REMARK    6  A    between atoms: N_25  and  S_26
REMARK    7  A    between atoms: S_26  and  C_29
REMARK                            x       y       z     vdW  Elec       q    Type
REMARK                         _______ _______ _______ _____ _____    ______ ____
ROOT
ATOM      1  O   UNL     1      -1.201  -9.647  14.316  0.00  0.00    -0.218 OA
ATOM      2  C   UNL     1      -1.908 -10.031  14.503  0.00  0.00    +0.213 C 
ATOM      3  C   UNL     1      -2.214 -10.141  15.260  0.00  0.00    +0.212 C 
ATOM      4  O   UNL     1      -1.868  -9.887  15.965  0.00  0.00    -0.218 OA
ATOM      5  C   UNL     1      -2.927 -10.549  15.190  0.00  0.00    +0.157 C 
ATOM     22  O   UNL     1      -3.061 -10.691  14.388  0.00  0.00    -0.351 OA
ATOM     23  C   UNL     1      -2.432 -10.371  13.963  0.00  0.00    +0.167 C 
ENDROOT
BRANCH   5   6
ATOM      6  C   UNL     1      -3.420 -10.776  15.812  0.00  0.00    +0.117 C 
BRANCH   6   7
ATOM      7  C   UNL     1      -4.237 -10.681  15.747  0.00  0.00    +0.228 C 
ATOM      8  O   UNL     1      -4.582 -10.585  15.004  0.00  0.00    -0.275 OA
ATOM      9  N   UNL     1      -4.708 -10.683  16.423  0.00  0.00    -0.276 N 
ATOM     10  C   UNL     1      -5.525 -10.588  16.358  0.00  0.00    +0.115 C 
ATOM     11  C   UNL     1      -5.996 -10.590  17.035  0.00  0.00    +0.112 C 
ATOM     12  N   UNL     1      -5.651 -10.686  17.778  0.00  0.00    -0.304 N 
ATOM     13  C   UNL     1      -4.833 -10.781  17.843  0.00  0.00    +0.112 C 
ATOM     14  C   UNL     1      -4.362 -10.779  17.167  0.00  0.00    +0.115 C 
BRANCH  12  15
ATOM     15  C   UNL     1      -6.122 -10.688  18.456  0.00  0.00    +0.048 A 
ATOM     16  C   UNL     1      -6.943 -10.709  18.386  0.00  0.00    +0.017 A 
ATOM     17  C   UNL     1      -7.415 -10.710  19.064  0.00  0.00    +0.031 A 
ATOM     18  C   UNL     1      -7.063 -10.691  19.809  0.00  0.00    +0.140 A 
ATOM     19  F   UNL     1      -7.535 -10.693  20.487  0.00  0.00    -0.204 F 
ATOM     20  C   UNL     1      -6.242 -10.671  19.880  0.00  0.00    +0.031 A 
ATOM     21  C   UNL     1      -5.771 -10.669  19.202  0.00  0.00    +0.017 A 
ENDBRANCH  12  15
ENDBRANCH   6   7
ENDBRANCH   5   6
BRANCH  23  24
ATOM     24  C   UNL     1      -2.341 -10.387  13.144  0.00  0.00    +0.148 C 
BRANCH  24  25
ATOM     25  N   UNL     1      -2.922 -10.734  12.672  0.00  0.00    -0.075 NA
BRANCH  25  26
ATOM     26  S   UNL     1      -3.075 -10.434  11.919  0.00  0.00    +0.077 S 
ATOM     27  O   UNL     1      -2.266 -10.333  11.794  0.00  0.00    -0.152 OA
ATOM     28  O   UNL     1      -3.885 -10.535  12.043  0.00  0.00    -0.152 OA
BRANCH  26  29
ATOM     29  C   UNL     1      -3.228 -10.134  11.166  0.00  0.00    +0.124 A 
ATOM     30  C   UNL     1      -3.634 -10.594  10.613  0.00  0.00    +0.021 A 
ATOM     31  C   UNL     1      -3.786 -10.294   9.860  0.00  0.00    +0.013 A 
ATOM     32  C   UNL     1      -3.534  -9.534   9.659  0.00  0.00    +0.058 A 
ATOM     33 CL   UNL     1      -3.687  -9.235   8.906  0.00  0.00    -0.082 Cl
ATOM     34  C   UNL     1      -3.129  -9.075  10.211  0.00  0.00    +0.013 A 
ATOM     35  C   UNL     1      -2.976  -9.375  10.965  0.00  0.00    +0.021 A 
ENDBRANCH  26  29
ENDBRANCH  25  26
ENDBRANCH  24  25
ENDBRANCH  23  24
TORSDOF 7
ENDMDL
MODEL 7
REMARK VINA RESULT:      -9.5     15.366     16.704
REMARK  Name = 
REMARK  7 active torsions:
REMARK  status: ('A' for Active; 'I' for Inactive)
REMARK    1  A    between atoms: C_5  and  C_6
REMARK    2  A    between atoms: C_6  and  C_7
REMARK    3  A    between atoms: N_12  and  C_15
REMARK    4  A    between atoms: C_23  and  C_24
REMARK    5  A    between atoms: C_24  and  N_25
REMARK    6  A    between atoms: N_25  and  S_26
REMARK    7  A    between atoms: S_26  and  C_29
REMARK                            x       y       z     vdW  Elec       q    Type
REMARK                         _______ _______ _______ _____ _____    ______ ____
ROOT
ATOM      1  O   UNL     1      -3.348 -10.447  14.107  0.00  0.00    -0.218 OA
ATOM      2  C   UNL     1      -4.156 -10.468  14.274  0.00  0.00    +0.213 C 
ATOM      3  C   UNL     1      -4.495 -10.512  15.024  0.00  0.00    +0.212 C 
ATOM      4  O   UNL     1      -4.087 -10.542  15.740  0.00  0.00    -0.218 OA
ATOM      5  C   UNL     1      -5.315 -10.520  14.933  0.00  0.00    +0.157 C 
ATOM     22  O   UNL     1      -5.482 -10.482  14.126  0.00  0.00    -0.351 OA
ATOM     23  C   UNL     1      -4.766 -10.449  13.718  0.00  0.00    +0.167 C 
ENDROOT
BRANCH   5   6
ATOM      6  C   UNL     1      -5.870 -10.560  15.542  0.00  0.00    +0.117 C 
BRANCH   6   7
ATOM      7  C   UNL     1      -6.556 -10.103  15.506  0.00  0.00    +0.228 C 
ATOM      8  O   UNL     1      -6.679  -9.595  14.867  0.00  0.00    -0.275 OA
ATOM      9  N   UNL     1      -7.118 -10.152  16.107  0.00  0.00    -0.276 N 
ATOM     10  C   UNL     1      -7.803  -9.695  16.071  0.00  0.00    +0.115 C 
ATOM     11  C   UNL     1      -8.365  -9.745  16.672  0.00  0.00    +0.112 C 
ATOM     12  N   UNL     1      -8.243 -10.253  17.311  0.00  0.00    -0.304 N 
ATOM     13  C   UNL     1      -7.557 -10.710  17.347  0.00  0.00    +0.112 C 
ATOM     14  C   UNL     1      -6.995 -10.661  16.746  0.00  0.00    +0.115 C 
BRANCH  12  15
ATOM     15  C   UNL     1      -8.805 -10.303  17.913  0.00  0.00    +0.048 A 
ATOM     16  C   UNL     1      -8.593 -10.610  18.649  0.00  0.00    +0.017 A 
ATOM     17  C   UNL     1      -9.156 -10.660  19.251  0.00  0.00    +0.031 A 
ATOM     18  C   UNL     1      -9.928 -10.404  19.116  0.00  0.00    +0.140 A 
ATOM     19  F   UNL     1     -10.490 -10.454  19.719  0.00  0.00    -0.204 F 
ATOM     20  C   UNL     1     -10.139 -10.097  18.381  0.00  0.00    +0.031 A 
ATOM     21  C   UNL     1      -9.577 -10.046  17.779  0.00  0.00    +0.017 A 
ENDBRANCH  12  15
ENDBRANCH   6   7
ENDBRANCH   5   6
BRANCH  23  24
ATOM     24  C   UNL     1      -4.675 -10.406  12.900  0.00  0.00    +0.148 C 
BRANCH  24  25
ATOM     25  N   UNL     1      -5.110  -9.856  12.466  0.00  0.00    -0.075 NA
BRANCH  25  26
ATOM     26  S   UNL     1      -5.025  -9.818  11.645  0.00  0.00    +0.077 S 
ATOM     27  O   UNL     1      -4.989 -10.642  11.611  0.00  0.00    -0.152 OA
ATOM     28  O   UNL     1      -5.061  -8.994  11.680  0.00  0.00    -0.152 OA
BRANCH  26  29
ATOM     29  C   UNL     1      -4.940  -9.780  10.826  0.00  0.00    +0.124 A 
ATOM     30  C   UNL     1      -4.436  -9.220  10.489  0.00  0.00    +0.021 A 
ATOM     31  C   UNL     1      -4.351  -9.182   9.670  0.00  0.00    +0.013 A 
ATOM     32  C   UNL     1      -4.770  -9.703   9.186  0.00  0.00    +0.058 A 
ATOM     33 CL   UNL     1      -4.685  -9.665   8.367  0.00  0.00    -0.082 Cl
ATOM     34  C   UNL     1      -5.274 -10.262   9.523  0.00  0.00    +0.013 A 
ATOM     35  C   UNL     1      -5.359 -10.301  10.343  0.00  0.00    +0.021 A 
ENDBRANCH  26  29
ENDBRANCH  25  26
ENDBRANCH  24  25
ENDBRANCH  23  24
TORSDOF 7
ENDMDL
MODEL 8
REMARK VINA RESULT:      -8.7     17.717     19.424
REMARK  Name = 
REMARK  7 active torsions:
REMARK  status: ('A' for Active; 'I' for Inactive)
REMARK    1  A    between atoms: C_5  and  C_6
REMARK    2  A    between atoms: C_6  and  C_7
REMARK    3  A    between atoms: N_12  and  C_15
REMARK    4  A    between atoms: C_23  and  C_24
REMARK    5  A    between atoms: C_24  and  N_25
REMARK    6  A    between atoms: N_25  and  S_26
REMARK    7  A    between atoms: S_26  and  C_29
REMARK                            x       y       z     vdW  Elec       q    Type
REMARK                         _______ _______ _______ _____ _____    ______ ____
ROOT
ATOM      1  O   UNL     1      13.089  -4.956  32.122  0.00  0.00    -0.218 OA
ATOM      2  C   UNL     1      13.374  -5.491  31.562  0.00  0.00    +0.213 C 
ATOM      3  C   UNL     1      14.018  -5.372  31.061  0.00  0.00    +0.212 C 
ATOM      4  O   UNL     1      14.492  -4.696  31.032  0.00  0.00    -0.218 OA
ATOM      5  C   UNL     1      14.106  -6.045  30.594  0.00  0.00    +0.157 C 
ATOM     22  O   UNL     1      13.515  -6.581  30.806  0.00  0.00    -0.351 OA
ATOM     23  C   UNL     1      13.063  -6.239  31.404  0.00  0.00    +0.167 C 
ENDROOT
BRANCH   5   6
ATOM      6  C   UNL     1      14.683  -6.163  30.015  0.00  0.00    +0.117 C 
BRANCH   6   7
ATOM      7  C   UNL     1      15.008  -6.913  29.904  0.00  0.00    +0.228 C 
ATOM      8  O   UNL     1      15.081  -7.430  30.543  0.00  0.00    -0.275 OA
ATOM      9  N   UNL     1      15.260  -7.147  29.154  0.00  0.00    -0.276 N 
ATOM     10  C   UNL     1      15.586  -7.896  29.043  0.00  0.00    +0.115 C 
ATOM     11  C   UNL     1      15.838  -8.130  28.293  0.00  0.00    +0.112 C 
ATOM     12  N   UNL     1      15.765  -7.613  27.654  0.00  0.00    -0.304 N 
ATOM     13  C   UNL     1      15.439  -6.863  27.765  0.00  0.00    +0.112 C 
ATOM     14  C   UNL     1      15.187  -6.630  28.515  0.00  0.00    +0.115 C 
BRANCH  12  15
ATOM     15  C   UNL     1      16.017  -7.847  26.903  0.00  0.00    +0.048 A 
ATOM     16  C   UNL     1      15.542  -8.342  26.445  0.00  0.00    +0.017 A 
ATOM     17  C   UNL     1      15.795  -8.575  25.695  0.00  0.00    +0.031 A 
ATOM     18  C   UNL     1      16.520  -8.312  25.404  0.00  0.00    +0.140 A 
ATOM     19  F   UNL     1      16.772  -8.546  24.653  0.00  0.00    -0.204 F 
ATOM     20  C   UNL     1      16.994  -7.817  25.861  0.00  0.00    +0.031 A 
ATOM     21  C   UNL     1      16.742  -7.584  26.612  0.00  0.00    +0.017 A 
ENDBRANCH  12  15
ENDBRANCH   6   7
ENDBRANCH   5   6
BRANCH  23  24
ATOM     24  C   UNL     1      12.414  -6.583  31.778  0.00  0.00    +0.148 C 
BRANCH  24  25
ATOM     25  N   UNL     1      12.186  -7.352  31.584  0.00  0.00    -0.075 NA
BRANCH  25  26
ATOM     26  S   UNL     1      11.459  -7.644  31.843  0.00  0.00    +0.077 S 
ATOM     27  O   UNL     1      11.122  -7.451  31.114  0.00  0.00    -0.152 OA
ATOM     28  O   UNL     1      11.795  -7.837  32.571  0.00  0.00    -0.152 OA
BRANCH  26  29
ATOM     29  C   UNL     1      10.732  -7.936  32.100  0.00  0.00    +0.124 A 
ATOM     30  C   UNL     1      10.494  -8.698  31.888  0.00  0.00    +0.021 A 
ATOM     31  C   UNL     1       9.767  -8.990  32.146  0.00  0.00    +0.013 A 
ATOM     32  C   UNL     1       9.277  -8.521  32.616  0.00  0.00    +0.058 A 
ATOM     33 CL   UNL     1       8.550  -8.813  32.873  0.00  0.00    -0.082 Cl
ATOM     34  C   UNL     1       9.514  -7.760  32.828  0.00  0.00    +0.013 A 
ATOM     35  C   UNL     1      10.241  -7.467  32.570  0.00  0.00    +0.021 A 
ENDBRANCH  26  29
ENDBRANCH  25  26
ENDBRANCH  24  25
ENDBRANCH  23  24
TORSDOF 7
ENDMDL
MODEL 9
REMARK VINA RESULT:      -8.7     17.529     18.895
REMARK  Name = 
REMARK  7 active torsions:
REMARK  status: ('A' for Active; 'I' for Inactive)
REMARK    1  A    between atoms: C_5  and  C_6
REMARK    2  A    between atoms: C_6  and  C_7
REMARK    3  A    between atoms: N_12  and  C_15
REMARK    4  A    between atoms: C_23  and  C_24
REMARK    5  A    between atoms: C_24  and  N_25
REMARK    6  A    between atoms: N_25  and  S_26
REMARK    7  A    between atoms: S_26  and  C_29
REMARK                            x       y       z     vdW  Elec       q    Type
REMARK                         _______ _______ _______ _____ _____    ______ ____
ROOT
ATOM      1  O   UNL     1      -4.959 -10.776  13.441  0.00  0.00    -0.218 OA
ATOM      2  C   UNL     1      -5.284 -10.583  12.708  0.00  0.00    +0.213 C 
ATOM      3  C   UNL     1      -6.086 -10.585  12.517  0.00  0.00    +0.212 C 
ATOM      4  O   UNL     1      -6.705 -10.781  13.026  0.00  0.00    -0.218 OA
ATOM      5  C   UNL     1      -6.161 -10.358  11.727  0.00  0.00    +0.157 C 
ATOM     22  O   UNL     1      -5.404 -10.216  11.430  0.00  0.00    -0.351 OA
ATOM     23  C   UNL     1      -4.862 -10.354  12.036  0.00  0.00    +0.167 C 
ENDROOT
BRANCH   5   6
ATOM      6  C   UNL     1      -6.868 -10.286  11.308  0.00  0.00    +0.117 C 
BRANCH   6   7
ATOM      7  C   UNL     1      -6.853 -10.160  10.492  0.00  0.00    +0.228 C 
ATOM      8  O   UNL     1      -6.345 -10.602  10.016  0.00  0.00    -0.275 OA
ATOM      9  N   UNL     1      -7.346  -9.592  10.154  0.00  0.00    -0.276 N 
ATOM     10  C   UNL     1      -7.331  -9.465   9.339  0.00  0.00    +0.115 C 
ATOM     11  C   UNL     1      -7.824  -8.897   9.001  0.00  0.00    +0.112 C 
ATOM     12  N   UNL     1      -8.332  -8.455   9.477  0.00  0.00    -0.304 N 
ATOM     13  C   UNL     1      -8.347  -8.582  10.292  0.00  0.00    +0.112 C 
ATOM     14  C   UNL     1      -7.854  -9.150  10.631  0.00  0.00    +0.115 C 
BRANCH  12  15
ATOM     15  C   UNL     1      -8.825  -7.886   9.138  0.00  0.00    +0.048 A 
ATOM     16  C   UNL     1      -8.498  -7.231   8.759  0.00  0.00    +0.017 A 
ATOM     17  C   UNL     1      -8.992  -6.662   8.420  0.00  0.00    +0.031 A 
ATOM     18  C   UNL     1      -9.811  -6.750   8.462  0.00  0.00    +0.140 A 
ATOM     19  F   UNL     1     -10.304  -6.181   8.124  0.00  0.00    -0.204 F 
ATOM     20  C   UNL     1     -10.138  -7.405   8.841  0.00  0.00    +0.031 A 
ATOM     21  C   UNL     1      -9.644  -7.974   9.180  0.00  0.00    +0.017 A 
ENDBRANCH  12  15
ENDBRANCH   6   7
ENDBRANCH   5   6
BRANCH  23  24
ATOM     24  C   UNL     1      -4.043 -10.278  11.980  0.00  0.00    +0.148 C 
BRANCH  24  25
ATOM     25  N   UNL     1      -3.692 -10.131  11.249  0.00  0.00    -0.075 NA
BRANCH  25  26
ATOM     26  S   UNL     1      -2.909  -9.870  11.212  0.00  0.00    +0.077 S 
ATOM     27  O   UNL     1      -2.706 -10.541  10.775  0.00  0.00    -0.152 OA
ATOM     28  O   UNL     1      -3.112  -9.200  11.649  0.00  0.00    -0.152 OA
BRANCH  26  29
ATOM     29  C   UNL     1      -2.128  -9.610  11.175  0.00  0.00    +0.124 A 
ATOM     30  C   UNL     1      -1.570  -9.900  11.710  0.00  0.00    +0.021 A 
ATOM     31  C   UNL     1      -0.789  -9.640  11.673  0.00  0.00    +0.013 A 
ATOM     32  C   UNL     1      -0.563  -9.090  11.102  0.00  0.00    +0.058 A 
ATOM     33 CL   UNL     1       0.219  -8.830  11.065  0.00  0.00    -0.082 Cl
ATOM     34  C   UNL     1      -1.119  -8.800  10.566  0.00  0.00    +0.013 A 
ATOM     35  C   UNL     1      -1.902  -9.060  10.603  0.00  0.00    +0.021 A 
ENDBRANCH  26  29
ENDBRANCH  25  26
ENDBRANCH  24  25
ENDBRANCH  23  24
TORSDOF 7
ENDMDL
