MODEL 1
REMARK VINA RESULT:     -11.6      0.000      0.000
REMARK  Name = 
REMARK  4 active torsions:
REMARK  status: ('A' for Active; 'I' for Inactive)
REMARK    1  A    between atoms: C_4  and  C_6
REMARK    2  A    between atoms: C_8  and  C_11
REMARK    3  A    between atoms: C_14  and  O_15
REMARK    4  A    between atoms: O_15  and  C_16
REMARK                            x       y       z     vdW  Elec       q    Type
REMARK                         _______ _______ _______ _____ _____    ______ ____
ROOT
ATOM     11  C   UNL     1      -3.752   1.589  24.385  0.00  0.00    +0.058 A 
ATOM     12  C   UNL     1      -4.292   1.341  24.957  0.00  0.00    +0.010 A 
ATOM     13  C   UNL     1      -4.573   0.564  24.948  0.00  0.00    +0.058 A 
ATOM     14  C   UNL     1      -4.315   0.038  24.369  0.00  0.00    +0.225 A 
ATOM     22  N   UNL     1      -3.774   0.287  23.797  0.00  0.00    -0.210 NA
ATOM     23  C   UNL     1      -3.493   1.063  23.805  0.00  0.00    +0.105 A 
ENDROOT
BRANCH  11   8
ATOM      6  C   UNL     1      -2.692   3.432  24.589  0.00  0.00    +0.252 A 
ATOM      7  N   UNL     1      -2.744   2.614  24.695  0.00  0.00    -0.190 NA
ATOM      8  C   UNL     1      -3.471   2.365  24.393  0.00  0.00    +0.205 A 
ATOM      9  N   UNL     1      -3.867   3.027  24.102  0.00  0.00    -0.056 NA
ATOM     10  O   UNL     1      -3.385   3.686  24.223  0.00  0.00    -0.336 OA
BRANCH   6   4
ATOM      1  C   UNL     1      -1.343   4.923  25.303  0.00  0.00    +0.021 C 
ATOM      2  C   UNL     1      -0.817   4.363  25.003  0.00  0.00    +0.089 C 
ATOM      3  N   UNL     1      -1.258   3.736  24.699  0.00  0.00    -0.210 NA
ATOM      4  C   UNL     1      -2.058   3.909  24.811  0.00  0.00    +0.151 C 
ATOM      5  C   UNL     1      -2.110   4.642  25.185  0.00  0.00    +0.028 C 
ENDBRANCH   6   4
ENDBRANCH  11   8
BRANCH  14  15
ATOM     15  O   UNL     1      -4.596  -0.738  24.360  0.00  0.00    -0.464 OA
BRANCH  15  16
ATOM     16  C   UNL     1      -4.093  -1.361  24.562  0.00  0.00    +0.168 C 
ATOM     17  C   UNL     1      -3.886  -1.923  23.995  0.00  0.00    +0.044 C 
ATOM     18  C   UNL     1      -3.384  -2.546  24.196  0.00  0.00    +0.004 C 
ATOM     19  C   UNL     1      -3.089  -2.607  24.964  0.00  0.00    +0.000 C 
ATOM     20  C   UNL     1      -3.297  -2.044  25.531  0.00  0.00    +0.004 C 
ATOM     21  C   UNL     1      -3.799  -1.422  25.329  0.00  0.00    +0.044 C 
ENDBRANCH  15  16
ENDBRANCH  14  15
TORSDOF 4
ENDMDL
MODEL 2
REMARK VINA RESULT:     -10.7      0.964      5.044
REMARK  Name = 
REMARK  4 active torsions:
REMARK  status: ('A' for Active; 'I' for Inactive)
REMARK    1  A    between atoms: C_4  and  C_6
REMARK    2  A    between atoms: C_8  and  C_11
REMARK    3  A    between atoms: C_14  and  O_15
REMARK    4  A    between atoms: O_15  and  C_16
REMARK                            x       y       z     vdW  Elec       q    Type
REMARK                         _______ _______ _______ _____ _____    ______ ____
ROOT
ATOM     11  C   UNL     1      -4.036   0.893  24.391  0.00  0.00    +0.058 A 
ATOM     12  C   UNL     1      -4.491   1.286  24.955  0.00  0.00    +0.010 A 
ATOM     13  C   UNL     1      -4.465   2.110  25.004  0.00  0.00    +0.058 A 
ATOM     14  C   UNL     1      -3.986   2.539  24.490  0.00  0.00    +0.225 A 
ATOM     22  N   UNL     1      -3.530   2.145  23.925  0.00  0.00    -0.210 NA
ATOM     23  C   UNL     1      -3.555   1.322  23.876  0.00  0.00    +0.105 A 
ENDROOT
BRANCH  11   8
ATOM      6  C   UNL     1      -3.700  -1.216  24.360  0.00  0.00    +0.252 A 
ATOM      7  N   UNL     1      -3.427  -0.444  24.465  0.00  0.00    -0.190 NA
ATOM      8  C   UNL     1      -4.061   0.069  24.342  0.00  0.00    +0.205 A 
ATOM      9  N   UNL     1      -4.726  -0.385  24.161  0.00  0.00    -0.056 NA
ATOM     10  O   UNL     1      -4.502  -1.179  24.173  0.00  0.00    -0.336 OA
BRANCH   6   4
ATOM      1  C   UNL     1      -2.900  -3.187  24.535  0.00  0.00    +0.021 C 
ATOM      2  C   UNL     1      -2.210  -2.734  24.545  0.00  0.00    +0.089 C 
ATOM      3  N   UNL     1      -2.426  -1.940  24.480  0.00  0.00    -0.210 NA
ATOM      4  C   UNL     1      -3.250  -1.902  24.431  0.00  0.00    +0.151 C 
ATOM      5  C   UNL     1      -3.542  -2.673  24.465  0.00  0.00    +0.028 C 
ENDBRANCH   6   4
ENDBRANCH  11   8
BRANCH  14  15
ATOM     15  O   UNL     1      -3.960   3.362  24.539  0.00  0.00    -0.464 OA
BRANCH  15  16
ATOM     16  C   UNL     1      -3.373   3.731  24.987  0.00  0.00    +0.168 C 
ATOM     17  C   UNL     1      -2.667   3.963  24.629  0.00  0.00    +0.044 C 
ATOM     18  C   UNL     1      -2.080   4.332  25.077  0.00  0.00    +0.004 C 
ATOM     19  C   UNL     1      -2.199   4.468  25.882  0.00  0.00    +0.000 C 
ATOM     20  C   UNL     1      -2.906   4.236  26.239  0.00  0.00    +0.004 C 
ATOM     21  C   UNL     1      -3.493   3.868  25.791  0.00  0.00    +0.044 C 
ENDBRANCH  15  16
ENDBRANCH  14  15
TORSDOF 4
ENDMDL
MODEL 3
REMARK VINA RESULT:     -10.5      2.079      2.399
REMARK  Name = 
REMARK  4 active torsions:
REMARK  status: ('A' for Active; 'I' for Inactive)
REMARK    1  A    between atoms: C_4  and  C_6
REMARK    2  A    between atoms: C_8  and  C_11
REMARK    3  A    between atoms: C_14  and  O_15
REMARK    4  A    between atoms: O_15  and  C_16
REMARK                            x       y       z     vdW  Elec       q    Type
REMARK                         _______ _______ _______ _____ _____    ______ ____
ROOT
ATOM     11  C   UNL     1      -0.862   0.787  25.023  0.00  0.00    +0.058 A 
ATOM     12  C   UNL     1      -1.037   0.448  25.754  0.00  0.00    +0.010 A 
ATOM     13  C   UNL     1      -1.218  -0.356  25.802  0.00  0.00    +0.058 A 
ATOM     14  C   UNL     1      -1.223  -0.819  25.120  0.00  0.00    +0.225 A 
ATOM     22  N   UNL     1      -1.048  -0.479  24.388  0.00  0.00    -0.210 NA
ATOM     23  C   UNL     1      -0.867   0.325  24.340  0.00  0.00    +0.105 A 
ENDROOT
BRANCH  11   8
ATOM      6  C   UNL     1      -0.789   2.922  25.008  0.00  0.00    +0.252 A 
ATOM      7  N   UNL     1      -1.202   2.216  25.119  0.00  0.00    -0.190 NA
ATOM      8  C   UNL     1      -0.681   1.591  24.976  0.00  0.00    +0.205 A 
ATOM      9  N   UNL     1       0.053   1.912  24.777  0.00  0.00    -0.056 NA
ATOM     10  O   UNL     1      -0.015   2.735  24.797  0.00  0.00    -0.336 OA
BRANCH   6   4
ATOM      1  C   UNL     1      -1.239   5.008  25.045  0.00  0.00    +0.021 C 
ATOM      2  C   UNL     1      -1.910   4.694  25.406  0.00  0.00    +0.089 C 
ATOM      3  N   UNL     1      -1.824   3.874  25.436  0.00  0.00    -0.210 NA
ATOM      4  C   UNL     1      -1.098   3.681  25.093  0.00  0.00    +0.151 C 
ATOM      5  C   UNL     1      -0.737   4.382  24.852  0.00  0.00    +0.028 C 
ENDBRANCH   6   4
ENDBRANCH  11   8
BRANCH  14  15
ATOM     15  O   UNL     1      -1.404  -1.623  25.167  0.00  0.00    -0.464 OA
BRANCH  15  16
ATOM     16  C   UNL     1      -2.167  -1.886  24.991  0.00  0.00    +0.168 C 
ATOM     17  C   UNL     1      -2.300  -2.338  24.315  0.00  0.00    +0.044 C 
ATOM     18  C   UNL     1      -3.063  -2.601  24.139  0.00  0.00    +0.004 C 
ATOM     19  C   UNL     1      -3.690  -2.411  24.639  0.00  0.00    +0.000 C 
ATOM     20  C   UNL     1      -3.556  -1.958  25.316  0.00  0.00    +0.004 C 
ATOM     21  C   UNL     1      -2.794  -1.695  25.491  0.00  0.00    +0.044 C 
ENDBRANCH  15  16
ENDBRANCH  14  15
TORSDOF 4
ENDMDL
MODEL 4
REMARK VINA RESULT:     -10.5      2.158      5.558
REMARK  Name = 
REMARK  4 active torsions:
REMARK  status: ('A' for Active; 'I' for Inactive)
REMARK    1  A    between atoms: C_4  and  C_6
REMARK    2  A    between atoms: C_8  and  C_11
REMARK    3  A    between atoms: C_14  and  O_15
REMARK    4  A    between atoms: O_15  and  C_16
REMARK                            x       y       z     vdW  Elec       q    Type
REMARK                         _______ _______ _______ _____ _____    ______ ____
ROOT
ATOM     11  C   UNL     1      -1.021   0.558  24.911  0.00  0.00    +0.058 A 
ATOM     12  C   UNL     1      -0.969   0.802  25.697  0.00  0.00    +0.010 A 
ATOM     13  C   UNL     1      -0.706   1.564  25.875  0.00  0.00    +0.058 A 
ATOM     14  C   UNL     1      -0.496   2.081  25.268  0.00  0.00    +0.225 A 
ATOM     22  N   UNL     1      -0.549   1.836  24.481  0.00  0.00    -0.210 NA
ATOM     23  C   UNL     1      -0.811   1.074  24.303  0.00  0.00    +0.105 A 
ENDROOT
BRANCH  11   8
ATOM      6  C   UNL     1      -2.077  -1.257  24.521  0.00  0.00    +0.252 A 
ATOM      7  N   UNL     1      -2.069  -0.458  24.729  0.00  0.00    -0.190 NA
ATOM      8  C   UNL     1      -1.283  -0.204  24.733  0.00  0.00    +0.205 A 
ATOM      9  N   UNL     1      -0.807  -0.845  24.527  0.00  0.00    -0.056 NA
ATOM     10  O   UNL     1      -1.297  -1.496  24.397  0.00  0.00    -0.336 OA
BRANCH   6   4
ATOM      1  C   UNL     1      -3.989  -2.145  24.190  0.00  0.00    +0.021 C 
ATOM      2  C   UNL     1      -3.567  -2.785  24.494  0.00  0.00    +0.089 C 
ATOM      3  N   UNL     1      -2.798  -2.530  24.655  0.00  0.00    -0.210 NA
ATOM      4  C   UNL     1      -2.746  -1.732  24.451  0.00  0.00    +0.151 C 
ATOM      5  C   UNL     1      -3.482  -1.494  24.164  0.00  0.00    +0.028 C 
ENDBRANCH   6   4
ENDBRANCH  11   8
BRANCH  14  15
ATOM     15  O   UNL     1      -0.234   2.843  25.446  0.00  0.00    -0.464 OA
BRANCH  15  16
ATOM     16  C   UNL     1      -0.749   3.484  25.375  0.00  0.00    +0.168 C 
ATOM     17  C   UNL     1      -0.584   4.087  24.837  0.00  0.00    +0.044 C 
ATOM     18  C   UNL     1      -1.099   4.728  24.766  0.00  0.00    +0.004 C 
ATOM     19  C   UNL     1      -1.778   4.765  25.232  0.00  0.00    +0.000 C 
ATOM     20  C   UNL     1      -1.942   4.162  25.771  0.00  0.00    +0.004 C 
ATOM     21  C   UNL     1      -1.427   3.522  25.842  0.00  0.00    +0.044 C 
ENDBRANCH  15  16
ENDBRANCH  14  15
TORSDOF 4
ENDMDL
