MODEL 1
REMARK VINA RESULT:     -11.7      0.000      0.000
REMARK  Name = 
REMARK  7 active torsions:
REMARK  status: ('A' for Active; 'I' for Inactive)
REMARK    1  A    between atoms: C_3  and  C_4
REMARK    2  A    between atoms: C_4  and  N_5
REMARK    3  A    between atoms: C_9  and  C_22
REMARK    4  A    between atoms: C_11  and  C_12
REMARK    5  A    between atoms: C_12  and  C_13
REMARK    6  A    between atoms: N_24  and  C_25
REMARK    7  A    between atoms: C_25  and  C_26
REMARK                            x       y       z     vdW  Elec       q    Type
REMARK                         _______ _______ _______ _____ _____    ______ ____
ROOT
ATOM      5  N   UNL     1      -3.225   2.784  24.972  0.00  0.00    -0.315 N 
ATOM      6  C   UNL     1      -2.487   2.417  24.952  0.00  0.00    +0.072 A 
ATOM      7  C   UNL     1      -2.608   1.601  24.931  0.00  0.00    -0.002 A 
ATOM      8  C   UNL     1      -1.993   1.051  24.907  0.00  0.00    +0.055 C 
ATOM      9  C   UNL     1      -2.041   0.227  24.884  0.00  0.00    +0.155 C 
ATOM     10  N   UNL     1      -2.715  -0.249  24.879  0.00  0.00    -0.207 NA
ATOM     11  C   UNL     1      -3.507  -0.020  24.896  0.00  0.00    +0.095 C 
ATOM     16  C   UNL     1      -3.821   0.742  24.922  0.00  0.00    -0.005 A 
ATOM     17  C   UNL     1      -4.688   0.803  24.935  0.00  0.00    -0.003 A 
ATOM     18  C   UNL     1      -5.070   1.534  24.961  0.00  0.00    +0.001 A 
ATOM     19  C   UNL     1      -4.627   2.229  24.975  0.00  0.00    +0.017 A 
ATOM     20  C   UNL     1      -3.803   2.195  24.963  0.00  0.00    +0.060 A 
ATOM     21  C   UNL     1      -3.422   1.464  24.937  0.00  0.00    +0.011 A 
ENDROOT
BRANCH   9  22
ATOM     22  C   UNL     1      -1.320  -0.172  24.863  0.00  0.00    +0.258 C 
ATOM     23  O   UNL     1      -1.056  -0.580  25.530  0.00  0.00    -0.272 OA
ATOM     24  N   UNL     1      -0.863  -0.163  24.177  0.00  0.00    -0.190 NA
BRANCH  24  25
ATOM     25  C   UNL     1      -0.142  -0.563  24.156  0.00  0.00    +0.191 C 
BRANCH  25  26
ATOM     26  C   UNL     1       0.393  -0.418  23.545  0.00  0.00    -0.054 C 
ATOM     27  C   UNL     1       0.928  -0.273  22.934  0.00  0.00    -0.012 C 
ENDBRANCH  25  26
ENDBRANCH  24  25
ENDBRANCH   9  22
BRANCH   5   4
ATOM      4  C   UNL     1      -3.362   3.597  24.997  0.00  0.00    +0.183 C 
BRANCH   4   3
ATOM      1  C   UNL     1      -1.458   5.167  25.178  0.00  0.00    +0.090 C 
ATOM      2  C   UNL     1      -2.093   4.644  25.118  0.00  0.00    -0.088 C 
ATOM      3  C   UNL     1      -2.728   4.121  25.058  0.00  0.00    -0.066 C 
ENDBRANCH   4   3
ENDBRANCH   5   4
BRANCH  11  12
ATOM     12  C   UNL     1      -4.058  -0.634  24.886  0.00  0.00    +0.022 C 
BRANCH  12  13
ATOM     13  C   UNL     1      -3.879  -1.342  24.501  0.00  0.00    +0.002 C 
ATOM     14  C   UNL     1      -3.623  -1.994  24.936  0.00  0.00    +0.000 C 
ATOM     15  C   UNL     1      -3.956  -1.397  23.682  0.00  0.00    +0.000 C 
ENDBRANCH  12  13
ENDBRANCH  11  12
TORSDOF 7
ENDMDL
MODEL 2
REMARK VINA RESULT:     -10.8      1.611      3.907
REMARK  Name = 
REMARK  7 active torsions:
REMARK  status: ('A' for Active; 'I' for Inactive)
REMARK    1  A    between atoms: C_3  and  C_4
REMARK    2  A    between atoms: C_4  and  N_5
REMARK    3  A    between atoms: C_9  and  C_22
REMARK    4  A    between atoms: C_11  and  C_12
REMARK    5  A    between atoms: C_12  and  C_13
REMARK    6  A    between atoms: N_24  and  C_25
REMARK    7  A    between atoms: C_25  and  C_26
REMARK                            x       y       z     vdW  Elec       q    Type
REMARK                         _______ _______ _______ _____ _____    ______ ____
ROOT
ATOM      5  N   UNL     1      -4.069  -0.237  24.297  0.00  0.00    -0.315 N 
ATOM      6  C   UNL     1      -3.265  -0.056  24.274  0.00  0.00    +0.072 A 
ATOM      7  C   UNL     1      -3.171   0.725  24.520  0.00  0.00    -0.002 A 
ATOM      8  C   UNL     1      -2.439   1.102  24.569  0.00  0.00    +0.055 C 
ATOM      9  C   UNL     1      -2.273   1.875  24.805  0.00  0.00    +0.155 C 
ATOM     10  N   UNL     1      -2.798   2.462  25.052  0.00  0.00    -0.207 NA
ATOM     11  C   UNL     1      -3.618   2.421  25.122  0.00  0.00    +0.095 C 
ATOM     16  C   UNL     1      -4.117   1.783  24.964  0.00  0.00    -0.005 A 
ATOM     17  C   UNL     1      -4.966   1.914  25.094  0.00  0.00    -0.003 A 
ATOM     18  C   UNL     1      -5.521   1.320  24.956  0.00  0.00    +0.001 A 
ATOM     19  C   UNL     1      -5.274   0.580  24.688  0.00  0.00    +0.017 A 
ATOM     20  C   UNL     1      -4.473   0.434  24.558  0.00  0.00    +0.060 A 
ATOM     21  C   UNL     1      -3.918   1.028  24.696  0.00  0.00    +0.011 A 
ENDROOT
BRANCH   9  22
ATOM     22  C   UNL     1      -1.477   2.089  24.794  0.00  0.00    +0.258 C 
ATOM     23  O   UNL     1      -1.125   2.330  24.088  0.00  0.00    -0.272 OA
ATOM     24  N   UNL     1      -1.031   2.062  25.488  0.00  0.00    -0.190 NA
BRANCH  24  25
ATOM     25  C   UNL     1      -0.235   2.276  25.477  0.00  0.00    +0.191 C 
BRANCH  25  26
ATOM     26  C   UNL     1       0.160   2.434  26.183  0.00  0.00    -0.054 C 
ATOM     27  C   UNL     1       0.556   2.593  26.889  0.00  0.00    -0.012 C 
ENDBRANCH  25  26
ENDBRANCH  24  25
ENDBRANCH   9  22
BRANCH   5   4
ATOM      4  C   UNL     1      -4.410  -0.960  24.095  0.00  0.00    +0.183 C 
BRANCH   4   3
ATOM      1  C   UNL     1      -3.256  -3.074  24.665  0.00  0.00    +0.090 C 
ATOM      2  C   UNL     1      -3.641  -2.369  24.475  0.00  0.00    -0.088 C 
ATOM      3  C   UNL     1      -4.026  -1.665  24.285  0.00  0.00    -0.066 C 
ENDBRANCH   4   3
ENDBRANCH   5   4
BRANCH  11  12
ATOM     12  C   UNL     1      -3.990   3.108  25.386  0.00  0.00    +0.022 C 
BRANCH  12  13
ATOM     13  C   UNL     1      -3.630   3.842  25.270  0.00  0.00    +0.002 C 
ATOM     14  C   UNL     1      -3.245   4.216  25.896  0.00  0.00    +0.000 C 
ATOM     15  C   UNL     1      -3.657   4.201  24.528  0.00  0.00    +0.000 C 
ENDBRANCH  12  13
ENDBRANCH  11  12
TORSDOF 7
ENDMDL
MODEL 3
REMARK VINA RESULT:     -10.5      1.793      3.014
REMARK  Name = 
REMARK  7 active torsions:
REMARK  status: ('A' for Active; 'I' for Inactive)
REMARK    1  A    between atoms: C_3  and  C_4
REMARK    2  A    between atoms: C_4  and  N_5
REMARK    3  A    between atoms: C_9  and  C_22
REMARK    4  A    between atoms: C_11  and  C_12
REMARK    5  A    between atoms: C_12  and  C_13
REMARK    6  A    between atoms: N_24  and  C_25
REMARK    7  A    between atoms: C_25  and  C_26
REMARK                            x       y       z     vdW  Elec       q    Type
REMARK                         _______ _______ _______ _____ _____    ______ ____
ROOT
ATOM      5  N   UNL     1      -1.851   2.938  25.133  0.00  0.00    -0.315 N 
ATOM      6  C   UNL     1      -1.907   2.159  24.869  0.00  0.00    +0.072 A 
ATOM      7  C   UNL     1      -2.708   1.971  24.798  0.00  0.00    -0.002 A 
ATOM      8  C   UNL     1      -2.981   1.234  24.546  0.00  0.00    +0.055 C 
ATOM      9  C   UNL     1      -3.761   0.980  24.452  0.00  0.00    +0.155 C 
ATOM     10  N   UNL     1      -4.459   1.399  24.587  0.00  0.00    -0.207 NA
ATOM     11  C   UNL     1      -4.550   2.175  24.850  0.00  0.00    +0.095 C 
ATOM     16  C   UNL     1      -3.966   2.725  25.041  0.00  0.00    -0.005 A 
ATOM     17  C   UNL     1      -4.241   3.507  25.304  0.00  0.00    -0.003 A 
ATOM     18  C   UNL     1      -3.711   4.104  25.511  0.00  0.00    +0.001 A 
ATOM     19  C   UNL     1      -2.899   3.966  25.472  0.00  0.00    +0.017 A 
ATOM     20  C   UNL     1      -2.616   3.232  25.226  0.00  0.00    +0.060 A 
ATOM     21  C   UNL     1      -3.146   2.635  25.018  0.00  0.00    +0.011 A 
ENDROOT
BRANCH   9  22
ATOM     22  C   UNL     1      -3.854   0.204  24.188  0.00  0.00    +0.258 C 
ATOM     23  O   UNL     1      -4.013   0.056  23.393  0.00  0.00    -0.272 OA
ATOM     24  N   UNL     1      -3.788  -0.424  24.720  0.00  0.00    -0.190 NA
BRANCH  24  25
ATOM     25  C   UNL     1      -3.882  -1.199  24.456  0.00  0.00    +0.191 C 
BRANCH  25  26
ATOM     26  C   UNL     1      -3.635  -1.829  24.929  0.00  0.00    -0.054 C 
ATOM     27  C   UNL     1      -3.388  -2.458  25.401  0.00  0.00    -0.012 C 
ENDBRANCH  25  26
ENDBRANCH  24  25
ENDBRANCH   9  22
BRANCH   5   4
ATOM      4  C   UNL     1      -1.151   3.351  25.280  0.00  0.00    +0.183 C 
BRANCH   4   3
ATOM      1  C   UNL     1       0.558   2.391  26.790  0.00  0.00    +0.090 C 
ATOM      2  C   UNL     1      -0.012   2.711  26.287  0.00  0.00    -0.088 C 
ATOM      3  C   UNL     1      -0.582   3.031  25.783  0.00  0.00    -0.066 C 
ENDBRANCH   4   3
ENDBRANCH   5   4
BRANCH  11  12
ATOM     12  C   UNL     1      -5.328   2.437  24.931  0.00  0.00    +0.022 C 
BRANCH  12  13
ATOM     13  C   UNL     1      -5.907   1.926  25.223  0.00  0.00    +0.002 C 
ATOM     14  C   UNL     1      -6.478   1.618  24.714  0.00  0.00    +0.000 C 
ATOM     15  C   UNL     1      -5.913   1.723  26.022  0.00  0.00    +0.000 C 
ENDBRANCH  12  13
ENDBRANCH  11  12
TORSDOF 7
ENDMDL
MODEL 4
REMARK VINA RESULT:     -10.5      1.720      4.934
REMARK  Name = 
REMARK  7 active torsions:
REMARK  status: ('A' for Active; 'I' for Inactive)
REMARK    1  A    between atoms: C_3  and  C_4
REMARK    2  A    between atoms: C_4  and  N_5
REMARK    3  A    between atoms: C_9  and  C_22
REMARK    4  A    between atoms: C_11  and  C_12
REMARK    5  A    between atoms: C_12  and  C_13
REMARK    6  A    between atoms: N_24  and  C_25
REMARK    7  A    between atoms: C_25  and  C_26
REMARK                            x       y       z     vdW  Elec       q    Type
REMARK                         _______ _______ _______ _____ _____    ______ ____
ROOT
ATOM      5  N   UNL     1      -0.918   0.569  24.624  0.00  0.00    -0.315 N 
ATOM      6  C   UNL     1      -1.700   0.664  24.379  0.00  0.00    +0.072 A 
ATOM      7  C   UNL     1      -1.957   1.408  24.626  0.00  0.00    -0.002 A 
ATOM      8  C   UNL     1      -2.715   1.699  24.480  0.00  0.00    +0.055 C 
ATOM      9  C   UNL     1      -3.036   2.428  24.696  0.00  0.00    +0.155 C 
ATOM     10  N   UNL     1      -2.679   3.045  25.111  0.00  0.00    -0.207 NA
ATOM     11  C   UNL     1      -1.913   3.087  25.413  0.00  0.00    +0.095 C 
ATOM     16  C   UNL     1      -1.314   2.521  25.374  0.00  0.00    -0.005 A 
ATOM     17  C   UNL     1      -0.559   2.731  25.749  0.00  0.00    -0.003 A 
ATOM     18  C   UNL     1       0.083   2.212  25.748  0.00  0.00    +0.001 A 
ATOM     19  C   UNL     1       0.016   1.475  25.385  0.00  0.00    +0.017 A 
ATOM     20  C   UNL     1      -0.691   1.255  25.023  0.00  0.00    +0.060 A 
ATOM     21  C   UNL     1      -1.333   1.773  25.024  0.00  0.00    +0.011 A 
ENDROOT
BRANCH   9  22
ATOM     22  C   UNL     1      -3.818   2.556  24.466  0.00  0.00    +0.258 C 
ATOM     23  O   UNL     1      -3.981   2.914  23.742  0.00  0.00    -0.272 OA
ATOM     24  N   UNL     1      -4.437   2.325  24.961  0.00  0.00    -0.190 NA
BRANCH  24  25
ATOM     25  C   UNL     1      -5.218   2.453  24.731  0.00  0.00    +0.191 C 
BRANCH  25  26
ATOM     26  C   UNL     1      -5.838   2.181  25.204  0.00  0.00    -0.054 C 
ATOM     27  C   UNL     1      -6.457   1.910  25.676  0.00  0.00    -0.012 C 
ENDBRANCH  25  26
ENDBRANCH  24  25
ENDBRANCH   9  22
BRANCH   5   4
ATOM      4  C   UNL     1      -0.446  -0.095  24.494  0.00  0.00    +0.183 C 
BRANCH   4   3
ATOM      1  C   UNL     1      -1.433  -2.361  24.625  0.00  0.00    +0.090 C 
ATOM      2  C   UNL     1      -1.104  -1.605  24.582  0.00  0.00    -0.088 C 
ATOM      3  C   UNL     1      -0.775  -0.850  24.538  0.00  0.00    -0.066 C 
ENDBRANCH   4   3
ENDBRANCH   5   4
BRANCH  11  12
ATOM     12  C   UNL     1      -1.720   3.785  25.805  0.00  0.00    +0.022 C 
BRANCH  12  13
ATOM     13  C   UNL     1      -2.003   4.508  25.524  0.00  0.00    +0.002 C 
ATOM     14  C   UNL     1      -2.666   4.853  25.870  0.00  0.00    +0.000 C 
ATOM     15  C   UNL     1      -1.621   4.884  24.897  0.00  0.00    +0.000 C 
ENDBRANCH  12  13
ENDBRANCH  11  12
TORSDOF 7
ENDMDL
MODEL 5
REMARK VINA RESULT:     -10.3      1.199      3.889
REMARK  Name = 
REMARK  7 active torsions:
REMARK  status: ('A' for Active; 'I' for Inactive)
REMARK    1  A    between atoms: C_3  and  C_4
REMARK    2  A    between atoms: C_4  and  N_5
REMARK    3  A    between atoms: C_9  and  C_22
REMARK    4  A    between atoms: C_11  and  C_12
REMARK    5  A    between atoms: C_12  and  C_13
REMARK    6  A    between atoms: N_24  and  C_25
REMARK    7  A    between atoms: C_25  and  C_26
REMARK                            x       y       z     vdW  Elec       q    Type
REMARK                         _______ _______ _______ _____ _____    ______ ____
ROOT
ATOM      5  N   UNL     1      -1.846  -0.277  24.622  0.00  0.00    -0.315 N 
ATOM      6  C   UNL     1      -1.756   0.525  24.454  0.00  0.00    +0.072 A 
ATOM      7  C   UNL     1      -2.490   0.890  24.553  0.00  0.00    -0.002 A 
ATOM      8  C   UNL     1      -2.616   1.697  24.434  0.00  0.00    +0.055 C 
ATOM      9  C   UNL     1      -3.317   2.125  24.514  0.00  0.00    +0.155 C 
ATOM     10  N   UNL     1      -4.064   1.852  24.734  0.00  0.00    -0.207 NA
ATOM     11  C   UNL     1      -4.295   1.085  24.928  0.00  0.00    +0.095 C 
ATOM     16  C   UNL     1      -3.836   0.400  24.949  0.00  0.00    -0.005 A 
ATOM     17  C   UNL     1      -4.245  -0.333  25.177  0.00  0.00    -0.003 A 
ATOM     18  C   UNL     1      -3.847  -1.054  25.219  0.00  0.00    +0.001 A 
ATOM     19  C   UNL     1      -3.042  -1.092  25.043  0.00  0.00    +0.017 A 
ATOM     20  C   UNL     1      -2.635  -0.409  24.825  0.00  0.00    +0.060 A 
ATOM     21  C   UNL     1      -3.033   0.313  24.783  0.00  0.00    +0.011 A 
ENDROOT
BRANCH   9  22
ATOM     22  C   UNL     1      -3.263   2.932  24.354  0.00  0.00    +0.258 C 
ATOM     23  O   UNL     1      -3.636   3.246  23.689  0.00  0.00    -0.272 OA
ATOM     24  N   UNL     1      -2.836   3.426  24.858  0.00  0.00    -0.190 NA
BRANCH  24  25
ATOM     25  C   UNL     1      -2.782   4.233  24.698  0.00  0.00    +0.191 C 
BRANCH  25  26
ATOM     26  C   UNL     1      -2.151   4.672  24.996  0.00  0.00    -0.054 C 
ATOM     27  C   UNL     1      -1.520   5.113  25.293  0.00  0.00    -0.012 C 
ENDBRANCH  25  26
ENDBRANCH  24  25
ENDBRANCH   9  22
BRANCH   5   4
ATOM      4  C   UNL     1      -1.251  -0.848  24.592  0.00  0.00    +0.183 C 
BRANCH   4   3
ATOM      1  C   UNL     1       0.851  -0.381  23.371  0.00  0.00    +0.090 C 
ATOM      2  C   UNL     1       0.150  -0.537  23.778  0.00  0.00    -0.088 C 
ATOM      3  C   UNL     1      -0.550  -0.693  24.185  0.00  0.00    -0.066 C 
ENDBRANCH   4   3
ENDBRANCH   5   4
BRANCH  11  12
ATOM     12  C   UNL     1      -5.090   0.989  25.126  0.00  0.00    +0.022 C 
BRANCH  12  13
ATOM     13  C   UNL     1      -5.550   1.648  25.317  0.00  0.00    +0.002 C 
ATOM     14  C   UNL     1      -6.040   1.986  24.748  0.00  0.00    +0.000 C 
ATOM     15  C   UNL     1      -5.518   1.966  26.077  0.00  0.00    +0.000 C 
ENDBRANCH  12  13
ENDBRANCH  11  12
TORSDOF 7
ENDMDL
MODEL 6
REMARK VINA RESULT:     -10.3      1.618      4.866
REMARK  Name = 
REMARK  7 active torsions:
REMARK  status: ('A' for Active; 'I' for Inactive)
REMARK    1  A    between atoms: C_3  and  C_4
REMARK    2  A    between atoms: C_4  and  N_5
REMARK    3  A    between atoms: C_9  and  C_22
REMARK    4  A    between atoms: C_11  and  C_12
REMARK    5  A    between atoms: C_12  and  C_13
REMARK    6  A    between atoms: N_24  and  C_25
REMARK    7  A    between atoms: C_25  and  C_26
REMARK                            x       y       z     vdW  Elec       q    Type
REMARK                         _______ _______ _______ _____ _____    ______ ____
ROOT
ATOM      5  N   UNL     1      -2.839  -0.907  25.163  0.00  0.00    -0.315 N 
ATOM      6  C   UNL     1      -3.374  -0.326  24.924  0.00  0.00    +0.072 A 
ATOM      7  C   UNL     1      -2.968   0.391  24.880  0.00  0.00    -0.002 A 
ATOM      8  C   UNL     1      -3.324   1.102  24.658  0.00  0.00    +0.055 C 
ATOM      9  C   UNL     1      -2.981   1.850  24.593  0.00  0.00    +0.155 C 
ATOM     10  N   UNL     1      -2.199   2.072  24.734  0.00  0.00    -0.207 NA
ATOM     11  C   UNL     1      -1.566   1.601  24.975  0.00  0.00    +0.095 C 
ATOM     16  C   UNL     1      -1.559   0.792  25.134  0.00  0.00    -0.005 A 
ATOM     17  C   UNL     1      -0.797   0.453  25.380  0.00  0.00    -0.003 A 
ATOM     18  C   UNL     1      -0.718  -0.349  25.555  0.00  0.00    +0.001 A 
ATOM     19  C   UNL     1      -1.371  -0.850  25.498  0.00  0.00    +0.017 A 
ATOM     20  C   UNL     1      -2.103  -0.549  25.267  0.00  0.00    +0.060 A 
ATOM     21  C   UNL     1      -2.182   0.253  25.092  0.00  0.00    +0.011 A 
ENDROOT
BRANCH   9  22
ATOM     22  C   UNL     1      -3.488   2.455  24.356  0.00  0.00    +0.258 C 
ATOM     23  O   UNL     1      -3.496   2.702  23.569  0.00  0.00    -0.272 OA
ATOM     24  N   UNL     1      -3.988   2.815  24.905  0.00  0.00    -0.190 NA
BRANCH  24  25
ATOM     25  C   UNL     1      -4.495   3.420  24.668  0.00  0.00    +0.191 C 
BRANCH  25  26
ATOM     26  C   UNL     1      -5.059   3.716  25.192  0.00  0.00    -0.054 C 
ATOM     27  C   UNL     1      -5.623   4.011  25.717  0.00  0.00    -0.012 C 
ENDBRANCH  25  26
ENDBRANCH  24  25
ENDBRANCH   9  22
BRANCH   5   4
ATOM      4  C   UNL     1      -3.011  -1.706  25.279  0.00  0.00    +0.183 C 
BRANCH   4   3
ATOM      1  C   UNL     1      -4.399  -2.923  23.631  0.00  0.00    +0.090 C 
ATOM      2  C   UNL     1      -3.936  -2.517  24.180  0.00  0.00    -0.088 C 
ATOM      3  C   UNL     1      -3.473  -2.111  24.729  0.00  0.00    -0.066 C 
ENDBRANCH   4   3
ENDBRANCH   5   4
BRANCH  11  12
ATOM     12  C   UNL     1      -0.846   1.991  25.069  0.00  0.00    +0.022 C 
BRANCH  12  13
ATOM     13  C   UNL     1      -0.832   2.786  25.289  0.00  0.00    +0.002 C 
ATOM     14  C   UNL     1      -0.663   3.366  24.728  0.00  0.00    +0.000 C 
ATOM     15  C   UNL     1      -0.988   3.000  26.070  0.00  0.00    +0.000 C 
ENDBRANCH  12  13
ENDBRANCH  11  12
TORSDOF 7
ENDMDL
MODEL 7
REMARK VINA RESULT:     -10.1      1.537      2.838
REMARK  Name = 
REMARK  7 active torsions:
REMARK  status: ('A' for Active; 'I' for Inactive)
REMARK    1  A    between atoms: C_3  and  C_4
REMARK    2  A    between atoms: C_4  and  N_5
REMARK    3  A    between atoms: C_9  and  C_22
REMARK    4  A    between atoms: C_11  and  C_12
REMARK    5  A    between atoms: C_12  and  C_13
REMARK    6  A    between atoms: N_24  and  C_25
REMARK    7  A    between atoms: C_25  and  C_26
REMARK                            x       y       z     vdW  Elec       q    Type
REMARK                         _______ _______ _______ _____ _____    ______ ____
ROOT
ATOM      5  N   UNL     1      -4.419   0.914  24.700  0.00  0.00    -0.315 N 
ATOM      6  C   UNL     1      -3.782   1.434  24.756  0.00  0.00    +0.072 A 
ATOM      7  C   UNL     1      -3.087   0.992  24.712  0.00  0.00    -0.002 A 
ATOM      8  C   UNL     1      -2.333   1.326  24.749  0.00  0.00    +0.055 C 
ATOM      9  C   UNL     1      -1.601   0.947  24.712  0.00  0.00    +0.155 C 
ATOM     10  N   UNL     1      -1.442   0.141  24.628  0.00  0.00    -0.207 NA
ATOM     11  C   UNL     1      -1.975  -0.484  24.560  0.00  0.00    +0.095 C 
ATOM     16  C   UNL     1      -2.799  -0.458  24.560  0.00  0.00    -0.005 A 
ATOM     17  C   UNL     1      -3.210  -1.220  24.479  0.00  0.00    -0.003 A 
ATOM     18  C   UNL     1      -4.034  -1.269  24.471  0.00  0.00    +0.001 A 
ATOM     19  C   UNL     1      -4.487  -0.583  24.542  0.00  0.00    +0.017 A 
ATOM     20  C   UNL     1      -4.118   0.150  24.620  0.00  0.00    +0.060 A 
ATOM     21  C   UNL     1      -3.295   0.198  24.628  0.00  0.00    +0.011 A 
ENDROOT
BRANCH   9  22
ATOM     22  C   UNL     1      -0.941   1.438  24.766  0.00  0.00    +0.258 C 
ATOM     23  O   UNL     1      -0.534   1.658  24.083  0.00  0.00    -0.272 OA
ATOM     24  N   UNL     1      -0.688   1.711  25.502  0.00  0.00    -0.190 NA
BRANCH  24  25
ATOM     25  C   UNL     1      -0.028   2.202  25.556  0.00  0.00    +0.191 C 
BRANCH  25  26
ATOM     26  C   UNL     1       0.248   2.444  26.295  0.00  0.00    -0.054 C 
ATOM     27  C   UNL     1       0.523   2.685  27.034  0.00  0.00    -0.012 C 
ENDBRANCH  25  26
ENDBRANCH  24  25
ENDBRANCH   9  22
BRANCH   5   4
ATOM      4  C   UNL     1      -5.218   1.121  24.719  0.00  0.00    +0.183 C 
BRANCH   4   3
ATOM      1  C   UNL     1      -5.911   3.285  25.699  0.00  0.00    +0.090 C 
ATOM      2  C   UNL     1      -5.680   2.564  25.372  0.00  0.00    -0.088 C 
ATOM      3  C   UNL     1      -5.449   1.842  25.045  0.00  0.00    -0.066 C 
ENDBRANCH   4   3
ENDBRANCH   5   4
BRANCH  11  12
ATOM     12  C   UNL     1      -1.640  -1.233  24.482  0.00  0.00    +0.022 C 
BRANCH  12  13
ATOM     13  C   UNL     1      -0.886  -1.382  24.784  0.00  0.00    +0.002 C 
ATOM     14  C   UNL     1      -0.233  -1.370  24.282  0.00  0.00    +0.000 C 
ATOM     15  C   UNL     1      -0.788  -1.542  25.587  0.00  0.00    +0.000 C 
ENDBRANCH  12  13
ENDBRANCH  11  12
TORSDOF 7
ENDMDL
MODEL 8
REMARK VINA RESULT:      -9.9      1.463      3.468
REMARK  Name = 
REMARK  7 active torsions:
REMARK  status: ('A' for Active; 'I' for Inactive)
REMARK    1  A    between atoms: C_3  and  C_4
REMARK    2  A    between atoms: C_4  and  N_5
REMARK    3  A    between atoms: C_9  and  C_22
REMARK    4  A    between atoms: C_11  and  C_12
REMARK    5  A    between atoms: C_12  and  C_13
REMARK    6  A    between atoms: N_24  and  C_25
REMARK    7  A    between atoms: C_25  and  C_26
REMARK                            x       y       z     vdW  Elec       q    Type
REMARK                         _______ _______ _______ _____ _____    ______ ____
ROOT
ATOM      5  N   UNL     1      -1.192   2.380  24.869  0.00  0.00    -0.315 N 
ATOM      6  C   UNL     1      -1.991   2.586  24.848  0.00  0.00    +0.072 A 
ATOM      7  C   UNL     1      -2.431   1.892  24.783  0.00  0.00    -0.002 A 
ATOM      8  C   UNL     1      -3.255   1.878  24.746  0.00  0.00    +0.055 C 
ATOM      9  C   UNL     1      -3.757   1.226  24.681  0.00  0.00    +0.155 C 
ATOM     10  N   UNL     1      -3.558   0.426  24.637  0.00  0.00    -0.207 NA
ATOM     11  C   UNL     1      -2.809   0.081  24.647  0.00  0.00    +0.095 C 
ATOM     16  C   UNL     1      -2.073   0.451  24.704  0.00  0.00    -0.005 A 
ATOM     17  C   UNL     1      -1.377  -0.070  24.700  0.00  0.00    -0.003 A 
ATOM     18  C   UNL     1      -0.611   0.232  24.754  0.00  0.00    +0.001 A 
ATOM     19  C   UNL     1      -0.493   1.046  24.813  0.00  0.00    +0.017 A 
ATOM     20  C   UNL     1      -1.139   1.558  24.818  0.00  0.00    +0.060 A 
ATOM     21  C   UNL     1      -1.905   1.256  24.764  0.00  0.00    +0.011 A 
ENDROOT
BRANCH   9  22
ATOM     22  C   UNL     1      -4.563   1.396  24.656  0.00  0.00    +0.258 C 
ATOM     23  O   UNL     1      -4.957   1.421  23.932  0.00  0.00    -0.272 OA
ATOM     24  N   UNL     1      -4.976   1.541  25.356  0.00  0.00    -0.190 NA
BRANCH  24  25
ATOM     25  C   UNL     1      -5.782   1.711  25.331  0.00  0.00    +0.191 C 
BRANCH  25  26
ATOM     26  C   UNL     1      -6.199   1.840  26.032  0.00  0.00    -0.054 C 
ATOM     27  C   UNL     1      -6.614   1.969  26.733  0.00  0.00    -0.012 C 
ENDBRANCH  25  26
ENDBRANCH  24  25
ENDBRANCH   9  22
BRANCH   5   4
ATOM      4  C   UNL     1      -0.558   2.904  24.932  0.00  0.00    +0.183 C 
BRANCH   4   3
ATOM      1  C   UNL     1      -0.970   5.344  24.998  0.00  0.00    +0.090 C 
ATOM      2  C   UNL     1      -0.833   4.530  24.976  0.00  0.00    -0.088 C 
ATOM      3  C   UNL     1      -0.695   3.717  24.954  0.00  0.00    -0.066 C 
ENDBRANCH   4   3
ENDBRANCH   5   4
BRANCH  11  12
ATOM     12  C   UNL     1      -2.792  -0.741  24.594  0.00  0.00    +0.022 C 
BRANCH  12  13
ATOM     13  C   UNL     1      -3.448  -1.184  24.832  0.00  0.00    +0.002 C 
ATOM     14  C   UNL     1      -3.969  -1.482  24.267  0.00  0.00    +0.000 C 
ATOM     15  C   UNL     1      -3.580  -1.326  25.633  0.00  0.00    +0.000 C 
ENDBRANCH  12  13
ENDBRANCH  11  12
TORSDOF 7
ENDMDL
