MODEL 1
REMARK VINA RESULT:     -10.9      0.000      0.000
REMARK  Name = 
REMARK  9 active torsions:
REMARK  status: ('A' for Active; 'I' for Inactive)
REMARK    1  A    between atoms: O_2  and  C_3
REMARK    2  A    between atoms: C_3  and  C_4
REMARK    3  A    between atoms: C_4  and  N_5
REMARK    4  A    between atoms: N_5  and  C_6
REMARK    5  A    between atoms: C_7  and  C_12
REMARK    6  A    between atoms: C_15  and  C_17
REMARK    7  A    between atoms: N_21  and  C_22
REMARK    8  A    between atoms: C_22  and  C_23
REMARK    9  A    between atoms: C_27  and  O_28
REMARK                            x       y       z     vdW  Elec       q    Type
REMARK                         _______ _______ _______ _____ _____    ______ ____
ROOT
ATOM     12  C   UNL     1      -2.859   3.288  24.569  0.00  0.00    +0.206 A 
ATOM     13  N   UNL     1      -3.220   3.275  23.826  0.00  0.00    -0.056 NA
ATOM     14  O   UNL     1      -3.890   2.797  23.877  0.00  0.00    -0.336 OA
ATOM     15  C   UNL     1      -3.944   2.514  24.651  0.00  0.00    +0.251 A 
ATOM     16  N   UNL     1      -3.306   2.818  25.078  0.00  0.00    -0.190 NA
ENDROOT
BRANCH  12   7
ATOM      6  C   UNL     1      -1.435   3.338  24.674  0.00  0.00    +0.151 A 
ATOM      7  C   UNL     1      -2.171   3.699  24.766  0.00  0.00    +0.072 A 
ATOM      8  C   UNL     1      -2.220   4.469  25.055  0.00  0.00    +0.008 A 
ATOM      9  C   UNL     1      -1.533   4.880  25.253  0.00  0.00    +0.021 A 
ATOM     10  C   UNL     1      -0.796   4.521  25.161  0.00  0.00    +0.100 A 
ATOM     11  N   UNL     1      -0.747   3.749  24.872  0.00  0.00    -0.228 NA
BRANCH   6   5
ATOM      5  N   UNL     1      -1.385   2.568  24.385  0.00  0.00    -0.218 NA
BRANCH   5   4
ATOM      4  C   UNL     1      -0.672   2.155  24.428  0.00  0.00    +0.146 C 
BRANCH   4   3
ATOM      3  C   UNL     1      -0.583   1.442  24.025  0.00  0.00    +0.166 C 
BRANCH   3   2
ATOM      1  C   UNL     1      -0.204   0.064  24.023  0.00  0.00    +0.174 C 
ATOM      2  O   UNL     1      -0.363   0.760  24.435  0.00  0.00    -0.349 OA
ENDBRANCH   3   2
ENDBRANCH   4   3
ENDBRANCH   5   4
ENDBRANCH   6   5
ENDBRANCH  12   7
BRANCH  15  17
ATOM     17  C   UNL     1      -4.531   2.016  24.945  0.00  0.00    +0.138 C 
ATOM     18  C   UNL     1      -5.194   2.250  25.378  0.00  0.00    +0.027 C 
ATOM     19  C   UNL     1      -5.631   1.574  25.560  0.00  0.00    +0.019 C 
ATOM     20  C   UNL     1      -5.239   0.923  25.240  0.00  0.00    +0.073 C 
ATOM     21  N   UNL     1      -4.559   1.196  24.860  0.00  0.00    -0.263 NA
BRANCH  21  22
ATOM     22  C   UNL     1      -4.005   0.730  24.465  0.00  0.00    +0.103 C 
BRANCH  22  23
ATOM     23  C   UNL     1      -3.904  -0.061  24.677  0.00  0.00    +0.033 A 
ATOM     24  C   UNL     1      -3.905  -0.647  24.095  0.00  0.00    +0.196 A 
ATOM     25  O   UNL     1      -4.006  -0.441  23.303  0.00  0.00    -0.287 OA
ATOM     26  C   UNL     1      -3.805  -1.437  24.307  0.00  0.00    +0.079 A 
ATOM     27  C   UNL     1      -3.704  -1.643  25.099  0.00  0.00    +0.142 A 
ATOM     30  C   UNL     1      -3.703  -1.058  25.681  0.00  0.00    +0.037 A 
ATOM     31  C   UNL     1      -3.804  -0.267  25.469  0.00  0.00    +0.003 A 
BRANCH  27  28
ATOM     28  O   UNL     1      -3.604  -2.435  25.311  0.00  0.00    -0.471 OA
ATOM     29  C   UNL     1      -3.219  -2.953  24.796  0.00  0.00    +0.252 C 
ENDBRANCH  27  28
ENDBRANCH  22  23
ENDBRANCH  21  22
ENDBRANCH  15  17
TORSDOF 9
ENDMDL
MODEL 2
REMARK VINA RESULT:     -10.6      1.505      4.567
REMARK  Name = 
REMARK  9 active torsions:
REMARK  status: ('A' for Active; 'I' for Inactive)
REMARK    1  A    between atoms: O_2  and  C_3
REMARK    2  A    between atoms: C_3  and  C_4
REMARK    3  A    between atoms: C_4  and  N_5
REMARK    4  A    between atoms: N_5  and  C_6
REMARK    5  A    between atoms: C_7  and  C_12
REMARK    6  A    between atoms: C_15  and  C_17
REMARK    7  A    between atoms: N_21  and  C_22
REMARK    8  A    between atoms: C_22  and  C_23
REMARK    9  A    between atoms: C_27  and  O_28
REMARK                            x       y       z     vdW  Elec       q    Type
REMARK                         _______ _______ _______ _____ _____    ______ ____
ROOT
ATOM     12  C   UNL     1      -3.640  -0.511  24.222  0.00  0.00    +0.206 A 
ATOM     13  N   UNL     1      -3.558  -0.095  23.513  0.00  0.00    -0.056 NA
ATOM     14  O   UNL     1      -3.799   0.683  23.645  0.00  0.00    -0.336 OA
ATOM     15  C   UNL     1      -4.031   0.748  24.434  0.00  0.00    +0.251 A 
ATOM     16  N   UNL     1      -3.933   0.010  24.790  0.00  0.00    -0.190 NA
ENDROOT
BRANCH  12   7
ATOM      6  C   UNL     1      -2.682  -1.539  24.478  0.00  0.00    +0.151 A 
ATOM      7  C   UNL     1      -3.462  -1.308  24.340  0.00  0.00    +0.072 A 
ATOM      8  C   UNL     1      -4.063  -1.872  24.320  0.00  0.00    +0.008 A 
ATOM      9  C   UNL     1      -3.884  -2.669  24.438  0.00  0.00    +0.021 A 
ATOM     10  C   UNL     1      -3.105  -2.901  24.576  0.00  0.00    +0.100 A 
ATOM     11  N   UNL     1      -2.503  -2.336  24.596  0.00  0.00    -0.228 NA
BRANCH   6   5
ATOM      5  N   UNL     1      -2.081  -0.975  24.498  0.00  0.00    -0.218 NA
BRANCH   5   4
ATOM      4  C   UNL     1      -1.291  -1.213  24.518  0.00  0.00    +0.146 C 
BRANCH   4   3
ATOM      3  C   UNL     1      -0.690  -0.649  24.532  0.00  0.00    +0.166 C 
BRANCH   3   2
ATOM      1  C   UNL     1       0.329  -0.098  23.696  0.00  0.00    +0.174 C 
ATOM      2  O   UNL     1      -0.019  -0.748  24.063  0.00  0.00    -0.349 OA
ENDBRANCH   3   2
ENDBRANCH   4   3
ENDBRANCH   5   4
ENDBRANCH   6   5
ENDBRANCH  12   7
BRANCH  15  17
ATOM     17  C   UNL     1      -4.312   1.430  24.802  0.00  0.00    +0.138 C 
ATOM     18  C   UNL     1      -5.095   1.580  25.015  0.00  0.00    +0.027 C 
ATOM     19  C   UNL     1      -5.126   2.325  25.367  0.00  0.00    +0.019 C 
ATOM     20  C   UNL     1      -4.362   2.637  25.372  0.00  0.00    +0.073 C 
ATOM     21  N   UNL     1      -3.859   2.084  25.023  0.00  0.00    -0.263 NA
BRANCH  21  22
ATOM     22  C   UNL     1      -3.046   2.169  24.914  0.00  0.00    +0.103 C 
BRANCH  22  23
ATOM     23  C   UNL     1      -2.688   2.902  25.038  0.00  0.00    +0.033 A 
ATOM     24  C   UNL     1      -1.968   2.947  25.440  0.00  0.00    +0.196 A 
ATOM     25  O   UNL     1      -1.608   2.259  25.718  0.00  0.00    -0.287 OA
ATOM     26  C   UNL     1      -1.610   3.679  25.564  0.00  0.00    +0.079 A 
ATOM     27  C   UNL     1      -1.971   4.367  25.286  0.00  0.00    +0.142 A 
ATOM     30  C   UNL     1      -2.690   4.323  24.884  0.00  0.00    +0.037 A 
ATOM     31  C   UNL     1      -3.048   3.590  24.761  0.00  0.00    +0.003 A 
BRANCH  27  28
ATOM     28  O   UNL     1      -1.613   5.100  25.410  0.00  0.00    -0.471 OA
ATOM     29  C   UNL     1      -1.008   5.353  24.909  0.00  0.00    +0.252 C 
ENDBRANCH  27  28
ENDBRANCH  22  23
ENDBRANCH  21  22
ENDBRANCH  15  17
TORSDOF 9
ENDMDL
MODEL 3
REMARK VINA RESULT:     -10.4      1.246      2.980
REMARK  Name = 
REMARK  9 active torsions:
REMARK  status: ('A' for Active; 'I' for Inactive)
REMARK    1  A    between atoms: O_2  and  C_3
REMARK    2  A    between atoms: C_3  and  C_4
REMARK    3  A    between atoms: C_4  and  N_5
REMARK    4  A    between atoms: N_5  and  C_6
REMARK    5  A    between atoms: C_7  and  C_12
REMARK    6  A    between atoms: C_15  and  C_17
REMARK    7  A    between atoms: N_21  and  C_22
REMARK    8  A    between atoms: C_22  and  C_23
REMARK    9  A    between atoms: C_27  and  O_28
REMARK                            x       y       z     vdW  Elec       q    Type
REMARK                         _______ _______ _______ _____ _____    ______ ____
ROOT
ATOM     12  C   UNL     1      -1.139   2.956  25.367  0.00  0.00    +0.206 A 
ATOM     13  N   UNL     1      -1.042   2.570  26.090  0.00  0.00    -0.056 NA
ATOM     14  O   UNL     1      -0.913   1.770  25.937  0.00  0.00    -0.336 OA
ATOM     15  C   UNL     1      -0.930   1.661  25.119  0.00  0.00    +0.251 A 
ATOM     16  N   UNL     1      -1.070   2.395  24.767  0.00  0.00    -0.190 NA
ENDROOT
BRANCH  12   7
ATOM      6  C   UNL     1      -2.042   4.064  25.365  0.00  0.00    +0.151 A 
ATOM      7  C   UNL     1      -1.280   3.763  25.263  0.00  0.00    +0.072 A 
ATOM      8  C   UNL     1      -0.661   4.266  25.057  0.00  0.00    +0.008 A 
ATOM      9  C   UNL     1      -0.802   5.072  24.953  0.00  0.00    +0.021 A 
ATOM     10  C   UNL     1      -1.563   5.375  25.054  0.00  0.00    +0.100 A 
ATOM     11  N   UNL     1      -2.183   4.870  25.260  0.00  0.00    -0.228 NA
BRANCH   6   5
ATOM      5  N   UNL     1      -2.661   3.561  25.570  0.00  0.00    -0.218 NA
BRANCH   5   4
ATOM      4  C   UNL     1      -3.441   3.827  25.530  0.00  0.00    +0.146 C 
BRANCH   4   3
ATOM      3  C   UNL     1      -4.053   3.357  25.821  0.00  0.00    +0.166 C 
BRANCH   3   2
ATOM      1  C   UNL     1      -5.410   2.913  25.750  0.00  0.00    +0.174 C 
ATOM      2  O   UNL     1      -4.779   3.335  25.428  0.00  0.00    -0.349 OA
ENDBRANCH   3   2
ENDBRANCH   4   3
ENDBRANCH   5   4
ENDBRANCH   6   5
ENDBRANCH  12   7
BRANCH  15  17
ATOM     17  C   UNL     1      -0.826   0.945  24.723  0.00  0.00    +0.138 C 
ATOM     18  C   UNL     1      -0.114   0.658  24.421  0.00  0.00    +0.027 C 
ATOM     19  C   UNL     1      -0.264  -0.075  24.070  0.00  0.00    +0.019 C 
ATOM     20  C   UNL     1      -1.067  -0.239  24.155  0.00  0.00    +0.073 C 
ATOM     21  N   UNL     1      -1.415   0.392  24.558  0.00  0.00    -0.263 NA
BRANCH  21  22
ATOM     22  C   UNL     1      -2.212   0.456  24.761  0.00  0.00    +0.103 C 
BRANCH  22  23
ATOM     23  C   UNL     1      -2.710  -0.197  24.690  0.00  0.00    +0.033 A 
ATOM     24  C   UNL     1      -3.389  -0.149  24.223  0.00  0.00    +0.196 A 
ATOM     25  O   UNL     1      -3.568   0.552  23.827  0.00  0.00    -0.287 OA
ATOM     26  C   UNL     1      -3.887  -0.802  24.151  0.00  0.00    +0.079 A 
ATOM     27  C   UNL     1      -3.708  -1.503  24.547  0.00  0.00    +0.142 A 
ATOM     30  C   UNL     1      -3.030  -1.552  25.014  0.00  0.00    +0.037 A 
ATOM     31  C   UNL     1      -2.531  -0.898  25.086  0.00  0.00    +0.003 A 
BRANCH  27  28
ATOM     28  O   UNL     1      -4.207  -2.157  24.476  0.00  0.00    -0.471 OA
ATOM     29  C   UNL     1      -3.927  -2.853  24.134  0.00  0.00    +0.252 C 
ENDBRANCH  27  28
ENDBRANCH  22  23
ENDBRANCH  21  22
ENDBRANCH  15  17
TORSDOF 9
ENDMDL
MODEL 4
REMARK VINA RESULT:     -10.1      1.608      5.446
REMARK  Name = 
REMARK  9 active torsions:
REMARK  status: ('A' for Active; 'I' for Inactive)
REMARK    1  A    between atoms: O_2  and  C_3
REMARK    2  A    between atoms: C_3  and  C_4
REMARK    3  A    between atoms: C_4  and  N_5
REMARK    4  A    between atoms: N_5  and  C_6
REMARK    5  A    between atoms: C_7  and  C_12
REMARK    6  A    between atoms: C_15  and  C_17
REMARK    7  A    between atoms: N_21  and  C_22
REMARK    8  A    between atoms: C_22  and  C_23
REMARK    9  A    between atoms: C_27  and  O_28
REMARK                            x       y       z     vdW  Elec       q    Type
REMARK                         _______ _______ _______ _____ _____    ______ ____
ROOT
ATOM     12  C   UNL     1      -2.222  -1.043  24.758  0.00  0.00    +0.206 A 
ATOM     13  N   UNL     1      -1.862  -1.045  25.501  0.00  0.00    -0.056 NA
ATOM     14  O   UNL     1      -1.178  -0.586  25.455  0.00  0.00    -0.336 OA
ATOM     15  C   UNL     1      -1.114  -0.301  24.683  0.00  0.00    +0.251 A 
ATOM     16  N   UNL     1      -1.760  -0.583  24.253  0.00  0.00    -0.190 NA
ENDROOT
BRANCH  12   7
ATOM      6  C   UNL     1      -3.634  -1.017  24.543  0.00  0.00    +0.151 A 
ATOM      7  C   UNL     1      -2.921  -1.432  24.557  0.00  0.00    +0.072 A 
ATOM      8  C   UNL     1      -2.906  -2.235  24.370  0.00  0.00    +0.008 A 
ATOM      9  C   UNL     1      -3.605  -2.624  24.169  0.00  0.00    +0.021 A 
ATOM     10  C   UNL     1      -4.318  -2.211  24.154  0.00  0.00    +0.100 A 
ATOM     11  N   UNL     1      -4.333  -1.407  24.341  0.00  0.00    -0.228 NA
BRANCH   6   5
ATOM      5  N   UNL     1      -3.649  -0.215  24.730  0.00  0.00    -0.218 NA
BRANCH   5   4
ATOM      4  C   UNL     1      -4.342   0.221  24.627  0.00  0.00    +0.146 C 
BRANCH   4   3
ATOM      3  C   UNL     1      -4.422   0.960  24.983  0.00  0.00    +0.166 C 
BRANCH   3   2
ATOM      1  C   UNL     1      -4.878   2.311  24.893  0.00  0.00    +0.174 C 
ATOM      2  O   UNL     1      -4.617   1.620  24.528  0.00  0.00    -0.349 OA
ENDBRANCH   3   2
ENDBRANCH   4   3
ENDBRANCH   5   4
ENDBRANCH   6   5
ENDBRANCH  12   7
BRANCH  15  17
ATOM     17  C   UNL     1      -0.512   0.182  24.393  0.00  0.00    +0.138 C 
ATOM     18  C   UNL     1       0.039  -0.025  23.814  0.00  0.00    +0.027 C 
ATOM     19  C   UNL     1       0.537   0.622  23.693  0.00  0.00    +0.019 C 
ATOM     20  C   UNL     1       0.294   1.228  24.196  0.00  0.00    +0.073 C 
ATOM     21  N   UNL     1      -0.354   0.956  24.629  0.00  0.00    -0.263 NA
BRANCH  21  22
ATOM     22  C   UNL     1      -0.771   1.384  25.198  0.00  0.00    +0.103 C 
BRANCH  22  23
ATOM     23  C   UNL     1      -0.793   2.208  25.160  0.00  0.00    +0.033 A 
ATOM     24  C   UNL     1      -0.557   2.657  25.812  0.00  0.00    +0.196 A 
ATOM     25  O   UNL     1      -0.300   2.281  26.500  0.00  0.00    -0.287 OA
ATOM     26  C   UNL     1      -0.579   3.480  25.775  0.00  0.00    +0.079 A 
ATOM     27  C   UNL     1      -0.836   3.856  25.087  0.00  0.00    +0.142 A 
ATOM     30  C   UNL     1      -1.071   3.408  24.435  0.00  0.00    +0.037 A 
ATOM     31  C   UNL     1      -1.049   2.583  24.473  0.00  0.00    +0.003 A 
BRANCH  27  28
ATOM     28  O   UNL     1      -0.858   4.680  25.049  0.00  0.00    -0.471 OA
ATOM     29  C   UNL     1      -1.578   5.076  25.122  0.00  0.00    +0.252 C 
ENDBRANCH  27  28
ENDBRANCH  22  23
ENDBRANCH  21  22
ENDBRANCH  15  17
TORSDOF 9
ENDMDL
MODEL 5
REMARK VINA RESULT:      -9.8      1.262      3.515
REMARK  Name = 
REMARK  9 active torsions:
REMARK  status: ('A' for Active; 'I' for Inactive)
REMARK    1  A    between atoms: O_2  and  C_3
REMARK    2  A    between atoms: C_3  and  C_4
REMARK    3  A    between atoms: C_4  and  N_5
REMARK    4  A    between atoms: N_5  and  C_6
REMARK    5  A    between atoms: C_7  and  C_12
REMARK    6  A    between atoms: C_15  and  C_17
REMARK    7  A    between atoms: N_21  and  C_22
REMARK    8  A    between atoms: C_22  and  C_23
REMARK    9  A    between atoms: C_27  and  O_28
REMARK                            x       y       z     vdW  Elec       q    Type
REMARK                         _______ _______ _______ _____ _____    ______ ____
ROOT
ATOM     12  C   UNL     1      -3.408   2.923  24.940  0.00  0.00    +0.206 A 
ATOM     13  N   UNL     1      -3.080   3.152  24.218  0.00  0.00    -0.056 NA
ATOM     14  O   UNL     1      -2.261   3.066  24.273  0.00  0.00    -0.336 OA
ATOM     15  C   UNL     1      -2.083   2.785  25.028  0.00  0.00    +0.251 A 
ATOM     16  N   UNL     1      -2.793   2.696  25.440  0.00  0.00    -0.190 NA
ENDROOT
BRANCH  12   7
ATOM      6  C   UNL     1      -4.661   2.239  25.011  0.00  0.00    +0.151 A 
ATOM      7  C   UNL     1      -4.212   2.921  25.128  0.00  0.00    +0.072 A 
ATOM      8  C   UNL     1      -4.565   3.601  25.433  0.00  0.00    +0.008 A 
ATOM      9  C   UNL     1      -5.368   3.599  25.621  0.00  0.00    +0.021 A 
ATOM     10  C   UNL     1      -5.818   2.918  25.505  0.00  0.00    +0.100 A 
ATOM     11  N   UNL     1      -5.464   2.237  25.200  0.00  0.00    -0.228 NA
BRANCH   6   5
ATOM      5  N   UNL     1      -4.308   1.559  24.707  0.00  0.00    -0.218 NA
BRANCH   5   4
ATOM      4  C   UNL     1      -4.699   0.834  24.752  0.00  0.00    +0.146 C 
BRANCH   4   3
ATOM      3  C   UNL     1      -4.437   0.195  24.303  0.00  0.00    +0.166 C 
BRANCH   3   2
ATOM      1  C   UNL     1      -4.274  -1.220  24.187  0.00  0.00    +0.174 C 
ATOM      2  O   UNL     1      -4.340  -0.545  24.655  0.00  0.00    -0.349 OA
ENDBRANCH   3   2
ENDBRANCH   4   3
ENDBRANCH   5   4
ENDBRANCH   6   5
ENDBRANCH  12   7
BRANCH  15  17
ATOM     17  C   UNL     1      -1.329   2.620  25.319  0.00  0.00    +0.138 C 
ATOM     18  C   UNL     1      -0.915   3.070  25.873  0.00  0.00    +0.027 C 
ATOM     19  C   UNL     1      -0.186   2.705  26.005  0.00  0.00    +0.019 C 
ATOM     20  C   UNL     1      -0.151   2.030  25.532  0.00  0.00    +0.073 C 
ATOM     21  N   UNL     1      -0.857   1.977  25.109  0.00  0.00    -0.263 NA
BRANCH  21  22
ATOM     22  C   UNL     1      -1.056   1.386  24.569  0.00  0.00    +0.103 C 
BRANCH  22  23
ATOM     23  C   UNL     1      -0.880   0.598  24.738  0.00  0.00    +0.033 A 
ATOM     24  C   UNL     1      -0.538   0.119  24.159  0.00  0.00    +0.196 A 
ATOM     25  O   UNL     1      -0.373   0.428  23.413  0.00  0.00    -0.287 OA
ATOM     26  C   UNL     1      -0.362  -0.669  24.327  0.00  0.00    +0.079 A 
ATOM     27  C   UNL     1      -0.527  -0.979  25.074  0.00  0.00    +0.142 A 
ATOM     30  C   UNL     1      -0.869  -0.500  25.653  0.00  0.00    +0.037 A 
ATOM     31  C   UNL     1      -1.045   0.288  25.484  0.00  0.00    +0.003 A 
BRANCH  27  28
ATOM     28  O   UNL     1      -0.351  -1.767  25.242  0.00  0.00    -0.471 OA
ATOM     29  C   UNL     1      -0.918  -2.353  25.114  0.00  0.00    +0.252 C 
ENDBRANCH  27  28
ENDBRANCH  22  23
ENDBRANCH  21  22
ENDBRANCH  15  17
TORSDOF 9
ENDMDL
MODEL 6
REMARK VINA RESULT:      -9.4      1.509      3.720
REMARK  Name = 
REMARK  9 active torsions:
REMARK  status: ('A' for Active; 'I' for Inactive)
REMARK    1  A    between atoms: O_2  and  C_3
REMARK    2  A    between atoms: C_3  and  C_4
REMARK    3  A    between atoms: C_4  and  N_5
REMARK    4  A    between atoms: N_5  and  C_6
REMARK    5  A    between atoms: C_7  and  C_12
REMARK    6  A    between atoms: C_15  and  C_17
REMARK    7  A    between atoms: N_21  and  C_22
REMARK    8  A    between atoms: C_22  and  C_23
REMARK    9  A    between atoms: C_27  and  O_28
REMARK                            x       y       z     vdW  Elec       q    Type
REMARK                         _______ _______ _______ _____ _____    ______ ____
ROOT
ATOM     12  C   UNL     1      -0.866  -0.172  24.386  0.00  0.00    +0.206 A 
ATOM     13  N   UNL     1      -0.938  -0.330  25.193  0.00  0.00    -0.056 NA
ATOM     14  O   UNL     1      -1.725  -0.526  25.345  0.00  0.00    -0.336 OA
ATOM     15  C   UNL     1      -2.140  -0.488  24.633  0.00  0.00    +0.251 A 
ATOM     16  N   UNL     1      -1.609  -0.269  24.040  0.00  0.00    -0.190 NA
ENDROOT
BRANCH  12   7
ATOM      6  C   UNL     1       0.110   0.818  24.058  0.00  0.00    +0.151 A 
ATOM      7  C   UNL     1      -0.174   0.046  23.995  0.00  0.00    +0.072 A 
ATOM      8  C   UNL     1       0.235  -0.508  23.541  0.00  0.00    +0.008 A 
ATOM      9  C   UNL     1       0.927  -0.290  23.149  0.00  0.00    +0.021 A 
ATOM     10  C   UNL     1       1.212   0.482  23.211  0.00  0.00    +0.100 A 
ATOM     11  N   UNL     1       0.803   1.036  23.666  0.00  0.00    -0.228 NA
BRANCH   6   5
ATOM      5  N   UNL     1      -0.298   1.372  24.512  0.00  0.00    -0.218 NA
BRANCH   5   4
ATOM      4  C   UNL     1      -0.063   2.163  24.509  0.00  0.00    +0.146 C 
BRANCH   4   3
ATOM      3  C   UNL     1      -0.404   2.697  25.036  0.00  0.00    +0.166 C 
BRANCH   3   2
ATOM      1  C   UNL     1      -1.096   3.924  25.277  0.00  0.00    +0.174 C 
ATOM      2  O   UNL     1      -0.696   3.419  24.763  0.00  0.00    -0.349 OA
ENDBRANCH   3   2
ENDBRANCH   4   3
ENDBRANCH   5   4
ENDBRANCH   6   5
ENDBRANCH  12   7
BRANCH  15  17
ATOM     17  C   UNL     1      -2.944  -0.642  24.531  0.00  0.00    +0.138 C 
ATOM     18  C   UNL     1      -3.293  -1.389  24.492  0.00  0.00    +0.027 C 
ATOM     19  C   UNL     1      -4.105  -1.285  24.387  0.00  0.00    +0.019 C 
ATOM     20  C   UNL     1      -4.257  -0.474  24.361  0.00  0.00    +0.073 C 
ATOM     21  N   UNL     1      -3.539  -0.077  24.450  0.00  0.00    -0.263 NA
BRANCH  21  22
ATOM     22  C   UNL     1      -3.436   0.741  24.456  0.00  0.00    +0.103 C 
BRANCH  22  23
ATOM     23  C   UNL     1      -4.069   1.236  24.642  0.00  0.00    +0.033 A 
ATOM     24  C   UNL     1      -4.178   1.940  24.226  0.00  0.00    +0.196 A 
ATOM     25  O   UNL     1      -3.654   2.149  23.624  0.00  0.00    -0.287 OA
ATOM     26  C   UNL     1      -4.811   2.435  24.412  0.00  0.00    +0.079 A 
ATOM     27  C   UNL     1      -5.335   2.226  25.014  0.00  0.00    +0.142 A 
ATOM     30  C   UNL     1      -5.227   1.522  25.430  0.00  0.00    +0.037 A 
ATOM     31  C   UNL     1      -4.593   1.027  25.244  0.00  0.00    +0.003 A 
BRANCH  27  28
ATOM     28  O   UNL     1      -5.969   2.721  25.200  0.00  0.00    -0.471 OA
ATOM     29  C   UNL     1      -5.861   3.349  25.723  0.00  0.00    +0.252 C 
ENDBRANCH  27  28
ENDBRANCH  22  23
ENDBRANCH  21  22
ENDBRANCH  15  17
TORSDOF 9
ENDMDL
MODEL 7
REMARK VINA RESULT:      -9.3      1.387      4.095
REMARK  Name = 
REMARK  9 active torsions:
REMARK  status: ('A' for Active; 'I' for Inactive)
REMARK    1  A    between atoms: O_2  and  C_3
REMARK    2  A    between atoms: C_3  and  C_4
REMARK    3  A    between atoms: C_4  and  N_5
REMARK    4  A    between atoms: N_5  and  C_6
REMARK    5  A    between atoms: C_7  and  C_12
REMARK    6  A    between atoms: C_15  and  C_17
REMARK    7  A    between atoms: N_21  and  C_22
REMARK    8  A    between atoms: C_22  and  C_23
REMARK    9  A    between atoms: C_27  and  O_28
REMARK                            x       y       z     vdW  Elec       q    Type
REMARK                         _______ _______ _______ _____ _____    ______ ____
ROOT
ATOM     12  C   UNL     1      -0.216   1.642  24.708  0.00  0.00    +0.206 A 
ATOM     13  N   UNL     1      -0.092   1.739  25.519  0.00  0.00    -0.056 NA
ATOM     14  O   UNL     1      -0.445   2.450  25.747  0.00  0.00    -0.336 OA
ATOM     15  C   UNL     1      -0.787   2.791  25.077  0.00  0.00    +0.251 A 
ATOM     16  N   UNL     1      -0.645   2.291  24.436  0.00  0.00    -0.190 NA
ENDROOT
BRANCH  12   7
ATOM      6  C   UNL     1      -0.353   0.283  24.287  0.00  0.00    +0.151 A 
ATOM      7  C   UNL     1       0.044   1.006  24.252  0.00  0.00    +0.072 A 
ATOM      8  C   UNL     1       0.700   1.093  23.760  0.00  0.00    +0.008 A 
ATOM      9  C   UNL     1       0.960   0.457  23.303  0.00  0.00    +0.021 A 
ATOM     10  C   UNL     1       0.564  -0.266  23.338  0.00  0.00    +0.100 A 
ATOM     11  N   UNL     1      -0.093  -0.353  23.831  0.00  0.00    -0.228 NA
BRANCH   6   5
ATOM      5  N   UNL     1      -1.009   0.196  24.779  0.00  0.00    -0.218 NA
BRANCH   5   4
ATOM      4  C   UNL     1      -1.490  -0.471  24.712  0.00  0.00    +0.146 C 
BRANCH   4   3
ATOM      3  C   UNL     1      -2.083  -0.610  25.268  0.00  0.00    +0.166 C 
BRANCH   3   2
ATOM      1  C   UNL     1      -3.437  -0.961  25.558  0.00  0.00    +0.174 C 
ATOM      2  O   UNL     1      -2.865  -0.703  25.023  0.00  0.00    -0.349 OA
ENDBRANCH   3   2
ENDBRANCH   4   3
ENDBRANCH   5   4
ENDBRANCH   6   5
ENDBRANCH  12   7
BRANCH  15  17
ATOM     17  C   UNL     1      -1.198   3.505  25.053  0.00  0.00    +0.138 C 
ATOM     18  C   UNL     1      -0.876   4.255  25.178  0.00  0.00    +0.027 C 
ATOM     19  C   UNL     1      -1.483   4.809  25.102  0.00  0.00    +0.019 C 
ATOM     20  C   UNL     1      -2.179   4.402  24.931  0.00  0.00    +0.073 C 
ATOM     21  N   UNL     1      -2.004   3.596  24.901  0.00  0.00    -0.263 NA
BRANCH  21  22
ATOM     22  C   UNL     1      -2.540   2.989  24.745  0.00  0.00    +0.103 C 
BRANCH  22  23
ATOM     23  C   UNL     1      -3.335   3.079  24.944  0.00  0.00    +0.033 A 
ATOM     24  C   UNL     1      -3.922   2.796  24.438  0.00  0.00    +0.196 A 
ATOM     25  O   UNL     1      -3.713   2.424  23.732  0.00  0.00    -0.287 OA
ATOM     26  C   UNL     1      -4.717   2.887  24.637  0.00  0.00    +0.079 A 
ATOM     27  C   UNL     1      -4.926   3.259  25.342  0.00  0.00    +0.142 A 
ATOM     30  C   UNL     1      -4.340   3.542  25.849  0.00  0.00    +0.037 A 
ATOM     31  C   UNL     1      -3.544   3.452  25.650  0.00  0.00    +0.003 A 
BRANCH  27  28
ATOM     28  O   UNL     1      -5.722   3.349  25.542  0.00  0.00    -0.471 OA
ATOM     29  C   UNL     1      -6.116   2.748  25.946  0.00  0.00    +0.252 C 
ENDBRANCH  27  28
ENDBRANCH  22  23
ENDBRANCH  21  22
ENDBRANCH  15  17
TORSDOF 9
ENDMDL
MODEL 8
REMARK VINA RESULT:      -9.3      1.422      4.074
REMARK  Name = 
REMARK  9 active torsions:
REMARK  status: ('A' for Active; 'I' for Inactive)
REMARK    1  A    between atoms: O_2  and  C_3
REMARK    2  A    between atoms: C_3  and  C_4
REMARK    3  A    between atoms: C_4  and  N_5
REMARK    4  A    between atoms: N_5  and  C_6
REMARK    5  A    between atoms: C_7  and  C_12
REMARK    6  A    between atoms: C_15  and  C_17
REMARK    7  A    between atoms: N_21  and  C_22
REMARK    8  A    between atoms: C_22  and  C_23
REMARK    9  A    between atoms: C_27  and  O_28
REMARK                            x       y       z     vdW  Elec       q    Type
REMARK                         _______ _______ _______ _____ _____    ______ ____
ROOT
ATOM     12  C   UNL     1      -3.931   1.433  24.670  0.00  0.00    +0.206 A 
ATOM     13  N   UNL     1      -3.774   1.317  23.868  0.00  0.00    -0.056 NA
ATOM     14  O   UNL     1      -3.186   0.741  23.803  0.00  0.00    -0.336 OA
ATOM     15  C   UNL     1      -2.980   0.501  24.565  0.00  0.00    +0.251 A 
ATOM     16  N   UNL     1      -3.441   0.928  25.100  0.00  0.00    -0.190 NA
ENDROOT
BRANCH  12   7
ATOM      6  C   UNL     1      -4.259   2.737  25.152  0.00  0.00    +0.151 A 
ATOM      7  C   UNL     1      -4.481   1.960  24.985  0.00  0.00    +0.072 A 
ATOM      8  C   UNL     1      -5.253   1.711  25.133  0.00  0.00    +0.008 A 
ATOM      9  C   UNL     1      -5.804   2.238  25.448  0.00  0.00    +0.021 A 
ATOM     10  C   UNL     1      -5.582   3.015  25.616  0.00  0.00    +0.100 A 
ATOM     11  N   UNL     1      -4.809   3.264  25.468  0.00  0.00    -0.228 NA
BRANCH   6   5
ATOM      5  N   UNL     1      -3.487   2.986  25.004  0.00  0.00    -0.218 NA
BRANCH   5   4
ATOM      4  C   UNL     1      -3.238   3.732  25.256  0.00  0.00    +0.146 C 
BRANCH   4   3
ATOM      3  C   UNL     1      -2.527   4.044  24.981  0.00  0.00    +0.166 C 
BRANCH   3   2
ATOM      1  C   UNL     1      -1.456   4.978  25.134  0.00  0.00    +0.174 C 
ATOM      2  O   UNL     1      -2.093   4.564  25.453  0.00  0.00    -0.349 OA
ENDBRANCH   3   2
ENDBRANCH   4   3
ENDBRANCH   5   4
ENDBRANCH   6   5
ENDBRANCH  12   7
BRANCH  15  17
ATOM     17  C   UNL     1      -2.414  -0.067  24.758  0.00  0.00    +0.138 C 
ATOM     18  C   UNL     1      -2.561  -0.795  25.118  0.00  0.00    +0.027 C 
ATOM     19  C   UNL     1      -1.839  -1.185  25.208  0.00  0.00    +0.019 C 
ATOM     20  C   UNL     1      -1.247  -0.698  24.903  0.00  0.00    +0.073 C 
ATOM     21  N   UNL     1      -1.602  -0.007  24.625  0.00  0.00    -0.263 NA
BRANCH  21  22
ATOM     22  C   UNL     1      -1.214   0.631  24.276  0.00  0.00    +0.103 C 
BRANCH  22  23
ATOM     23  C   UNL     1      -0.454   0.535  23.971  0.00  0.00    +0.033 A 
ATOM     24  C   UNL     1       0.120   1.114  24.101  0.00  0.00    +0.196 A 
ATOM     25  O   UNL     1      -0.067   1.788  24.537  0.00  0.00    -0.287 OA
ATOM     26  C   UNL     1       0.880   1.017  23.796  0.00  0.00    +0.079 A 
ATOM     27  C   UNL     1       1.067   0.343  23.360  0.00  0.00    +0.142 A 
ATOM     30  C   UNL     1       0.494  -0.237  23.229  0.00  0.00    +0.037 A 
ATOM     31  C   UNL     1      -0.267  -0.140  23.535  0.00  0.00    +0.003 A 
BRANCH  27  28
ATOM     28  O   UNL     1       1.828   0.246  23.054  0.00  0.00    -0.471 OA
ATOM     29  C   UNL     1       1.931  -0.082  22.304  0.00  0.00    +0.252 C 
ENDBRANCH  27  28
ENDBRANCH  22  23
ENDBRANCH  21  22
ENDBRANCH  15  17
TORSDOF 9
ENDMDL
