MODEL 1
REMARK VINA RESULT:     -10.2      0.000      0.000
REMARK  Name = 
REMARK  5 active torsions:
REMARK  status: ('A' for Active; 'I' for Inactive)
REMARK    1  A    between atoms: C_12  and  C_13
REMARK    2  A    between atoms: C_13  and  C_14
REMARK    3  A    between atoms: C_14  and  C_15
REMARK    4  A    between atoms: N_17  and  C_18
REMARK    5  A    between atoms: C_18  and  C_19
REMARK                            x       y       z     vdW  Elec       q    Type
REMARK                         _______ _______ _______ _____ _____    ______ ____
ROOT
ATOM      1  C   UNL     1      -3.309   3.509  25.292  0.00  0.00    +0.090 C 
ATOM      2  N   UNL     1      -2.577   3.315  24.963  0.00  0.00    -0.271 NA
ATOM      3  C   UNL     1      -1.996   3.899  25.014  0.00  0.00    +0.084 C 
ATOM      4  C   UNL     1      -2.120   4.634  25.368  0.00  0.00    +0.037 C 
ATOM      5  C   UNL     1      -1.418   5.064  25.313  0.00  0.00    +0.091 C 
ATOM      6  N   UNL     1      -0.861   4.595  24.926  0.00  0.00    -0.209 NA
ATOM      7  C   UNL     1      -1.218   3.875  24.741  0.00  0.00    +0.165 C 
ATOM      8  C   UNL     1      -0.829   3.262  24.349  0.00  0.00    +0.259 C 
ATOM      9  O   UNL     1      -0.043   3.409  24.146  0.00  0.00    -0.272 OA
ATOM     10  N   UNL     1      -1.122   2.522  24.134  0.00  0.00    -0.203 NA
ATOM     11  C   UNL     1      -1.877   2.211  24.257  0.00  0.00    +0.131 C 
ATOM     12  C   UNL     1      -2.524   2.564  24.626  0.00  0.00    +0.080 C 
ENDROOT
BRANCH  12  13
ATOM     13  C   UNL     1      -3.209   2.106  24.663  0.00  0.00    +0.027 C 
BRANCH  13  14
ATOM     14  C   UNL     1      -3.290   1.444  24.179  0.00  0.00    +0.088 C 
BRANCH  14  15
ATOM     15  C   UNL     1      -3.858   0.871  24.354  0.00  0.00    +0.242 C 
ATOM     16  O   UNL     1      -4.631   1.098  24.530  0.00  0.00    -0.273 OA
ATOM     17  N   UNL     1      -3.653   0.072  24.353  0.00  0.00    -0.200 NA
BRANCH  17  18
ATOM     18  C   UNL     1      -4.221  -0.500  24.527  0.00  0.00    +0.143 C 
BRANCH  18  19
ATOM     19  C   UNL     1      -4.013  -1.298  24.539  0.00  0.00    +0.019 A 
ATOM     20  C   UNL     1      -4.190  -1.780  23.895  0.00  0.00    +0.001 A 
ATOM     21  C   UNL     1      -3.982  -2.579  23.906  0.00  0.00    +0.020 A 
ATOM     22  C   UNL     1      -3.597  -2.894  24.564  0.00  0.00    +0.099 A 
ATOM     23  N   UNL     1      -3.420  -2.412  25.210  0.00  0.00    -0.243 NA
ATOM     24  C   UNL     1      -3.628  -1.614  25.197  0.00  0.00    +0.096 A 
ENDBRANCH  18  19
ENDBRANCH  17  18
ENDBRANCH  14  15
ENDBRANCH  13  14
ENDBRANCH  12  13
TORSDOF 5
ENDMDL
MODEL 2
REMARK VINA RESULT:      -9.4      1.360      5.482
REMARK  Name = 
REMARK  5 active torsions:
REMARK  status: ('A' for Active; 'I' for Inactive)
REMARK    1  A    between atoms: C_12  and  C_13
REMARK    2  A    between atoms: C_13  and  C_14
REMARK    3  A    between atoms: C_14  and  C_15
REMARK    4  A    between atoms: N_17  and  C_18
REMARK    5  A    between atoms: C_18  and  C_19
REMARK                            x       y       z     vdW  Elec       q    Type
REMARK                         _______ _______ _______ _____ _____    ______ ____
ROOT
ATOM      1  C   UNL     1      -4.325  -0.484  24.216  0.00  0.00    +0.090 C 
ATOM      2  N   UNL     1      -3.588  -0.807  24.398  0.00  0.00    -0.271 NA
ATOM      3  C   UNL     1      -3.527  -1.626  24.320  0.00  0.00    +0.084 C 
ATOM      4  C   UNL     1      -4.152  -2.107  24.077  0.00  0.00    +0.037 C 
ATOM      5  C   UNL     1      -3.883  -2.887  24.066  0.00  0.00    +0.091 C 
ATOM      6  N   UNL     1      -3.093  -2.888  24.302  0.00  0.00    -0.209 NA
ATOM      7  C   UNL     1      -2.872  -2.109  24.459  0.00  0.00    +0.165 C 
ATOM      8  C   UNL     1      -2.118  -1.892  24.710  0.00  0.00    +0.259 C 
ATOM      9  O   UNL     1      -1.578  -2.510  24.799  0.00  0.00    -0.272 OA
ATOM     10  N   UNL     1      -1.830  -1.139  24.885  0.00  0.00    -0.203 NA
ATOM     11  C   UNL     1      -2.228  -0.416  24.851  0.00  0.00    +0.131 C 
ATOM     12  C   UNL     1      -3.009  -0.269  24.635  0.00  0.00    +0.080 C 
ENDROOT
BRANCH  12  13
ATOM     13  C   UNL     1      -3.245   0.522  24.657  0.00  0.00    +0.027 C 
BRANCH  13  14
ATOM     14  C   UNL     1      -2.765   1.086  25.020  0.00  0.00    +0.088 C 
BRANCH  14  15
ATOM     15  C   UNL     1      -2.957   1.887  24.969  0.00  0.00    +0.242 C 
ATOM     16  O   UNL     1      -3.747   2.119  24.926  0.00  0.00    -0.273 OA
ATOM     17  N   UNL     1      -2.360   2.455  24.960  0.00  0.00    -0.200 NA
BRANCH  17  18
ATOM     18  C   UNL     1      -2.552   3.256  24.909  0.00  0.00    +0.143 C 
BRANCH  18  19
ATOM     19  C   UNL     1      -1.956   3.825  24.925  0.00  0.00    +0.019 A 
ATOM     20  C   UNL     1      -2.111   4.577  25.226  0.00  0.00    +0.001 A 
ATOM     21  C   UNL     1      -1.515   5.147  25.242  0.00  0.00    +0.020 A 
ATOM     22  C   UNL     1      -0.763   4.964  24.957  0.00  0.00    +0.099 A 
ATOM     23  N   UNL     1      -0.607   4.212  24.656  0.00  0.00    -0.243 NA
ATOM     24  C   UNL     1      -1.203   3.643  24.640  0.00  0.00    +0.096 A 
ENDBRANCH  18  19
ENDBRANCH  17  18
ENDBRANCH  14  15
ENDBRANCH  13  14
ENDBRANCH  12  13
TORSDOF 5
ENDMDL
MODEL 3
REMARK VINA RESULT:      -9.3      1.343      5.684
REMARK  Name = 
REMARK  5 active torsions:
REMARK  status: ('A' for Active; 'I' for Inactive)
REMARK    1  A    between atoms: C_12  and  C_13
REMARK    2  A    between atoms: C_13  and  C_14
REMARK    3  A    between atoms: C_14  and  C_15
REMARK    4  A    between atoms: N_17  and  C_18
REMARK    5  A    between atoms: C_18  and  C_19
REMARK                            x       y       z     vdW  Elec       q    Type
REMARK                         _______ _______ _______ _____ _____    ______ ____
ROOT
ATOM      1  C   UNL     1      -1.522  -1.344  25.131  0.00  0.00    +0.090 C 
ATOM      2  N   UNL     1      -2.277  -1.151  24.860  0.00  0.00    -0.271 NA
ATOM      3  C   UNL     1      -2.765  -1.789  24.672  0.00  0.00    +0.084 C 
ATOM      4  C   UNL     1      -2.530  -2.577  24.744  0.00  0.00    +0.037 C 
ATOM      5  C   UNL     1      -3.161  -3.054  24.508  0.00  0.00    +0.091 C 
ATOM      6  N   UNL     1      -3.785  -2.560  24.289  0.00  0.00    -0.209 NA
ATOM      7  C   UNL     1      -3.541  -1.779  24.391  0.00  0.00    +0.165 C 
ATOM      8  C   UNL     1      -4.019  -1.128  24.228  0.00  0.00    +0.259 C 
ATOM      9  O   UNL     1      -4.777  -1.301  23.950  0.00  0.00    -0.272 OA
ATOM     10  N   UNL     1      -3.842  -0.326  24.306  0.00  0.00    -0.203 NA
ATOM     11  C   UNL     1      -3.141   0.022  24.567  0.00  0.00    +0.131 C 
ATOM     12  C   UNL     1      -2.445  -0.344  24.813  0.00  0.00    +0.080 C 
ENDROOT
BRANCH  12  13
ATOM     13  C   UNL     1      -1.835   0.161  25.043  0.00  0.00    +0.027 C 
BRANCH  13  14
ATOM     14  C   UNL     1      -1.781   0.918  24.719  0.00  0.00    +0.088 C 
BRANCH  14  15
ATOM     15  C   UNL     1      -1.309   1.489  25.081  0.00  0.00    +0.242 C 
ATOM     16  O   UNL     1      -0.616   1.266  25.469  0.00  0.00    -0.273 OA
ATOM     17  N   UNL     1      -1.529   2.284  25.055  0.00  0.00    -0.200 NA
BRANCH  17  18
ATOM     18  C   UNL     1      -1.056   2.855  25.416  0.00  0.00    +0.143 C 
BRANCH  18  19
ATOM     19  C   UNL     1      -1.249   3.654  25.348  0.00  0.00    +0.019 A 
ATOM     20  C   UNL     1      -0.718   4.177  24.995  0.00  0.00    +0.001 A 
ATOM     21  C   UNL     1      -0.911   4.977  24.926  0.00  0.00    +0.020 A 
ATOM     22  C   UNL     1      -1.635   5.252  25.210  0.00  0.00    +0.099 A 
ATOM     23  N   UNL     1      -2.166   4.728  25.563  0.00  0.00    -0.243 NA
ATOM     24  C   UNL     1      -1.973   3.929  25.632  0.00  0.00    +0.096 A 
ENDBRANCH  18  19
ENDBRANCH  17  18
ENDBRANCH  14  15
ENDBRANCH  13  14
ENDBRANCH  12  13
TORSDOF 5
ENDMDL
MODEL 4
REMARK VINA RESULT:      -8.7      2.352      3.138
REMARK  Name = 
REMARK  5 active torsions:
REMARK  status: ('A' for Active; 'I' for Inactive)
REMARK    1  A    between atoms: C_12  and  C_13
REMARK    2  A    between atoms: C_13  and  C_14
REMARK    3  A    between atoms: C_14  and  C_15
REMARK    4  A    between atoms: N_17  and  C_18
REMARK    5  A    between atoms: C_18  and  C_19
REMARK                            x       y       z     vdW  Elec       q    Type
REMARK                         _______ _______ _______ _____ _____    ______ ____
ROOT
ATOM      1  C   UNL     1      -3.611   2.022  23.906  0.00  0.00    +0.090 C 
ATOM      2  N   UNL     1      -4.202   2.072  24.478  0.00  0.00    -0.271 NA
ATOM      3  C   UNL     1      -4.373   2.832  24.752  0.00  0.00    +0.084 C 
ATOM      4  C   UNL     1      -3.986   3.509  24.483  0.00  0.00    +0.037 C 
ATOM      5  C   UNL     1      -4.303   4.159  24.880  0.00  0.00    +0.091 C 
ATOM      6  N   UNL     1      -4.886   3.883  25.396  0.00  0.00    -0.209 NA
ATOM      7  C   UNL     1      -4.929   3.063  25.316  0.00  0.00    +0.165 C 
ATOM      8  C   UNL     1      -5.451   2.591  25.746  0.00  0.00    +0.259 C 
ATOM      9  O   UNL     1      -5.943   2.991  26.274  0.00  0.00    -0.272 OA
ATOM     10  N   UNL     1      -5.548   1.773  25.718  0.00  0.00    -0.203 NA
ATOM     11  C   UNL     1      -5.144   1.223  25.253  0.00  0.00    +0.131 C 
ATOM     12  C   UNL     1      -4.546   1.356  24.701  0.00  0.00    +0.080 C 
ENDROOT
BRANCH  12  13
ATOM     13  C   UNL     1      -4.252   0.685  24.322  0.00  0.00    +0.027 C 
BRANCH  13  14
ATOM     14  C   UNL     1      -4.293  -0.050  24.693  0.00  0.00    +0.088 C 
BRANCH  14  15
ATOM     15  C   UNL     1      -3.857  -0.687  24.398  0.00  0.00    +0.242 C 
ATOM     16  O   UNL     1      -4.170  -1.157  23.798  0.00  0.00    -0.273 OA
ATOM     17  N   UNL     1      -3.110  -0.852  24.704  0.00  0.00    -0.200 NA
BRANCH  17  18
ATOM     18  C   UNL     1      -2.674  -1.488  24.410  0.00  0.00    +0.143 C 
BRANCH  18  19
ATOM     19  C   UNL     1      -1.902  -1.614  24.668  0.00  0.00    +0.019 A 
ATOM     20  C   UNL     1      -1.628  -2.382  24.793  0.00  0.00    +0.001 A 
ATOM     21  C   UNL     1      -0.855  -2.508  25.051  0.00  0.00    +0.020 A 
ATOM     22  C   UNL     1      -0.355  -1.866  25.185  0.00  0.00    +0.099 A 
ATOM     23  N   UNL     1      -0.628  -1.097  25.060  0.00  0.00    -0.243 NA
ATOM     24  C   UNL     1      -1.402  -0.972  24.802  0.00  0.00    +0.096 A 
ENDBRANCH  18  19
ENDBRANCH  17  18
ENDBRANCH  14  15
ENDBRANCH  13  14
ENDBRANCH  12  13
TORSDOF 5
ENDMDL
MODEL 5
REMARK VINA RESULT:      -8.5      2.000      5.142
REMARK  Name = 
REMARK  5 active torsions:
REMARK  status: ('A' for Active; 'I' for Inactive)
REMARK    1  A    between atoms: C_12  and  C_13
REMARK    2  A    between atoms: C_13  and  C_14
REMARK    3  A    between atoms: C_14  and  C_15
REMARK    4  A    between atoms: N_17  and  C_18
REMARK    5  A    between atoms: C_18  and  C_19
REMARK                            x       y       z     vdW  Elec       q    Type
REMARK                         _______ _______ _______ _____ _____    ______ ____
ROOT
ATOM      1  C   UNL     1      -4.179  -1.051  23.991  0.00  0.00    +0.090 C 
ATOM      2  N   UNL     1      -3.394  -1.187  24.204  0.00  0.00    -0.271 NA
ATOM      3  C   UNL     1      -3.204  -1.966  24.399  0.00  0.00    +0.084 C 
ATOM      4  C   UNL     1      -3.752  -2.583  24.387  0.00  0.00    +0.037 C 
ATOM      5  C   UNL     1      -3.362  -3.274  24.612  0.00  0.00    +0.091 C 
ATOM      6  N   UNL     1      -2.573  -3.084  24.764  0.00  0.00    -0.209 NA
ATOM      7  C   UNL     1      -2.476  -2.275  24.632  0.00  0.00    +0.165 C 
ATOM      8  C   UNL     1      -1.757  -1.882  24.727  0.00  0.00    +0.259 C 
ATOM      9  O   UNL     1      -1.122  -2.351  24.968  0.00  0.00    -0.272 OA
ATOM     10  N   UNL     1      -1.589  -1.083  24.614  0.00  0.00    -0.203 NA
ATOM     11  C   UNL     1      -2.099  -0.479  24.377  0.00  0.00    +0.131 C 
ATOM     12  C   UNL     1      -2.901  -0.525  24.194  0.00  0.00    +0.080 C 
ENDROOT
BRANCH  12  13
ATOM     13  C   UNL     1      -3.260   0.185  23.973  0.00  0.00    +0.027 C 
BRANCH  13  14
ATOM     14  C   UNL     1      -2.823   0.883  23.963  0.00  0.00    +0.088 C 
BRANCH  14  15
ATOM     15  C   UNL     1      -3.190   1.598  23.776  0.00  0.00    +0.242 C 
ATOM     16  O   UNL     1      -3.098   1.924  23.024  0.00  0.00    -0.273 OA
ATOM     17  N   UNL     1      -3.649   1.987  24.340  0.00  0.00    -0.200 NA
BRANCH  17  18
ATOM     18  C   UNL     1      -4.016   2.702  24.153  0.00  0.00    +0.143 C 
BRANCH  18  19
ATOM     19  C   UNL     1      -4.509   3.069  24.702  0.00  0.00    +0.019 A 
ATOM     20  C   UNL     1      -5.203   2.698  24.947  0.00  0.00    +0.001 A 
ATOM     21  C   UNL     1      -5.697   3.065  25.497  0.00  0.00    +0.020 A 
ATOM     22  C   UNL     1      -5.495   3.804  25.802  0.00  0.00    +0.099 A 
ATOM     23  N   UNL     1      -4.800   4.177  25.558  0.00  0.00    -0.243 NA
ATOM     24  C   UNL     1      -4.307   3.808  25.008  0.00  0.00    +0.096 A 
ENDBRANCH  18  19
ENDBRANCH  17  18
ENDBRANCH  14  15
ENDBRANCH  13  14
ENDBRANCH  12  13
TORSDOF 5
ENDMDL
MODEL 6
REMARK VINA RESULT:      -8.4      2.428      4.161
REMARK  Name = 
REMARK  5 active torsions:
REMARK  status: ('A' for Active; 'I' for Inactive)
REMARK    1  A    between atoms: C_12  and  C_13
REMARK    2  A    between atoms: C_13  and  C_14
REMARK    3  A    between atoms: C_14  and  C_15
REMARK    4  A    between atoms: N_17  and  C_18
REMARK    5  A    between atoms: C_18  and  C_19
REMARK                            x       y       z     vdW  Elec       q    Type
REMARK                         _______ _______ _______ _____ _____    ______ ____
ROOT
ATOM      1  C   UNL     1      -1.834   0.233  25.637  0.00  0.00    +0.090 C 
ATOM      2  N   UNL     1      -1.290   0.255  25.018  0.00  0.00    -0.271 NA
ATOM      3  C   UNL     1      -0.845  -0.430  24.907  0.00  0.00    +0.084 C 
ATOM      4  C   UNL     1      -0.925  -1.105  25.376  0.00  0.00    +0.037 C 
ATOM      5  C   UNL     1      -0.392  -1.671  25.100  0.00  0.00    +0.091 C 
ATOM      6  N   UNL     1       0.018  -1.347  24.461  0.00  0.00    -0.209 NA
ATOM      7  C   UNL     1      -0.262  -0.580  24.342  0.00  0.00    +0.165 C 
ATOM      8  C   UNL     1       0.018  -0.081  23.748  0.00  0.00    +0.259 C 
ATOM      9  O   UNL     1       0.609  -0.395  23.266  0.00  0.00    -0.272 OA
ATOM     10  N   UNL     1      -0.214   0.691  23.573  0.00  0.00    -0.203 NA
ATOM     11  C   UNL     1      -0.784   1.154  23.948  0.00  0.00    +0.131 C 
ATOM     12  C   UNL     1      -1.263   0.961  24.590  0.00  0.00    +0.080 C 
ENDROOT
BRANCH  12  13
ATOM     13  C   UNL     1      -1.784   1.550  24.840  0.00  0.00    +0.027 C 
BRANCH  13  14
ATOM     14  C   UNL     1      -2.088   2.090  24.296  0.00  0.00    +0.088 C 
BRANCH  14  15
ATOM     15  C   UNL     1      -2.633   2.659  24.540  0.00  0.00    +0.242 C 
ATOM     16  O   UNL     1      -2.379   3.423  24.718  0.00  0.00    -0.273 OA
ATOM     17  N   UNL     1      -3.432   2.466  24.605  0.00  0.00    -0.200 NA
BRANCH  17  18
ATOM     18  C   UNL     1      -3.977   3.035  24.848  0.00  0.00    +0.143 C 
BRANCH  18  19
ATOM     19  C   UNL     1      -4.720   2.806  25.121  0.00  0.00    +0.019 A 
ATOM     20  C   UNL     1      -5.167   2.262  24.692  0.00  0.00    +0.001 A 
ATOM     21  C   UNL     1      -5.911   2.032  24.964  0.00  0.00    +0.020 A 
ATOM     22  C   UNL     1      -6.208   2.346  25.667  0.00  0.00    +0.099 A 
ATOM     23  N   UNL     1      -5.760   2.890  26.097  0.00  0.00    -0.243 NA
ATOM     24  C   UNL     1      -5.017   3.120  25.824  0.00  0.00    +0.096 A 
ENDBRANCH  18  19
ENDBRANCH  17  18
ENDBRANCH  14  15
ENDBRANCH  13  14
ENDBRANCH  12  13
TORSDOF 5
ENDMDL
MODEL 7
REMARK VINA RESULT:      -8.2      1.617      2.298
REMARK  Name = 
REMARK  5 active torsions:
REMARK  status: ('A' for Active; 'I' for Inactive)
REMARK    1  A    between atoms: C_12  and  C_13
REMARK    2  A    between atoms: C_13  and  C_14
REMARK    3  A    between atoms: C_14  and  C_15
REMARK    4  A    between atoms: N_17  and  C_18
REMARK    5  A    between atoms: C_18  and  C_19
REMARK                            x       y       z     vdW  Elec       q    Type
REMARK                         _______ _______ _______ _____ _____    ______ ____
ROOT
ATOM      1  C   UNL     1      -4.576   1.749  24.542  0.00  0.00    +0.090 C 
ATOM      2  N   UNL     1      -4.086   2.312  24.895  0.00  0.00    -0.271 NA
ATOM      3  C   UNL     1      -4.467   2.971  25.212  0.00  0.00    +0.084 C 
ATOM      4  C   UNL     1      -5.285   3.079  25.188  0.00  0.00    +0.037 C 
ATOM      5  C   UNL     1      -5.459   3.795  25.557  0.00  0.00    +0.091 C 
ATOM      6  N   UNL     1      -4.749   4.131  25.810  0.00  0.00    -0.209 NA
ATOM      7  C   UNL     1      -4.136   3.622  25.597  0.00  0.00    +0.165 C 
ATOM      8  C   UNL     1      -3.342   3.773  25.759  0.00  0.00    +0.259 C 
ATOM      9  O   UNL     1      -3.185   4.480  26.156  0.00  0.00    -0.272 OA
ATOM     10  N   UNL     1      -2.682   3.313  25.577  0.00  0.00    -0.203 NA
ATOM     11  C   UNL     1      -2.655   2.585  25.187  0.00  0.00    +0.131 C 
ATOM     12  C   UNL     1      -3.278   2.140  24.884  0.00  0.00    +0.080 C 
ENDROOT
BRANCH  12  13
ATOM     13  C   UNL     1      -3.069   1.429  24.521  0.00  0.00    +0.027 C 
BRANCH  13  14
ATOM     14  C   UNL     1      -2.426   0.996  24.802  0.00  0.00    +0.088 C 
BRANCH  14  15
ATOM     15  C   UNL     1      -2.223   0.280  24.445  0.00  0.00    +0.242 C 
ATOM     16  O   UNL     1      -1.603   0.253  23.901  0.00  0.00    -0.273 OA
ATOM     17  N   UNL     1      -2.637  -0.407  24.633  0.00  0.00    -0.200 NA
BRANCH  17  18
ATOM     18  C   UNL     1      -2.434  -1.123  24.276  0.00  0.00    +0.143 C 
BRANCH  18  19
ATOM     19  C   UNL     1      -2.903  -1.790  24.392  0.00  0.00    +0.019 A 
ATOM     20  C   UNL     1      -3.589  -1.894  23.946  0.00  0.00    +0.001 A 
ATOM     21  C   UNL     1      -4.060  -2.562  24.061  0.00  0.00    +0.020 A 
ATOM     22  C   UNL     1      -3.844  -3.126  24.623  0.00  0.00    +0.099 A 
ATOM     23  N   UNL     1      -3.157  -3.022  25.070  0.00  0.00    -0.243 NA
ATOM     24  C   UNL     1      -2.687  -2.354  24.953  0.00  0.00    +0.096 A 
ENDBRANCH  18  19
ENDBRANCH  17  18
ENDBRANCH  14  15
ENDBRANCH  13  14
ENDBRANCH  12  13
TORSDOF 5
ENDMDL
MODEL 8
REMARK VINA RESULT:      -8.2      2.615      4.297
REMARK  Name = 
REMARK  5 active torsions:
REMARK  status: ('A' for Active; 'I' for Inactive)
REMARK    1  A    between atoms: C_12  and  C_13
REMARK    2  A    between atoms: C_13  and  C_14
REMARK    3  A    between atoms: C_14  and  C_15
REMARK    4  A    between atoms: N_17  and  C_18
REMARK    5  A    between atoms: C_18  and  C_19
REMARK                            x       y       z     vdW  Elec       q    Type
REMARK                         _______ _______ _______ _____ _____    ______ ____
ROOT
ATOM      1  C   UNL     1      -1.703   0.789  23.620  0.00  0.00    +0.090 C 
ATOM      2  N   UNL     1      -1.508   0.135  24.084  0.00  0.00    -0.271 NA
ATOM      3  C   UNL     1      -0.718  -0.099  24.060  0.00  0.00    +0.084 C 
ATOM      4  C   UNL     1      -0.144   0.283  23.607  0.00  0.00    +0.037 C 
ATOM      5  C   UNL     1       0.574  -0.105  23.723  0.00  0.00    +0.091 C 
ATOM      6  N   UNL     1       0.445  -0.728  24.249  0.00  0.00    -0.209 NA
ATOM      7  C   UNL     1      -0.354  -0.724  24.457  0.00  0.00    +0.165 C 
ATOM      8  C   UNL     1      -0.690  -1.269  24.976  0.00  0.00    +0.259 C 
ATOM      9  O   UNL     1      -0.175  -1.835  25.286  0.00  0.00    -0.272 OA
ATOM     10  N   UNL     1      -1.474  -1.324  25.227  0.00  0.00    -0.203 NA
ATOM     11  C   UNL     1      -2.115  -0.847  25.020  0.00  0.00    +0.131 C 
ATOM     12  C   UNL     1      -2.130  -0.198  24.512  0.00  0.00    +0.080 C 
ENDROOT
BRANCH  12  13
ATOM     13  C   UNL     1      -2.865   0.167  24.418  0.00  0.00    +0.027 C 
BRANCH  13  14
ATOM     14  C   UNL     1      -3.467   0.029  24.963  0.00  0.00    +0.088 C 
BRANCH  14  15
ATOM     15  C   UNL     1      -4.209   0.374  24.856  0.00  0.00    +0.242 C 
ATOM     16  O   UNL     1      -4.810  -0.051  24.483  0.00  0.00    -0.273 OA
ATOM     17  N   UNL     1      -4.350   1.142  25.120  0.00  0.00    -0.200 NA
BRANCH  17  18
ATOM     18  C   UNL     1      -5.092   1.487  25.013  0.00  0.00    +0.143 C 
BRANCH  18  19
ATOM     19  C   UNL     1      -5.220   2.268  25.240  0.00  0.00    +0.019 A 
ATOM     20  C   UNL     1      -4.837   2.882  24.845  0.00  0.00    +0.001 A 
ATOM     21  C   UNL     1      -4.966   3.664  25.072  0.00  0.00    +0.020 A 
ATOM     22  C   UNL     1      -5.478   3.833  25.696  0.00  0.00    +0.099 A 
ATOM     23  N   UNL     1      -5.862   3.219  26.093  0.00  0.00    -0.243 NA
ATOM     24  C   UNL     1      -5.733   2.437  25.865  0.00  0.00    +0.096 A 
ENDBRANCH  18  19
ENDBRANCH  17  18
ENDBRANCH  14  15
ENDBRANCH  13  14
ENDBRANCH  12  13
TORSDOF 5
ENDMDL
MODEL 9
REMARK VINA RESULT:      -8.1     15.383     18.043
REMARK  Name = 
REMARK  5 active torsions:
REMARK  status: ('A' for Active; 'I' for Inactive)
REMARK    1  A    between atoms: C_12  and  C_13
REMARK    2  A    between atoms: C_13  and  C_14
REMARK    3  A    between atoms: C_14  and  C_15
REMARK    4  A    between atoms: N_17  and  C_18
REMARK    5  A    between atoms: C_18  and  C_19
REMARK                            x       y       z     vdW  Elec       q    Type
REMARK                         _______ _______ _______ _____ _____    ______ ____
ROOT
ATOM      1  C   UNL     1      12.365   8.963  20.784  0.00  0.00    +0.090 C 
ATOM      2  N   UNL     1      11.965   8.264  20.961  0.00  0.00    -0.271 NA
ATOM      3  C   UNL     1      11.392   8.319  21.553  0.00  0.00    +0.084 C 
ATOM      4  C   UNL     1      11.218   9.019  21.953  0.00  0.00    +0.037 C 
ATOM      5  C   UNL     1      10.621   8.859  22.500  0.00  0.00    +0.091 C 
ATOM      6  N   UNL     1      10.427   8.059  22.438  0.00  0.00    -0.209 NA
ATOM      7  C   UNL     1      10.903   7.726  21.853  0.00  0.00    +0.165 C 
ATOM      8  C   UNL     1      10.866   6.932  21.635  0.00  0.00    +0.259 C 
ATOM      9  O   UNL     1      10.314   6.473  22.042  0.00  0.00    -0.272 OA
ATOM     10  N   UNL     1      11.308   6.534  21.063  0.00  0.00    -0.203 NA
ATOM     11  C   UNL     1      11.898   6.833  20.568  0.00  0.00    +0.131 C 
ATOM     12  C   UNL     1      12.189   7.602  20.523  0.00  0.00    +0.080 C 
ENDROOT
BRANCH  12  13
ATOM     13  C   UNL     1      12.785   7.728  19.966  0.00  0.00    +0.027 C 
BRANCH  13  14
ATOM     14  C   UNL     1      13.168   7.086  19.619  0.00  0.00    +0.088 C 
BRANCH  14  15
ATOM     15  C   UNL     1      13.833   7.207  19.146  0.00  0.00    +0.242 C 
ATOM     16  O   UNL     1      13.765   7.630  18.441  0.00  0.00    -0.273 OA
ATOM     17  N   UNL     1      14.565   6.907  19.378  0.00  0.00    -0.200 NA
BRANCH  17  18
ATOM     18  C   UNL     1      15.230   7.029  18.905  0.00  0.00    +0.143 C 
BRANCH  18  19
ATOM     19  C   UNL     1      15.955   6.697  19.117  0.00  0.00    +0.019 A 
ATOM     20  C   UNL     1      16.380   7.007  19.752  0.00  0.00    +0.001 A 
ATOM     21  C   UNL     1      17.104   6.675  19.965  0.00  0.00    +0.020 A 
ATOM     22  C   UNL     1      17.404   6.033  19.542  0.00  0.00    +0.099 A 
ATOM     23  N   UNL     1      16.979   5.723  18.906  0.00  0.00    -0.243 NA
ATOM     24  C   UNL     1      16.254   6.055  18.694  0.00  0.00    +0.096 A 
ENDBRANCH  18  19
ENDBRANCH  17  18
ENDBRANCH  14  15
ENDBRANCH  13  14
ENDBRANCH  12  13
TORSDOF 5
ENDMDL
MODEL 10
REMARK VINA RESULT:      -7.9      2.815      3.467
REMARK  Name = 
REMARK  5 active torsions:
REMARK  status: ('A' for Active; 'I' for Inactive)
REMARK    1  A    between atoms: C_12  and  C_13
REMARK    2  A    between atoms: C_13  and  C_14
REMARK    3  A    between atoms: C_14  and  C_15
REMARK    4  A    between atoms: N_17  and  C_18
REMARK    5  A    between atoms: C_18  and  C_19
REMARK                            x       y       z     vdW  Elec       q    Type
REMARK                         _______ _______ _______ _____ _____    ______ ____
ROOT
ATOM      1  C   UNL     1      -1.511   2.182  23.552  0.00  0.00    +0.090 C 
ATOM      2  N   UNL     1      -1.120   2.382  24.250  0.00  0.00    -0.271 NA
ATOM      3  C   UNL     1      -0.385   2.026  24.365  0.00  0.00    +0.084 C 
ATOM      4  C   UNL     1      -0.047   1.499  23.828  0.00  0.00    +0.037 C 
ATOM      5  C   UNL     1       0.683   1.261  24.130  0.00  0.00    +0.091 C 
ATOM      6  N   UNL     1       0.795   1.639  24.854  0.00  0.00    -0.209 NA
ATOM      7  C   UNL     1       0.135   2.112  25.000  0.00  0.00    +0.165 C 
ATOM      8  C   UNL     1       0.049   2.576  25.676  0.00  0.00    +0.259 C 
ATOM      9  O   UNL     1       0.673   2.544  26.215  0.00  0.00    -0.272 OA
ATOM     10  N   UNL     1      -0.579   3.069  25.885  0.00  0.00    -0.203 NA
ATOM     11  C   UNL     1      -1.276   3.219  25.469  0.00  0.00    +0.131 C 
ATOM     12  C   UNL     1      -1.517   2.914  24.742  0.00  0.00    +0.080 C 
ENDROOT
BRANCH  12  13
ATOM     13  C   UNL     1      -2.251   3.173  24.470  0.00  0.00    +0.027 C 
BRANCH  13  14
ATOM     14  C   UNL     1      -2.735   3.629  24.957  0.00  0.00    +0.088 C 
BRANCH  14  15
ATOM     15  C   UNL     1      -3.540   3.699  24.791  0.00  0.00    +0.242 C 
ATOM     16  O   UNL     1      -3.800   4.248  24.233  0.00  0.00    -0.273 OA
ATOM     17  N   UNL     1      -4.085   3.220  25.182  0.00  0.00    -0.200 NA
BRANCH  17  18
ATOM     18  C   UNL     1      -4.891   3.290  25.017  0.00  0.00    +0.143 C 
BRANCH  18  19
ATOM     19  C   UNL     1      -5.425   2.745  25.328  0.00  0.00    +0.019 A 
ATOM     20  C   UNL     1      -5.706   2.128  24.858  0.00  0.00    +0.001 A 
ATOM     21  C   UNL     1      -6.241   1.582  25.169  0.00  0.00    +0.020 A 
ATOM     22  C   UNL     1      -6.495   1.654  25.951  0.00  0.00    +0.099 A 
ATOM     23  N   UNL     1      -6.213   2.271  26.422  0.00  0.00    -0.243 NA
ATOM     24  C   UNL     1      -5.679   2.816  26.110  0.00  0.00    +0.096 A 
ENDBRANCH  18  19
ENDBRANCH  17  18
ENDBRANCH  14  15
ENDBRANCH  13  14
ENDBRANCH  12  13
TORSDOF 5
ENDMDL
