MODEL 1
REMARK VINA RESULT:     -14.3      0.000      0.000
REMARK  Name = 
REMARK  4 active torsions:
REMARK  status: ('A' for Active; 'I' for Inactive)
REMARK    1  A    between atoms: C_5  and  S_8
REMARK    2  A    between atoms: S_8  and  N_11
REMARK    3  A    between atoms: N_11  and  C_12
REMARK    4  A    between atoms: C_22  and  C_24
REMARK                            x       y       z     vdW  Elec       q    Type
REMARK                         _______ _______ _______ _____ _____    ______ ____
ROOT
ATOM     12  C   UNL     1      -3.508   1.457  24.824  0.00  0.00    +0.147 A 
ATOM     13  C   UNL     1      -2.748   1.135  24.813  0.00  0.00    +0.024 A 
ATOM     14  C   UNL     1      -2.091   1.621  24.924  0.00  0.00    +0.014 A 
ATOM     15  C   UNL     1      -2.194   2.430  25.047  0.00  0.00    +0.041 A 
ATOM     16  C   UNL     1      -1.709   3.197  25.193  0.00  0.00    +0.058 C 
ATOM     17  C   UNL     1      -1.050   3.426  25.264  0.00  0.00    +0.011 C 
ATOM     18  C   UNL     1      -1.801   3.741  25.275  0.00  0.00    +0.043 C 
ATOM     19  C   UNL     1      -2.613   4.301  25.321  0.00  0.00    +0.096 C 
ATOM     20  N   UNL     1      -3.195   3.715  25.198  0.00  0.00    -0.270 N 
ATOM     21  C   UNL     1      -2.485   3.752  25.241  0.00  0.00    +0.100 C 
ATOM     22  C   UNL     1      -4.087   3.679  25.146  0.00  0.00    +0.329 C 
ATOM     23  O   UNL     1      -4.723   4.274  25.206  0.00  0.00    -0.263 OA
ATOM     27  C   UNL     1      -2.316   2.945  25.122  0.00  0.00    +0.110 C 
ATOM     28  N   UNL     1      -2.954   2.753  25.058  0.00  0.00    -0.298 N 
ATOM     29  C   UNL     1      -3.610   2.266  24.947  0.00  0.00    +0.277 A 
ATOM     30  O   UNL     1      -4.477   2.740  24.977  0.00  0.00    -0.266 OA
ENDROOT
BRANCH  22  24
ATOM     24  C   UNL     1      -3.928   2.804  25.015  0.00  0.00    +0.440 C 
ATOM     25  O   UNL     1      -3.899   2.428  24.122  0.00  0.00    -0.235 OA
ATOM     26  O   UNL     1      -3.766   2.091  25.581  0.00  0.00    -0.235 OA
ENDBRANCH  22  24
BRANCH  12  11
ATOM     11  N   UNL     1      -4.274   1.006  24.713  0.00  0.00    -0.092 NA
BRANCH  11   8
ATOM      8  S   UNL     1      -4.095   0.169  24.648  0.00  0.00    +0.093 S 
ATOM      9  O   UNL     1      -4.474   0.061  25.431  0.00  0.00    -0.148 OA
ATOM     10  O   UNL     1      -3.680   0.015  23.883  0.00  0.00    -0.148 OA
BRANCH   8   5
ATOM      1  C   UNL     1      -3.515  -3.095  24.493  0.00  0.00    +0.031 C 
ATOM      2  C   UNL     1      -3.657  -2.284  24.538  0.00  0.00    -0.022 A 
ATOM      3  C   UNL     1      -3.468  -1.870  25.226  0.00  0.00    -0.003 A 
ATOM      4  C   UNL     1      -3.610  -1.059  25.271  0.00  0.00    +0.020 A 
ATOM      5  C   UNL     1      -3.940  -0.661  24.628  0.00  0.00    +0.127 A 
ATOM      6  C   UNL     1      -4.129  -1.075  23.940  0.00  0.00    +0.020 A 
ATOM      7  C   UNL     1      -3.987  -1.887  23.895  0.00  0.00    -0.003 A 
ENDBRANCH   8   5
ENDBRANCH  11   8
ENDBRANCH  12  11
TORSDOF 4
ENDMDL
MODEL 2
REMARK VINA RESULT:     -14.2      1.123      1.980
REMARK  Name = 
REMARK  4 active torsions:
REMARK  status: ('A' for Active; 'I' for Inactive)
REMARK    1  A    between atoms: C_5  and  S_8
REMARK    2  A    between atoms: S_8  and  N_11
REMARK    3  A    between atoms: N_11  and  C_12
REMARK    4  A    between atoms: C_22  and  C_24
REMARK                            x       y       z     vdW  Elec       q    Type
REMARK                         _______ _______ _______ _____ _____    ______ ____
ROOT
ATOM     12  C   UNL     1      -3.791   1.177  24.697  0.00  0.00    +0.147 A 
ATOM     13  C   UNL     1      -4.506   0.834  24.925  0.00  0.00    +0.024 A 
ATOM     14  C   UNL     1      -5.118   1.307  25.211  0.00  0.00    +0.014 A 
ATOM     15  C   UNL     1      -5.015   2.123  25.268  0.00  0.00    +0.041 A 
ATOM     16  C   UNL     1      -5.464   2.883  25.527  0.00  0.00    +0.058 C 
ATOM     17  C   UNL     1      -6.081   3.097  25.784  0.00  0.00    +0.011 C 
ATOM     18  C   UNL     1      -5.373   3.432  25.558  0.00  0.00    +0.043 C 
ATOM     19  C   UNL     1      -4.607   4.015  25.338  0.00  0.00    +0.096 C 
ATOM     20  N   UNL     1      -4.066   3.440  25.067  0.00  0.00    -0.270 N 
ATOM     21  C   UNL     1      -4.731   3.460  25.320  0.00  0.00    +0.100 C 
ATOM     22  C   UNL     1      -3.229   3.425  24.751  0.00  0.00    +0.329 C 
ATOM     23  O   UNL     1      -2.628   4.039  24.598  0.00  0.00    -0.263 OA
ATOM     27  C   UNL     1      -4.897   2.644  25.285  0.00  0.00    +0.110 C 
ATOM     28  N   UNL     1      -4.300   2.466  25.040  0.00  0.00    -0.298 N 
ATOM     29  C   UNL     1      -3.688   1.993  24.754  0.00  0.00    +0.277 A 
ATOM     30  O   UNL     1      -2.871   2.491  24.506  0.00  0.00    -0.266 OA
ENDROOT
BRANCH  22  24
ATOM     24  C   UNL     1      -3.386   2.542  24.706  0.00  0.00    +0.440 C 
ATOM     25  O   UNL     1      -3.671   2.126  23.877  0.00  0.00    -0.235 OA
ATOM     26  O   UNL     1      -3.339   1.850  25.317  0.00  0.00    -0.235 OA
ENDBRANCH  22  24
BRANCH  12  11
ATOM     11  N   UNL     1      -3.075   0.742  24.376  0.00  0.00    -0.092 NA
BRANCH  11   8
ATOM      8  S   UNL     1      -3.248  -0.099  24.360  0.00  0.00    +0.093 S 
ATOM      9  O   UNL     1      -2.682  -0.195  25.023  0.00  0.00    -0.148 OA
ATOM     10  O   UNL     1      -3.839  -0.266  23.724  0.00  0.00    -0.148 OA
BRANCH   8   5
ATOM      1  C   UNL     1      -3.737  -3.379  24.501  0.00  0.00    +0.031 C 
ATOM      2  C   UNL     1      -3.620  -2.563  24.461  0.00  0.00    -0.022 A 
ATOM      3  C   UNL     1      -4.037  -2.113  23.909  0.00  0.00    -0.003 A 
ATOM      4  C   UNL     1      -3.920  -1.298  23.869  0.00  0.00    +0.020 A 
ATOM      5  C   UNL     1      -3.386  -0.932  24.381  0.00  0.00    +0.127 A 
ATOM      6  C   UNL     1      -2.969  -1.382  24.932  0.00  0.00    +0.020 A 
ATOM      7  C   UNL     1      -3.086  -2.198  24.972  0.00  0.00    -0.003 A 
ENDBRANCH   8   5
ENDBRANCH  11   8
ENDBRANCH  12  11
TORSDOF 4
ENDMDL
MODEL 3
REMARK VINA RESULT:     -13.6      1.976      4.894
REMARK  Name = 
REMARK  4 active torsions:
REMARK  status: ('A' for Active; 'I' for Inactive)
REMARK    1  A    between atoms: C_5  and  S_8
REMARK    2  A    between atoms: S_8  and  N_11
REMARK    3  A    between atoms: N_11  and  C_12
REMARK    4  A    between atoms: C_22  and  C_24
REMARK                            x       y       z     vdW  Elec       q    Type
REMARK                         _______ _______ _______ _____ _____    ______ ____
ROOT
ATOM     12  C   UNL     1      -1.804   0.663  24.962  0.00  0.00    +0.147 A 
ATOM     13  C   UNL     1      -2.499   1.063  24.767  0.00  0.00    +0.024 A 
ATOM     14  C   UNL     1      -3.174   0.639  24.555  0.00  0.00    +0.014 A 
ATOM     15  C   UNL     1      -3.154  -0.185  24.537  0.00  0.00    +0.041 A 
ATOM     16  C   UNL     1      -3.692  -0.908  24.357  0.00  0.00    +0.058 C 
ATOM     17  C   UNL     1      -4.345  -1.072  24.159  0.00  0.00    +0.011 C 
ATOM     18  C   UNL     1      -3.657  -1.465  24.352  0.00  0.00    +0.043 C 
ATOM     19  C   UNL     1      -2.935  -2.109  24.548  0.00  0.00    +0.096 C 
ATOM     20  N   UNL     1      -2.322  -1.577  24.745  0.00  0.00    -0.270 N 
ATOM     21  C   UNL     1      -3.004  -1.544  24.543  0.00  0.00    +0.100 C 
ATOM     22  C   UNL     1      -1.466  -1.631  24.998  0.00  0.00    +0.329 C 
ATOM     23  O   UNL     1      -0.915  -2.292  25.143  0.00  0.00    -0.263 OA
ATOM     27  C   UNL     1      -3.088  -0.715  24.542  0.00  0.00    +0.110 C 
ATOM     28  N   UNL     1      -2.459  -0.585  24.732  0.00  0.00    -0.298 N 
ATOM     29  C   UNL     1      -1.784  -0.161  24.945  0.00  0.00    +0.277 A 
ATOM     30  O   UNL     1      -1.002  -0.725  25.161  0.00  0.00    -0.266 OA
ENDROOT
BRANCH  22  24
ATOM     24  C   UNL     1      -1.533  -0.735  25.003  0.00  0.00    +0.440 C 
ATOM     25  O   UNL     1      -1.240  -0.206  24.245  0.00  0.00    -0.235 OA
ATOM     26  O   UNL     1      -1.847  -0.119  25.617  0.00  0.00    -0.235 OA
ENDBRANCH  22  24
BRANCH  12  11
ATOM     11  N   UNL     1      -1.028   1.040  25.204  0.00  0.00    -0.092 NA
BRANCH  11   8
ATOM      8  S   UNL     1      -1.110   1.893  25.161  0.00  0.00    +0.093 S 
ATOM      9  O   UNL     1      -0.986   1.917  26.028  0.00  0.00    -0.148 OA
ATOM     10  O   UNL     1      -1.253   2.133  24.322  0.00  0.00    -0.148 OA
BRANCH   8   5
ATOM      1  C   UNL     1      -1.346   5.204  25.123  0.00  0.00    +0.031 C 
ATOM      2  C   UNL     1      -1.292   4.381  25.137  0.00  0.00    -0.022 A 
ATOM      3  C   UNL     1      -1.754   3.947  25.665  0.00  0.00    -0.003 A 
ATOM      4  C   UNL     1      -1.700   3.124  25.679  0.00  0.00    +0.020 A 
ATOM      5  C   UNL     1      -1.184   2.735  25.166  0.00  0.00    +0.127 A 
ATOM      6  C   UNL     1      -0.721   3.169  24.639  0.00  0.00    +0.020 A 
ATOM      7  C   UNL     1      -0.775   3.992  24.624  0.00  0.00    -0.003 A 
ENDBRANCH   8   5
ENDBRANCH  11   8
ENDBRANCH  12  11
TORSDOF 4
ENDMDL
MODEL 4
REMARK VINA RESULT:     -13.1      1.645      4.620
REMARK  Name = 
REMARK  4 active torsions:
REMARK  status: ('A' for Active; 'I' for Inactive)
REMARK    1  A    between atoms: C_5  and  S_8
REMARK    2  A    between atoms: S_8  and  N_11
REMARK    3  A    between atoms: N_11  and  C_12
REMARK    4  A    between atoms: C_22  and  C_24
REMARK                            x       y       z     vdW  Elec       q    Type
REMARK                         _______ _______ _______ _____ _____    ______ ____
ROOT
ATOM     12  C   UNL     1      -2.922   0.380  24.594  0.00  0.00    +0.147 A 
ATOM     13  C   UNL     1      -3.716   0.165  24.658  0.00  0.00    +0.024 A 
ATOM     14  C   UNL     1      -3.927  -0.632  24.686  0.00  0.00    +0.014 A 
ATOM     15  C   UNL     1      -3.344  -1.214  24.650  0.00  0.00    +0.041 A 
ATOM     16  C   UNL     1      -3.247  -2.128  24.656  0.00  0.00    +0.058 C 
ATOM     17  C   UNL     1      -3.621  -2.721  24.694  0.00  0.00    +0.011 C 
ATOM     18  C   UNL     1      -2.838  -2.505  24.631  0.00  0.00    +0.043 C 
ATOM     19  C   UNL     1      -1.854  -2.448  24.555  0.00  0.00    +0.096 C 
ATOM     20  N   UNL     1      -1.764  -1.617  24.536  0.00  0.00    -0.270 N 
ATOM     21  C   UNL     1      -2.296  -2.089  24.583  0.00  0.00    +0.100 C 
ATOM     22  C   UNL     1      -1.088  -1.034  24.476  0.00  0.00    +0.329 C 
ATOM     23  O   UNL     1      -0.222  -1.114  24.411  0.00  0.00    -0.263 OA
ATOM     27  C   UNL     1      -2.929  -1.550  24.624  0.00  0.00    +0.110 C 
ATOM     28  N   UNL     1      -2.550  -0.999  24.586  0.00  0.00    -0.298 N 
ATOM     29  C   UNL     1      -2.339  -0.202  24.558  0.00  0.00    +0.277 A 
ATOM     30  O   UNL     1      -1.366  -0.042  24.482  0.00  0.00    -0.266 OA
ENDROOT
BRANCH  22  24
ATOM     24  C   UNL     1      -1.756  -0.435  24.518  0.00  0.00    +0.440 C 
ATOM     25  O   UNL     1      -2.012  -0.028  25.360  0.00  0.00    -0.235 OA
ATOM     26  O   UNL     1      -2.327  -0.065  23.891  0.00  0.00    -0.235 OA
ENDBRANCH  22  24
BRANCH  12  11
ATOM     11  N   UNL     1      -2.603   1.217  24.557  0.00  0.00    -0.092 NA
BRANCH  11   8
ATOM      8  S   UNL     1      -3.231   1.762  24.769  0.00  0.00    +0.093 S 
ATOM      9  O   UNL     1      -3.215   2.051  23.942  0.00  0.00    -0.148 OA
ATOM     10  O   UNL     1      -3.439   1.653  25.622  0.00  0.00    -0.148 OA
BRANCH   8   5
ATOM      1  C   UNL     1      -5.608   3.973  25.461  0.00  0.00    +0.031 C 
ATOM      2  C   UNL     1      -5.022   3.420  25.285  0.00  0.00    -0.022 A 
ATOM      3  C   UNL     1      -5.183   2.799  24.767  0.00  0.00    -0.003 A 
ATOM      4  C   UNL     1      -4.597   2.246  24.591  0.00  0.00    +0.020 A 
ATOM      5  C   UNL     1      -3.849   2.314  24.933  0.00  0.00    +0.127 A 
ATOM      6  C   UNL     1      -3.688   2.935  25.451  0.00  0.00    +0.020 A 
ATOM      7  C   UNL     1      -4.274   3.488  25.627  0.00  0.00    -0.003 A 
ENDBRANCH   8   5
ENDBRANCH  11   8
ENDBRANCH  12  11
TORSDOF 4
ENDMDL
MODEL 5
REMARK VINA RESULT:     -12.7      1.425      1.966
REMARK  Name = 
REMARK  4 active torsions:
REMARK  status: ('A' for Active; 'I' for Inactive)
REMARK    1  A    between atoms: C_5  and  S_8
REMARK    2  A    between atoms: S_8  and  N_11
REMARK    3  A    between atoms: N_11  and  C_12
REMARK    4  A    between atoms: C_22  and  C_24
REMARK                            x       y       z     vdW  Elec       q    Type
REMARK                         _______ _______ _______ _____ _____    ______ ____
ROOT
ATOM     12  C   UNL     1      -2.305   1.706  24.537  0.00  0.00    +0.147 A 
ATOM     13  C   UNL     1      -3.025   1.672  24.939  0.00  0.00    +0.024 A 
ATOM     14  C   UNL     1      -3.294   2.328  25.360  0.00  0.00    +0.014 A 
ATOM     15  C   UNL     1      -2.843   3.019  25.380  0.00  0.00    +0.041 A 
ATOM     16  C   UNL     1      -2.853   3.868  25.730  0.00  0.00    +0.058 C 
ATOM     17  C   UNL     1      -3.244   4.295  26.128  0.00  0.00    +0.011 C 
ATOM     18  C   UNL     1      -2.533   4.325  25.731  0.00  0.00    +0.043 C 
ATOM     19  C   UNL     1      -1.663   4.554  25.322  0.00  0.00    +0.096 C 
ATOM     20  N   UNL     1      -1.497   3.833  24.933  0.00  0.00    -0.270 N 
ATOM     21  C   UNL     1      -2.014   4.105  25.342  0.00  0.00    +0.100 C 
ATOM     22  C   UNL     1      -0.843   3.501  24.422  0.00  0.00    +0.329 C 
ATOM     23  O   UNL     1      -0.090   3.820  24.117  0.00  0.00    -0.263 OA
ATOM     27  C   UNL     1      -2.514   3.439  25.360  0.00  0.00    +0.110 C 
ATOM     28  N   UNL     1      -2.123   3.052  24.978  0.00  0.00    -0.298 N 
ATOM     29  C   UNL     1      -1.854   2.396  24.557  0.00  0.00    +0.277 A 
ATOM     30  O   UNL     1      -0.983   2.530  24.109  0.00  0.00    -0.266 OA
ENDROOT
BRANCH  22  24
ATOM     24  C   UNL     1      -1.367   2.772  24.428  0.00  0.00    +0.440 C 
ATOM     25  O   UNL     1      -1.975   2.585  23.696  0.00  0.00    -0.235 OA
ATOM     26  O   UNL     1      -1.488   2.074  25.023  0.00  0.00    -0.235 OA
ENDBRANCH  22  24
BRANCH  12  11
ATOM     11  N   UNL     1      -1.937   1.045  24.057  0.00  0.00    -0.092 NA
BRANCH  11   8
ATOM      8  S   UNL     1      -2.441   0.352  24.109  0.00  0.00    +0.093 S 
ATOM      9  O   UNL     1      -1.803  -0.038  24.566  0.00  0.00    -0.148 OA
ATOM     10  O   UNL     1      -3.203   0.511  23.690  0.00  0.00    -0.148 OA
BRANCH   8   5
ATOM      1  C   UNL     1      -4.195  -2.445  24.455  0.00  0.00    +0.031 C 
ATOM      2  C   UNL     1      -3.764  -1.747  24.365  0.00  0.00    -0.022 A 
ATOM      3  C   UNL     1      -4.071  -1.129  23.914  0.00  0.00    -0.003 A 
ATOM      4  C   UNL     1      -3.640  -0.431  23.824  0.00  0.00    +0.020 A 
ATOM      5  C   UNL     1      -2.903  -0.352  24.185  0.00  0.00    +0.127 A 
ATOM      6  C   UNL     1      -2.596  -0.971  24.637  0.00  0.00    +0.020 A 
ATOM      7  C   UNL     1      -3.027  -1.668  24.727  0.00  0.00    -0.003 A 
ENDBRANCH   8   5
ENDBRANCH  11   8
ENDBRANCH  12  11
TORSDOF 4
ENDMDL
