REMARK  Name = 
REMARK  4 active torsions:
REMARK  status: ('A' for Active; 'I' for Inactive)
REMARK    1  A    between atoms: C_3  and  C_8
REMARK    2  A    between atoms: C_11  and  C_13
REMARK    3  A    between atoms: N_17  and  C_18
REMARK    4  A    between atoms: C_18  and  C_19
REMARK                            x       y       z     vdW  Elec       q    Type
REMARK                         _______ _______ _______ _____ _____    ______ ____
ROOT
ATOM      8  C   UNL     1      -1.322  -0.062   0.000  0.00  0.00    +0.208 A 
ATOM      9  N   UNL     1      -0.655  -0.546   0.000  0.00  0.00    -0.056 NA
ATOM     10  O   UNL     1      -0.910  -1.331   0.000  0.00  0.00    -0.336 OA
ATOM     11  C   UNL     1      -1.735  -1.331   0.000  0.00  0.00    +0.251 A 
ATOM     12  N   UNL     1      -1.990  -0.546   0.000  0.00  0.00    -0.189 NA
ENDROOT
BRANCH   8   3
ATOM      1  N   UNL     1       0.107   0.763   0.000  0.00  0.00    -0.107 NA
ATOM      2  C   UNL     1      -0.608   1.176   0.000  0.00  0.00    +0.176 A 
ATOM      3  C   UNL     1      -1.322   0.763   0.000  0.00  0.00    +0.093 A 
ATOM      4  C   UNL     1      -2.037   1.176   0.000  0.00  0.00    +0.107 A 
ATOM      5  N   UNL     1      -2.037   2.001   0.000  0.00  0.00    -0.222 NA
ATOM      6  C   UNL     1      -1.322   2.413   0.000  0.00  0.00    +0.200 A 
ATOM      7  N   UNL     1      -0.608   2.001   0.000  0.00  0.00    -0.206 NA
ENDBRANCH   8   3
BRANCH  11  13
ATOM     13  C   UNL     1      -2.220  -1.999   0.000  0.00  0.00    +0.138 C 
ATOM     14  C   UNL     1      -1.965  -2.783   0.000  0.00  0.00    +0.027 C 
ATOM     15  C   UNL     1      -2.632  -3.268   0.000  0.00  0.00    +0.019 C 
ATOM     16  C   UNL     1      -3.300  -2.783   0.000  0.00  0.00    +0.073 C 
ATOM     17  N   UNL     1      -3.045  -1.999   0.000  0.00  0.00    -0.260 NA
BRANCH  17  18
ATOM     18  C   UNL     1      -3.530  -1.331   0.000  0.00  0.00    +0.139 C 
BRANCH  18  19
ATOM     19  C   UNL     1      -3.194  -0.578   0.000  0.00  0.00    +0.155 A 
ATOM     20  N   UNL     1      -3.607   0.137   0.000  0.00  0.00    -0.226 NA
ATOM     21  C   UNL     1      -3.054   0.750   0.000  0.00  0.00    +0.121 A 
ATOM     22  C   UNL     1      -2.301   0.414   0.000  0.00  0.00    +0.121 A 
ATOM     23  N   UNL     1      -2.387  -0.406   0.000  0.00  0.00    -0.226 NA
ENDBRANCH  18  19
ENDBRANCH  17  18
ENDBRANCH  11  13
TORSDOF 4
