REMARK  Name = 
REMARK  7 active torsions:
REMARK  status: ('A' for Active; 'I' for Inactive)
REMARK    1  A    between atoms: O_2  and  C_3
REMARK    2  A    between atoms: C_3  and  C_4
REMARK    3  A    between atoms: N_6  and  C_7
REMARK    4  A    between atoms: C_7  and  C_8
REMARK    5  A    between atoms: C_8  and  C_9
REMARK    6  A    between atoms: C_12  and  C_14
REMARK    7  A    between atoms: C_17  and  O_18
REMARK                            x       y       z     vdW  Elec       q    Type
REMARK                         _______ _______ _______ _____ _____    ______ ____
ROOT
ATOM      9  C   UNL     1       4.115  -4.030   0.000  0.00  0.00    +0.103 A 
ATOM     10  N   UNL     1       3.780  -3.276   0.000  0.00  0.00    -0.081 NA
ATOM     11  O   UNL     1       4.393  -2.724   0.000  0.00  0.00    -0.354 OA
ATOM     12  C   UNL     1       5.107  -3.136   0.000  0.00  0.00    +0.177 A 
ATOM     13  C   UNL     1       4.936  -3.943   0.000  0.00  0.00    +0.058 A 
ENDROOT
BRANCH  12  14
ATOM     14  C   UNL     1       5.861  -2.801   0.000  0.00  0.00    +0.037 A 
ATOM     15  C   UNL     1       5.947  -1.980   0.000  0.00  0.00    +0.006 A 
ATOM     16  C   UNL     1       6.701  -1.645   0.000  0.00  0.00    +0.037 A 
ATOM     17  C   UNL     1       7.368  -2.130   0.000  0.00  0.00    +0.139 A 
ATOM     20  C   UNL     1       7.282  -2.950   0.000  0.00  0.00    +0.037 A 
ATOM     21  C   UNL     1       6.528  -3.286   0.000  0.00  0.00    +0.006 A 
BRANCH  17  18
ATOM     18  O   UNL     1       8.122  -1.794   0.000  0.00  0.00    -0.471 OA
ATOM     19  C   UNL     1       8.208  -0.974   0.000  0.00  0.00    +0.252 C 
ENDBRANCH  17  18
ENDBRANCH  12  14
BRANCH   9   8
ATOM      8  C   UNL     1       3.703  -4.744   0.000  0.00  0.00    +0.074 C 
BRANCH   8   7
ATOM      7  C   UNL     1       2.878  -4.744   0.000  0.00  0.00    +0.139 C 
ATOM     22  C   UNL     1       2.053  -4.744   0.000  0.00  0.00    +0.165 C 
ATOM     23  O   UNL     1       2.053  -3.919   0.000  0.00  0.00    -0.350 OA
ATOM     24  C   UNL     1       2.878  -3.919   0.000  0.00  0.00    +0.165 C 
BRANCH   7   6
ATOM      4  C   UNL     1       2.163  -5.982   0.000  0.00  0.00    +0.272 C 
ATOM      5  O   UNL     1       2.163  -6.807   0.000  0.00  0.00    -0.271 OA
ATOM      6  N   UNL     1       2.878  -5.569   0.000  0.00  0.00    -0.201 NA
BRANCH   4   3
ATOM      3  C   UNL     1       1.449  -5.569   0.000  0.00  0.00    +0.229 C 
BRANCH   3   2
ATOM      1  C   UNL     1       0.020  -5.569   0.000  0.00  0.00    +0.175 C 
ATOM      2  O   UNL     1       0.734  -5.982   0.000  0.00  0.00    -0.342 OA
ENDBRANCH   3   2
ENDBRANCH   4   3
ENDBRANCH   7   6
ENDBRANCH   8   7
ENDBRANCH   9   8
TORSDOF 7
