REMARK  Name = 
REMARK  5 active torsions:
REMARK  status: ('A' for Active; 'I' for Inactive)
REMARK    1  A    between atoms: C_4  and  C_5
REMARK    2  A    between atoms: C_5  and  N_6
REMARK    3  A    between atoms: C_11  and  O_13
REMARK    4  A    between atoms: O_13  and  C_14
REMARK    5  A    between atoms: C_17  and  C_20
REMARK                            x       y       z     vdW  Elec       q    Type
REMARK                         _______ _______ _______ _____ _____    ______ ____
ROOT
ATOM      6  N   UNL     1       0.720  -2.918   0.000  0.00  0.00    -0.264 NA
ATOM      7  C   UNL     1       0.999  -2.141   0.000  0.00  0.00    +0.105 C 
ATOM      8  C   UNL     1       1.779  -1.874   0.000  0.00  0.00    +0.160 C 
ATOM      9  O   UNL     1       2.475  -2.318   0.000  0.00  0.00    -0.348 OA
ATOM     10  C   UNL     1       2.561  -3.139   0.000  0.00  0.00    +0.187 C 
ATOM     11  C   UNL     1       1.973  -3.718   0.000  0.00  0.00    +0.211 C 
ATOM     12  C   UNL     1       1.154  -3.619   0.000  0.00  0.00    +0.119 C 
ENDROOT
BRANCH   6   5
ATOM      5  C   UNL     1      -0.100  -3.004   0.000  0.00  0.00    +0.102 C 
BRANCH   5   4
ATOM      1  C   UNL     1      -0.998  -0.242   0.000  0.00  0.00    +0.154 C 
ATOM      2  N   UNL     1      -0.998  -1.067   0.000  0.00  0.00    -0.248 N 
ATOM      3  C   UNL     1      -0.330  -1.552   0.000  0.00  0.00    +0.094 A 
ATOM      4  C   UNL     1      -0.585  -2.337   0.000  0.00  0.00    +0.033 A 
ATOM     24  C   UNL     1      -1.410  -2.337   0.000  0.00  0.00    +0.119 A 
ATOM     25  N   UNL     1      -1.665  -1.552   0.000  0.00  0.00    -0.168 NA
ENDBRANCH   5   4
ENDBRANCH   6   5
BRANCH  11  13
ATOM     13  O   UNL     1       2.240  -4.499   0.000  0.00  0.00    -0.475 OA
BRANCH  13  14
ATOM     14  C   UNL     1       1.697  -5.120   0.000  0.00  0.00    +0.139 A 
ATOM     15  C   UNL     1       1.964  -5.901   0.000  0.00  0.00    +0.037 A 
ATOM     16  C   UNL     1       1.421  -6.522   0.000  0.00  0.00    +0.007 A 
ATOM     17  C   UNL     1       0.611  -6.363   0.000  0.00  0.00    +0.072 A 
ATOM     18  C   UNL     1       0.345  -5.582   0.000  0.00  0.00    +0.007 A 
ATOM     19  C   UNL     1       0.888  -4.961   0.000  0.00  0.00    +0.037 A 
BRANCH  17  20
ATOM     20  C   UNL     1       0.069  -6.984   0.000  0.00  0.00    +0.419 C 
ATOM     21  F   UNL     1      -0.474  -7.605   0.000  0.00  0.00    -0.166 F 
ATOM     22  F   UNL     1      -0.553  -6.441   0.000  0.00  0.00    -0.166 F 
ATOM     23  F   UNL     1       0.690  -7.527   0.000  0.00  0.00    -0.166 F 
ENDBRANCH  17  20
ENDBRANCH  13  14
ENDBRANCH  11  13
TORSDOF 5
