REMARK  Name = 
REMARK  5 active torsions:
REMARK  status: ('A' for Active; 'I' for Inactive)
REMARK    1  A    between atoms: N_5  and  C_6
REMARK    2  A    between atoms: C_6  and  C_7
REMARK    3  A    between atoms: C_14  and  C_15
REMARK    4  A    between atoms: C_15  and  N_16
REMARK    5  A    between atoms: N_19  and  C_20
REMARK                            x       y       z     vdW  Elec       q    Type
REMARK                         _______ _______ _______ _____ _____    ______ ____
ROOT
ATOM      7  C   UNL     1       1.661  -1.343   0.000  0.00  0.00    +0.032 C 
ATOM      8  C   UNL     1       1.814  -2.106   0.000  0.00  0.00    +0.073 C 
ATOM      9  N   UNL     1       1.065  -1.759   0.000  0.00  0.00    -0.272 NA
ATOM     10  C   UNL     1       1.205  -0.720   0.000  0.00  0.00    +0.072 C 
ATOM     11  C   UNL     1       0.961  -0.114   0.000  0.00  0.00    +0.017 C 
ATOM     12  C   UNL     1       0.923  -1.010   0.000  0.00  0.00    +0.005 C 
ATOM     13  C   UNL     1       0.119  -1.362   0.000  0.00  0.00    +0.018 C 
ATOM     14  C   UNL     1       0.226  -2.118   0.000  0.00  0.00    +0.079 C 
ENDROOT
BRANCH   7   6
ATOM      6  C   UNL     1       2.307  -0.828   0.000  0.00  0.00    +0.074 C 
BRANCH   6   5
ATOM      1  C   UNL     1       1.816   2.435   0.000  0.00  0.00    +0.090 C 
ATOM      2  N   UNL     1       1.939   1.619   0.000  0.00  0.00    -0.269 NA
ATOM      3  C   UNL     1       2.707   1.317   0.000  0.00  0.00    +0.090 C 
ATOM      4  C   UNL     1       2.829   0.501   0.000  0.00  0.00    +0.090 C 
ATOM      5  N   UNL     1       2.184  -0.013   0.000  0.00  0.00    -0.270 NA
ATOM     26  C   UNL     1       1.416   0.289   0.000  0.00  0.00    +0.090 C 
ATOM     27  C   UNL     1       1.294   1.105   0.000  0.00  0.00    +0.090 C 
ENDBRANCH   6   5
ENDBRANCH   7   6
BRANCH  14  15
ATOM     15  C   UNL     1      -0.179  -2.836   0.000  0.00  0.00    +0.133 C 
BRANCH  15  16
ATOM     16  N   UNL     1       0.241  -3.546   0.000  0.00  0.00    -0.185 NA
ATOM     17  C   UNL     1      -0.163  -4.265   0.000  0.00  0.00    +0.344 C 
ATOM     18  O   UNL     1      -0.988  -4.274   0.000  0.00  0.00    -0.249 OA
ATOM     19  N   UNL     1       0.257  -4.975   0.000  0.00  0.00    -0.161 NA
BRANCH  19  20
ATOM     20  C   UNL     1      -0.148  -5.694   0.000  0.00  0.00    +0.075 A 
ATOM     21  C   UNL     1       0.272  -6.404   0.000  0.00  0.00    +0.017 A 
ATOM     22  C   UNL     1      -0.133  -7.123   0.000  0.00  0.00    +0.001 A 
ATOM     23  C   UNL     1      -0.958  -7.132   0.000  0.00  0.00    +0.000 A 
ATOM     24  C   UNL     1      -1.378  -6.422   0.000  0.00  0.00    +0.001 A 
ATOM     25  C   UNL     1      -0.973  -5.703   0.000  0.00  0.00    +0.017 A 
ENDBRANCH  19  20
ENDBRANCH  15  16
ENDBRANCH  14  15
TORSDOF 5
