MODEL 1
REMARK VINA RESULT:     -11.7      0.000      0.000
REMARK  Name = 
REMARK  6 active torsions:
REMARK  status: ('A' for Active; 'I' for Inactive)
REMARK    1  A    between atoms: C_2  and  C_4
REMARK    2  A    between atoms: C_6  and  C_7
REMARK    3  A    between atoms: C_7  and  C_8
REMARK    4  A    between atoms: C_19  and  C_20
REMARK    5  A    between atoms: C_20  and  N_21
REMARK    6  A    between atoms: C_22  and  C_24
REMARK                            x       y       z     vdW  Elec       q    Type
REMARK                         _______ _______ _______ _____ _____    ______ ____
ROOT
ATOM      4  C   UNL     1      -4.126   1.500  25.037  0.00  0.00    +0.006 C 
ATOM      5  C   UNL     1      -4.094   0.678  24.973  0.00  0.00    +0.005 C 
ATOM      6  C   UNL     1      -3.366   0.292  24.976  0.00  0.00    +0.027 C 
ATOM     16  C   UNL     1      -2.668   0.727  25.043  0.00  0.00    -0.048 C 
ATOM     17  C   UNL     1      -1.939   0.341  25.047  0.00  0.00    +0.026 C 
ATOM     18  C   UNL     1      -2.700   1.550  25.108  0.00  0.00    -0.033 C 
ATOM     19  C   UNL     1      -3.428   1.936  25.105  0.00  0.00    +0.043 C 
ENDROOT
BRANCH   4   2
ATOM      1  C   UNL     1      -5.324   1.886  25.713  0.00  0.00    +0.000 C 
ATOM      2  C   UNL     1      -4.855   1.886  25.034  0.00  0.00    +0.000 C 
ATOM      3  C   UNL     1      -5.114   2.272  24.353  0.00  0.00    +0.000 C 
ENDBRANCH   4   2
BRANCH   6   7
ATOM      7  C   UNL     1      -3.334  -0.530  24.912  0.00  0.00    +0.089 C 
BRANCH   7   8
ATOM      8  C   UNL     1      -3.714  -0.910  24.286  0.00  0.00    +0.226 C 
ATOM      9  O   UNL     1      -4.024  -0.467  23.662  0.00  0.00    -0.275 OA
ATOM     10  N   UNL     1      -3.784  -1.732  24.284  0.00  0.00    -0.274 N 
ATOM     11  C   UNL     1      -3.474  -2.174  24.907  0.00  0.00    +0.125 C 
ATOM     12  C   UNL     1      -3.544  -2.996  24.905  0.00  0.00    +0.164 C 
ATOM     13  O   UNL     1      -3.924  -3.376  24.278  0.00  0.00    -0.350 OA
ATOM     14  C   UNL     1      -4.234  -2.934  23.655  0.00  0.00    +0.164 C 
ATOM     15  C   UNL     1      -4.165  -2.112  23.657  0.00  0.00    +0.125 C 
ENDBRANCH   7   8
ENDBRANCH   6   7
BRANCH  19  20
ATOM     20  C   UNL     1      -3.460   2.757  25.169  0.00  0.00    +0.120 C 
BRANCH  20  21
ATOM     21  N   UNL     1      -2.794   3.212  24.995  0.00  0.00    -0.201 NA
ATOM     22  C   UNL     1      -2.667   3.924  25.390  0.00  0.00    +0.265 C 
ATOM     23  O   UNL     1      -3.205   4.183  25.959  0.00  0.00    -0.268 OA
BRANCH  22  24
ATOM     24  C   UNL     1      -1.999   4.379  25.216  0.00  0.00    +0.055 A 
ATOM     25  C   UNL     1      -2.072   5.195  25.116  0.00  0.00    +0.005 A 
ATOM     26  C   UNL     1      -1.406   5.649  24.942  0.00  0.00    +0.000 A 
ATOM     27  C   UNL     1      -0.667   5.288  24.867  0.00  0.00    +0.000 A 
ATOM     28  C   UNL     1      -0.596   4.472  24.967  0.00  0.00    +0.000 A 
ATOM     29  C   UNL     1      -1.262   4.018  25.141  0.00  0.00    +0.005 A 
ENDBRANCH  22  24
ENDBRANCH  20  21
ENDBRANCH  19  20
TORSDOF 6
ENDMDL
MODEL 2
REMARK VINA RESULT:     -11.6      1.025      5.632
REMARK  Name = 
REMARK  6 active torsions:
REMARK  status: ('A' for Active; 'I' for Inactive)
REMARK    1  A    between atoms: C_2  and  C_4
REMARK    2  A    between atoms: C_6  and  C_7
REMARK    3  A    between atoms: C_7  and  C_8
REMARK    4  A    between atoms: C_19  and  C_20
REMARK    5  A    between atoms: C_20  and  N_21
REMARK    6  A    between atoms: C_22  and  C_24
REMARK                            x       y       z     vdW  Elec       q    Type
REMARK                         _______ _______ _______ _____ _____    ______ ____
ROOT
ATOM      4  C   UNL     1      -3.393   1.947  24.606  0.00  0.00    +0.006 C 
ATOM      5  C   UNL     1      -2.834   2.523  24.798  0.00  0.00    +0.005 C 
ATOM      6  C   UNL     1      -2.099   2.301  25.096  0.00  0.00    +0.027 C 
ATOM     16  C   UNL     1      -1.921   1.503  25.205  0.00  0.00    -0.048 C 
ATOM     17  C   UNL     1      -1.185   1.281  25.504  0.00  0.00    +0.026 C 
ATOM     18  C   UNL     1      -2.480   0.926  25.013  0.00  0.00    -0.033 C 
ATOM     19  C   UNL     1      -3.215   1.148  24.715  0.00  0.00    +0.043 C 
ENDROOT
BRANCH   4   2
ATOM      1  C   UNL     1      -4.784   2.205  24.809  0.00  0.00    +0.000 C 
ATOM      2  C   UNL     1      -4.129   2.169  24.307  0.00  0.00    +0.000 C 
ATOM      3  C   UNL     1      -4.210   2.355  23.508  0.00  0.00    +0.000 C 
ENDBRANCH   4   2
BRANCH   6   7
ATOM      7  C   UNL     1      -1.540   2.878  25.288  0.00  0.00    +0.089 C 
BRANCH   7   8
ATOM      8  C   UNL     1      -1.785   3.641  25.482  0.00  0.00    +0.226 C 
ATOM      9  O   UNL     1      -2.432   3.752  25.982  0.00  0.00    -0.275 OA
ATOM     10  N   UNL     1      -1.383   4.293  25.176  0.00  0.00    -0.274 N 
ATOM     11  C   UNL     1      -0.736   4.182  24.676  0.00  0.00    +0.125 C 
ATOM     12  C   UNL     1      -0.334   4.834  24.371  0.00  0.00    +0.164 C 
ATOM     13  O   UNL     1      -0.579   5.599  24.565  0.00  0.00    -0.350 OA
ATOM     14  C   UNL     1      -1.225   5.710  25.064  0.00  0.00    +0.164 C 
ATOM     15  C   UNL     1      -1.628   5.058  25.371  0.00  0.00    +0.125 C 
ENDBRANCH   7   8
ENDBRANCH   6   7
BRANCH  19  20
ATOM     20  C   UNL     1      -3.774   0.572  24.523  0.00  0.00    +0.120 C 
BRANCH  20  21
ATOM     21  N   UNL     1      -3.569  -0.227  24.550  0.00  0.00    -0.201 NA
ATOM     22  C   UNL     1      -4.142  -0.803  24.411  0.00  0.00    +0.265 C 
ATOM     23  O   UNL     1      -4.920  -0.582  24.246  0.00  0.00    -0.268 OA
BRANCH  22  24
ATOM     24  C   UNL     1      -3.937  -1.603  24.438  0.00  0.00    +0.055 A 
ATOM     25  C   UNL     1      -3.555  -1.908  25.102  0.00  0.00    +0.005 A 
ATOM     26  C   UNL     1      -3.350  -2.707  25.129  0.00  0.00    +0.000 A 
ATOM     27  C   UNL     1      -3.529  -3.201  24.492  0.00  0.00    +0.000 A 
ATOM     28  C   UNL     1      -3.911  -2.894  23.828  0.00  0.00    +0.000 A 
ATOM     29  C   UNL     1      -4.116  -2.096  23.802  0.00  0.00    +0.005 A 
ENDBRANCH  22  24
ENDBRANCH  20  21
ENDBRANCH  19  20
TORSDOF 6
ENDMDL
MODEL 3
REMARK VINA RESULT:     -11.2      1.045      2.146
REMARK  Name = 
REMARK  6 active torsions:
REMARK  status: ('A' for Active; 'I' for Inactive)
REMARK    1  A    between atoms: C_2  and  C_4
REMARK    2  A    between atoms: C_6  and  C_7
REMARK    3  A    between atoms: C_7  and  C_8
REMARK    4  A    between atoms: C_19  and  C_20
REMARK    5  A    between atoms: C_20  and  N_21
REMARK    6  A    between atoms: C_22  and  C_24
REMARK                            x       y       z     vdW  Elec       q    Type
REMARK                         _______ _______ _______ _____ _____    ______ ____
ROOT
ATOM      4  C   UNL     1      -1.646   0.580  24.741  0.00  0.00    +0.006 C 
ATOM      5  C   UNL     1      -2.219  -0.008  24.665  0.00  0.00    +0.005 C 
ATOM      6  C   UNL     1      -3.016   0.177  24.765  0.00  0.00    +0.027 C 
ATOM     16  C   UNL     1      -3.241   0.950  24.943  0.00  0.00    -0.048 C 
ATOM     17  C   UNL     1      -4.039   1.136  25.044  0.00  0.00    +0.026 C 
ATOM     18  C   UNL     1      -2.667   1.539  25.019  0.00  0.00    -0.033 C 
ATOM     19  C   UNL     1      -1.871   1.354  24.919  0.00  0.00    +0.043 C 
ENDROOT
BRANCH   4   2
ATOM      1  C   UNL     1      -0.395   0.158  25.288  0.00  0.00    +0.000 C 
ATOM      2  C   UNL     1      -0.848   0.395  24.640  0.00  0.00    +0.000 C 
ATOM      3  C   UNL     1      -0.505   0.446  23.893  0.00  0.00    +0.000 C 
ENDBRANCH   4   2
BRANCH   6   7
ATOM      7  C   UNL     1      -3.590  -0.412  24.689  0.00  0.00    +0.089 C 
BRANCH   7   8
ATOM      8  C   UNL     1      -3.490  -1.137  25.069  0.00  0.00    +0.226 C 
ATOM      9  O   UNL     1      -3.184  -1.163  25.835  0.00  0.00    -0.275 OA
ATOM     10  N   UNL     1      -3.695  -1.836  24.683  0.00  0.00    -0.274 N 
ATOM     11  C   UNL     1      -4.001  -1.811  23.917  0.00  0.00    +0.125 C 
ATOM     12  C   UNL     1      -4.207  -2.510  23.532  0.00  0.00    +0.164 C 
ATOM     13  O   UNL     1      -4.107  -3.236  23.912  0.00  0.00    -0.350 OA
ATOM     14  C   UNL     1      -3.801  -3.262  24.677  0.00  0.00    +0.164 C 
ATOM     15  C   UNL     1      -3.595  -2.563  25.064  0.00  0.00    +0.125 C 
ENDBRANCH   7   8
ENDBRANCH   6   7
BRANCH  19  20
ATOM     20  C   UNL     1      -1.297   1.942  24.995  0.00  0.00    +0.120 C 
BRANCH  20  21
ATOM     21  N   UNL     1      -1.511   2.737  24.940  0.00  0.00    -0.201 NA
ATOM     22  C   UNL     1      -1.010   3.320  25.239  0.00  0.00    +0.265 C 
ATOM     23  O   UNL     1      -0.295   3.109  25.592  0.00  0.00    -0.268 OA
BRANCH  22  24
ATOM     24  C   UNL     1      -1.224   4.116  25.184  0.00  0.00    +0.055 A 
ATOM     25  C   UNL     1      -0.731   4.649  24.792  0.00  0.00    +0.005 A 
ATOM     26  C   UNL     1      -0.944   5.444  24.737  0.00  0.00    +0.000 A 
ATOM     27  C   UNL     1      -1.651   5.706  25.074  0.00  0.00    +0.000 A 
ATOM     28  C   UNL     1      -2.143   5.172  25.465  0.00  0.00    +0.000 A 
ATOM     29  C   UNL     1      -1.930   4.377  25.520  0.00  0.00    +0.005 A 
ENDBRANCH  22  24
ENDBRANCH  20  21
ENDBRANCH  19  20
TORSDOF 6
ENDMDL
MODEL 4
REMARK VINA RESULT:      -9.8      1.214      5.865
REMARK  Name = 
REMARK  6 active torsions:
REMARK  status: ('A' for Active; 'I' for Inactive)
REMARK    1  A    between atoms: C_2  and  C_4
REMARK    2  A    between atoms: C_6  and  C_7
REMARK    3  A    between atoms: C_7  and  C_8
REMARK    4  A    between atoms: C_19  and  C_20
REMARK    5  A    between atoms: C_20  and  N_21
REMARK    6  A    between atoms: C_22  and  C_24
REMARK                            x       y       z     vdW  Elec       q    Type
REMARK                         _______ _______ _______ _____ _____    ______ ____
ROOT
ATOM      4  C   UNL     1      -1.719   0.952  25.179  0.00  0.00    +0.006 C 
ATOM      5  C   UNL     1      -1.710   1.760  25.013  0.00  0.00    +0.005 C 
ATOM      6  C   UNL     1      -2.403   2.140  24.781  0.00  0.00    +0.027 C 
ATOM     16  C   UNL     1      -3.106   1.714  24.715  0.00  0.00    -0.048 C 
ATOM     17  C   UNL     1      -3.800   2.095  24.483  0.00  0.00    +0.026 C 
ATOM     18  C   UNL     1      -3.115   0.905  24.881  0.00  0.00    -0.033 C 
ATOM     19  C   UNL     1      -2.422   0.525  25.113  0.00  0.00    +0.043 C 
ENDROOT
BRANCH   4   2
ATOM      1  C   UNL     1      -0.809   0.556  26.208  0.00  0.00    +0.000 C 
ATOM      2  C   UNL     1      -1.025   0.571  25.412  0.00  0.00    +0.000 C 
ATOM      3  C   UNL     1      -0.547   0.205  24.848  0.00  0.00    +0.000 C 
ENDBRANCH   4   2
BRANCH   6   7
ATOM      7  C   UNL     1      -2.395   2.949  24.615  0.00  0.00    +0.089 C 
BRANCH   7   8
ATOM      8  C   UNL     1      -1.695   3.313  24.372  0.00  0.00    +0.226 C 
ATOM      9  O   UNL     1      -1.181   2.918  23.861  0.00  0.00    -0.275 OA
ATOM     10  N   UNL     1      -1.510   4.070  24.640  0.00  0.00    -0.274 N 
ATOM     11  C   UNL     1      -2.024   4.465  25.151  0.00  0.00    +0.125 C 
ATOM     12  C   UNL     1      -1.839   5.222  25.418  0.00  0.00    +0.164 C 
ATOM     13  O   UNL     1      -1.138   5.587  25.175  0.00  0.00    -0.350 OA
ATOM     14  C   UNL     1      -0.625   5.193  24.665  0.00  0.00    +0.164 C 
ATOM     15  C   UNL     1      -0.810   4.434  24.396  0.00  0.00    +0.125 C 
ENDBRANCH   7   8
ENDBRANCH   6   7
BRANCH  19  20
ATOM     20  C   UNL     1      -2.430  -0.283  25.279  0.00  0.00    +0.120 C 
BRANCH  20  21
ATOM     21  N   UNL     1      -2.832  -0.803  24.781  0.00  0.00    -0.201 NA
ATOM     22  C   UNL     1      -3.162  -1.495  25.086  0.00  0.00    +0.265 C 
ATOM     23  O   UNL     1      -3.090  -1.667  25.890  0.00  0.00    -0.268 OA
BRANCH  22  24
ATOM     24  C   UNL     1      -3.564  -2.015  24.587  0.00  0.00    +0.055 A 
ATOM     25  C   UNL     1      -4.188  -1.741  24.122  0.00  0.00    +0.005 A 
ATOM     26  C   UNL     1      -4.590  -2.261  23.624  0.00  0.00    +0.000 A 
ATOM     27  C   UNL     1      -4.368  -3.056  23.590  0.00  0.00    +0.000 A 
ATOM     28  C   UNL     1      -3.745  -3.329  24.056  0.00  0.00    +0.000 A 
ATOM     29  C   UNL     1      -3.343  -2.809  24.554  0.00  0.00    +0.005 A 
ENDBRANCH  22  24
ENDBRANCH  20  21
ENDBRANCH  19  20
TORSDOF 6
ENDMDL
MODEL 5
REMARK VINA RESULT:      -9.7      2.918      4.735
REMARK  Name = 
REMARK  6 active torsions:
REMARK  status: ('A' for Active; 'I' for Inactive)
REMARK    1  A    between atoms: C_2  and  C_4
REMARK    2  A    between atoms: C_6  and  C_7
REMARK    3  A    between atoms: C_7  and  C_8
REMARK    4  A    between atoms: C_19  and  C_20
REMARK    5  A    between atoms: C_20  and  N_21
REMARK    6  A    between atoms: C_22  and  C_24
REMARK                            x       y       z     vdW  Elec       q    Type
REMARK                         _______ _______ _______ _____ _____    ______ ____
ROOT
ATOM      4  C   UNL     1      -1.382  -0.124  24.743  0.00  0.00    +0.006 C 
ATOM      5  C   UNL     1      -0.620   0.000  24.452  0.00  0.00    +0.005 C 
ATOM      6  C   UNL     1      -0.446   0.686  24.030  0.00  0.00    +0.027 C 
ATOM     16  C   UNL     1      -1.033   1.250  23.898  0.00  0.00    -0.048 C 
ATOM     17  C   UNL     1      -0.859   1.937  23.475  0.00  0.00    +0.026 C 
ATOM     18  C   UNL     1      -1.796   1.126  24.188  0.00  0.00    -0.033 C 
ATOM     19  C   UNL     1      -1.970   0.440  24.610  0.00  0.00    +0.043 C 
ENDROOT
BRANCH   4   2
ATOM      1  C   UNL     1      -1.422  -0.839  25.979  0.00  0.00    +0.000 C 
ATOM      2  C   UNL     1      -1.556  -0.811  25.165  0.00  0.00    +0.000 C 
ATOM      3  C   UNL     1      -1.864  -1.468  24.774  0.00  0.00    +0.000 C 
ENDBRANCH   4   2
BRANCH   6   7
ATOM      7  C   UNL     1       0.317   0.810  23.739  0.00  0.00    +0.089 C 
BRANCH   7   8
ATOM      8  C   UNL     1       0.642   0.282  23.195  0.00  0.00    +0.226 C 
ATOM      9  O   UNL     1       0.167  -0.299  22.851  0.00  0.00    -0.275 OA
ATOM     10  N   UNL     1       1.440   0.335  22.995  0.00  0.00    -0.274 N 
ATOM     11  C   UNL     1       1.914   0.916  23.339  0.00  0.00    +0.125 C 
ATOM     12  C   UNL     1       2.712   0.969  23.139  0.00  0.00    +0.164 C 
ATOM     13  O   UNL     1       3.037   0.440  22.594  0.00  0.00    -0.350 OA
ATOM     14  C   UNL     1       2.564  -0.140  22.250  0.00  0.00    +0.164 C 
ATOM     15  C   UNL     1       1.765  -0.194  22.450  0.00  0.00    +0.125 C 
ENDBRANCH   7   8
ENDBRANCH   6   7
BRANCH  19  20
ATOM     20  C   UNL     1      -2.732   0.316  24.901  0.00  0.00    +0.120 C 
BRANCH  20  21
ATOM     21  N   UNL     1      -3.269   0.942  24.931  0.00  0.00    -0.201 NA
ATOM     22  C   UNL     1      -4.061   0.796  25.108  0.00  0.00    +0.265 C 
ATOM     23  O   UNL     1      -4.318   0.026  25.254  0.00  0.00    -0.268 OA
BRANCH  22  24
ATOM     24  C   UNL     1      -4.599   1.423  25.139  0.00  0.00    +0.055 A 
ATOM     25  C   UNL     1      -4.355   2.163  25.410  0.00  0.00    +0.005 A 
ATOM     26  C   UNL     1      -4.892   2.788  25.440  0.00  0.00    +0.000 A 
ATOM     27  C   UNL     1      -5.674   2.673  25.200  0.00  0.00    +0.000 A 
ATOM     28  C   UNL     1      -5.917   1.933  24.929  0.00  0.00    +0.000 A 
ATOM     29  C   UNL     1      -5.379   1.308  24.899  0.00  0.00    +0.005 A 
ENDBRANCH  22  24
ENDBRANCH  20  21
ENDBRANCH  19  20
TORSDOF 6
ENDMDL
MODEL 6
REMARK VINA RESULT:      -9.6      2.682      4.669
REMARK  Name = 
REMARK  6 active torsions:
REMARK  status: ('A' for Active; 'I' for Inactive)
REMARK    1  A    between atoms: C_2  and  C_4
REMARK    2  A    between atoms: C_6  and  C_7
REMARK    3  A    between atoms: C_7  and  C_8
REMARK    4  A    between atoms: C_19  and  C_20
REMARK    5  A    between atoms: C_20  and  N_21
REMARK    6  A    between atoms: C_22  and  C_24
REMARK                            x       y       z     vdW  Elec       q    Type
REMARK                         _______ _______ _______ _____ _____    ______ ____
ROOT
ATOM      4  C   UNL     1      -1.915   0.473  24.793  0.00  0.00    +0.006 C 
ATOM      5  C   UNL     1      -2.554   0.992  24.855  0.00  0.00    +0.005 C 
ATOM      6  C   UNL     1      -2.662   1.582  24.291  0.00  0.00    +0.027 C 
ATOM     16  C   UNL     1      -2.132   1.656  23.663  0.00  0.00    -0.048 C 
ATOM     17  C   UNL     1      -2.241   2.248  23.099  0.00  0.00    +0.026 C 
ATOM     18  C   UNL     1      -1.493   1.138  23.601  0.00  0.00    -0.033 C 
ATOM     19  C   UNL     1      -1.384   0.547  24.165  0.00  0.00    +0.043 C 
ENDROOT
BRANCH   4   2
ATOM      1  C   UNL     1      -2.156  -0.858  25.252  0.00  0.00    +0.000 C 
ATOM      2  C   UNL     1      -1.807  -0.118  25.358  0.00  0.00    +0.000 C 
ATOM      3  C   UNL     1      -1.350   0.031  26.028  0.00  0.00    +0.000 C 
ENDBRANCH   4   2
BRANCH   6   7
ATOM      7  C   UNL     1      -3.302   2.101  24.354  0.00  0.00    +0.089 C 
BRANCH   7   8
ATOM      8  C   UNL     1      -4.063   1.805  24.469  0.00  0.00    +0.226 C 
ATOM      9  O   UNL     1      -4.270   1.068  24.161  0.00  0.00    -0.275 OA
ATOM     10  N   UNL     1      -4.617   2.246  24.891  0.00  0.00    -0.274 N 
ATOM     11  C   UNL     1      -4.411   2.983  25.199  0.00  0.00    +0.125 C 
ATOM     12  C   UNL     1      -4.965   3.423  25.622  0.00  0.00    +0.164 C 
ATOM     13  O   UNL     1      -5.727   3.127  25.737  0.00  0.00    -0.350 OA
ATOM     14  C   UNL     1      -5.934   2.391  25.429  0.00  0.00    +0.164 C 
ATOM     15  C   UNL     1      -5.380   1.949  25.006  0.00  0.00    +0.125 C 
ENDBRANCH   7   8
ENDBRANCH   6   7
BRANCH  19  20
ATOM     20  C   UNL     1      -0.746   0.029  24.103  0.00  0.00    +0.120 C 
BRANCH  20  21
ATOM     21  N   UNL     1      -0.060   0.264  23.709  0.00  0.00    -0.201 NA
ATOM     22  C   UNL     1       0.510  -0.296  23.504  0.00  0.00    +0.265 C 
ATOM     23  O   UNL     1       0.395  -1.091  23.693  0.00  0.00    -0.268 OA
BRANCH  22  24
ATOM     24  C   UNL     1       1.197  -0.060  23.110  0.00  0.00    +0.055 A 
ATOM     25  C   UNL     1       1.716   0.471  23.469  0.00  0.00    +0.005 A 
ATOM     26  C   UNL     1       2.402   0.706  23.075  0.00  0.00    +0.000 A 
ATOM     27  C   UNL     1       2.568   0.410  22.323  0.00  0.00    +0.000 A 
ATOM     28  C   UNL     1       2.049  -0.122  21.966  0.00  0.00    +0.000 A 
ATOM     29  C   UNL     1       1.363  -0.357  22.359  0.00  0.00    +0.005 A 
ENDBRANCH  22  24
ENDBRANCH  20  21
ENDBRANCH  19  20
TORSDOF 6
ENDMDL
MODEL 7
REMARK VINA RESULT:      -9.2      2.815      4.317
REMARK  Name = 
REMARK  6 active torsions:
REMARK  status: ('A' for Active; 'I' for Inactive)
REMARK    1  A    between atoms: C_2  and  C_4
REMARK    2  A    between atoms: C_6  and  C_7
REMARK    3  A    between atoms: C_7  and  C_8
REMARK    4  A    between atoms: C_19  and  C_20
REMARK    5  A    between atoms: C_20  and  N_21
REMARK    6  A    between atoms: C_22  and  C_24
REMARK                            x       y       z     vdW  Elec       q    Type
REMARK                         _______ _______ _______ _____ _____    ______ ____
ROOT
ATOM      4  C   UNL     1      -2.100   1.872  23.343  0.00  0.00    +0.006 C 
ATOM      5  C   UNL     1      -1.340   1.560  23.416  0.00  0.00    +0.005 C 
ATOM      6  C   UNL     1      -0.964   1.558  24.149  0.00  0.00    +0.027 C 
ATOM     16  C   UNL     1      -1.346   1.867  24.811  0.00  0.00    -0.048 C 
ATOM     17  C   UNL     1      -0.969   1.865  25.545  0.00  0.00    +0.026 C 
ATOM     18  C   UNL     1      -2.107   2.179  24.739  0.00  0.00    -0.033 C 
ATOM     19  C   UNL     1      -2.484   2.182  24.006  0.00  0.00    +0.043 C 
ENDROOT
BRANCH   4   2
ATOM      1  C   UNL     1      -2.403   2.527  22.110  0.00  0.00    +0.000 C 
ATOM      2  C   UNL     1      -2.477   1.874  22.609  0.00  0.00    +0.000 C 
ATOM      3  C   UNL     1      -2.928   1.225  22.376  0.00  0.00    +0.000 C 
ENDBRANCH   4   2
BRANCH   6   7
ATOM      7  C   UNL     1      -0.203   1.246  24.221  0.00  0.00    +0.089 C 
BRANCH   7   8
ATOM      8  C   UNL     1      -0.009   0.539  23.842  0.00  0.00    +0.226 C 
ATOM      9  O   UNL     1      -0.555  -0.079  23.817  0.00  0.00    -0.275 OA
ATOM     10  N   UNL     1       0.731   0.451  23.488  0.00  0.00    -0.274 N 
ATOM     11  C   UNL     1       1.277   1.069  23.513  0.00  0.00    +0.125 C 
ATOM     12  C   UNL     1       2.016   0.981  23.159  0.00  0.00    +0.164 C 
ATOM     13  O   UNL     1       2.211   0.274  22.779  0.00  0.00    -0.350 OA
ATOM     14  C   UNL     1       1.665  -0.344  22.754  0.00  0.00    +0.164 C 
ATOM     15  C   UNL     1       0.925  -0.256  23.108  0.00  0.00    +0.125 C 
ENDBRANCH   7   8
ENDBRANCH   6   7
BRANCH  19  20
ATOM     20  C   UNL     1      -3.244   2.494  23.933  0.00  0.00    +0.120 C 
BRANCH  20  21
ATOM     21  N   UNL     1      -3.837   2.264  24.459  0.00  0.00    -0.201 NA
ATOM     22  C   UNL     1      -4.507   2.734  24.554  0.00  0.00    +0.265 C 
ATOM     23  O   UNL     1      -4.586   3.434  24.124  0.00  0.00    -0.268 OA
BRANCH  22  24
ATOM     24  C   UNL     1      -5.101   2.505  25.081  0.00  0.00    +0.055 A 
ATOM     25  C   UNL     1      -5.558   1.836  24.921  0.00  0.00    +0.005 A 
ATOM     26  C   UNL     1      -6.150   1.607  25.447  0.00  0.00    +0.000 A 
ATOM     27  C   UNL     1      -6.286   2.046  26.133  0.00  0.00    +0.000 A 
ATOM     28  C   UNL     1      -5.828   2.714  26.292  0.00  0.00    +0.000 A 
ATOM     29  C   UNL     1      -5.236   2.943  25.766  0.00  0.00    +0.005 A 
ENDBRANCH  22  24
ENDBRANCH  20  21
ENDBRANCH  19  20
TORSDOF 6
ENDMDL
