REMARK  Name = 
REMARK  8 active torsions:
REMARK  status: ('A' for Active; 'I' for Inactive)
REMARK    1  A    between atoms: O_2  and  C_3
REMARK    2  A    between atoms: C_8  and  N_9
REMARK    3  A    between atoms: N_12  and  C_15
REMARK    4  A    between atoms: C_21  and  N_24
REMARK    5  A    between atoms: N_24  and  C_25
REMARK    6  A    between atoms: N_24  and  C_29
REMARK    7  A    between atoms: C_25  and  C_26
REMARK    8  A    between atoms: C_29  and  C_30
REMARK                            x       y       z     vdW  Elec       q    Type
REMARK                         _______ _______ _______ _____ _____    ______ ____
ROOT
ATOM     15  C   UNL     1       1.611  -0.930   0.000  0.00  0.00    +0.147 C 
ATOM     16  C   UNL     1       0.640  -0.930   0.000  0.00  0.00    +0.253 C 
ATOM     17  O   UNL     1       0.120  -1.643   0.000  0.00  0.00    -0.327 OA
ATOM     18  C   UNL     1       0.740  -1.266   0.000  0.00  0.00    +0.176 C 
ATOM     19  C   UNL     1       1.060  -0.557   0.000  0.00  0.00    +0.164 C 
ATOM     20  O   UNL     1       0.500  -0.117   0.000  0.00  0.00    -0.328 OA
ATOM     21  C   UNL     1       1.989  -0.542   0.000  0.00  0.00    +0.120 C 
ATOM     22  C   UNL     1       2.127  -1.359   0.000  0.00  0.00    +0.188 C 
ATOM     23  O   UNL     1       2.539  -2.074   0.000  0.00  0.00    -0.220 OA
ENDROOT
BRANCH  15  12
ATOM      9  N   UNL     1       0.771  -3.258   0.000  0.00  0.00    -0.302 N 
ATOM     10  C   UNL     1       0.239  -2.628   0.000  0.00  0.00    +0.108 C 
ATOM     11  C   UNL     1       0.519  -1.852   0.000  0.00  0.00    +0.094 C 
ATOM     12  N   UNL     1       1.331  -1.706   0.000  0.00  0.00    -0.265 NA
ATOM     13  C   UNL     1       1.863  -2.337   0.000  0.00  0.00    +0.094 C 
ATOM     14  C   UNL     1       1.583  -3.113   0.000  0.00  0.00    +0.108 C 
BRANCH   9   8
ATOM      3  C   UNL     1       1.022  -4.665   0.000  0.00  0.00    +0.152 A 
ATOM      4  C   UNL     1       0.742  -5.441   0.000  0.00  0.00    +0.038 A 
ATOM      5  C   UNL     1      -0.070  -5.586   0.000  0.00  0.00    +0.003 A 
ATOM      6  C   UNL     1      -0.602  -4.955   0.000  0.00  0.00    +0.001 A 
ATOM      7  C   UNL     1      -0.322  -4.180   0.000  0.00  0.00    +0.018 A 
ATOM      8  C   UNL     1       0.490  -4.034   0.000  0.00  0.00    +0.082 A 
BRANCH   3   2
ATOM      1  C   UNL     1       2.366  -5.150   0.000  0.00  0.00    +0.253 C 
ATOM      2  O   UNL     1       1.835  -4.520   0.000  0.00  0.00    -0.470 OA
ENDBRANCH   3   2
ENDBRANCH   9   8
ENDBRANCH  15  12
BRANCH  21  24
ATOM     24  N   UNL     1       2.517   0.093   0.000  0.00  0.00    -0.270 NA
BRANCH  24  25
ATOM     25  C   UNL     1       2.231   0.867   0.000  0.00  0.00    +0.072 C 
BRANCH  25  26
ATOM     26  C   UNL     1       2.758   1.501   0.000  0.00  0.00    +0.016 C 
ATOM     27  C   UNL     1       2.897   2.314   0.000  0.00  0.00    +0.001 C 
ATOM     28  C   UNL     1       3.532   1.787   0.000  0.00  0.00    +0.001 C 
ENDBRANCH  25  26
ENDBRANCH  24  25
BRANCH  24  29
ATOM     29  C   UNL     1       3.330  -0.046   0.000  0.00  0.00    +0.072 C 
BRANCH  29  30
ATOM     30  C   UNL     1       3.857   0.588   0.000  0.00  0.00    +0.016 C 
ATOM     31  C   UNL     1       3.996   1.401   0.000  0.00  0.00    +0.001 C 
ATOM     32  C   UNL     1       4.631   0.874   0.000  0.00  0.00    +0.001 C 
ENDBRANCH  29  30
ENDBRANCH  24  29
ENDBRANCH  21  24
TORSDOF 8
