MODEL 1
REMARK VINA RESULT:     -11.6      0.000      0.000
REMARK  Name = 
REMARK  2 active torsions:
REMARK  status: ('A' for Active; 'I' for Inactive)
REMARK    1  A    between atoms: N_6  and  C_7
REMARK    2  A    between atoms: C_7  and  C_8
REMARK                            x       y       z     vdW  Elec       q    Type
REMARK                         _______ _______ _______ _____ _____    ______ ____
ROOT
ATOM      1  C   UNL     1      -3.179   4.182  24.787  0.00  0.00    +0.117 C 
ATOM      2  N   UNL     1      -3.536   3.438  24.790  0.00  0.00    -0.261 N 
ATOM      3  C   UNL     1      -3.264   2.770  24.389  0.00  0.00    +0.116 C 
ATOM      4  C   UNL     1      -3.786   2.150  24.545  0.00  0.00    +0.113 C 
ATOM      5  C   UNL     1      -3.799   1.363  24.300  0.00  0.00    +0.094 C 
ATOM      6  N   UNL     1      -4.403   0.861  24.550  0.00  0.00    -0.266 NA
ATOM     17  C   UNL     1      -4.997   1.147  25.047  0.00  0.00    +0.094 C 
ATOM     18  C   UNL     1      -4.986   1.934  25.293  0.00  0.00    +0.112 C 
ATOM     19  N   UNL     1      -4.380   2.436  25.042  0.00  0.00    -0.261 N 
ATOM     20  C   UNL     1      -4.224   3.233  25.193  0.00  0.00    +0.307 C 
ATOM     21  O   UNL     1      -4.679   3.734  25.665  0.00  0.00    -0.252 OA
ENDROOT
BRANCH   6   7
ATOM      7  C   UNL     1      -4.416   0.074  24.305  0.00  0.00    +0.101 C 
BRANCH   7   8
ATOM      8  C   UNL     1      -4.061  -0.509  24.767  0.00  0.00    +0.014 A 
ATOM      9  C   UNL     1      -3.743  -0.402  25.522  0.00  0.00    +0.096 A 
ATOM     10  N   UNL     1      -3.446  -1.128  25.778  0.00  0.00    -0.244 NA
ATOM     11  C   UNL     1      -3.581  -1.683  25.183  0.00  0.00    +0.081 A 
ATOM     12  C   UNL     1      -3.960  -1.301  24.559  0.00  0.00    +0.016 A 
ATOM     13  C   UNL     1      -4.166  -1.723  23.880  0.00  0.00    +0.001 A 
ATOM     14  C   UNL     1      -3.991  -2.527  23.826  0.00  0.00    +0.000 A 
ATOM     15  C   UNL     1      -3.612  -2.910  24.451  0.00  0.00    +0.002 A 
ATOM     16  C   UNL     1      -3.407  -2.488  25.129  0.00  0.00    +0.019 A 
ENDBRANCH   7   8
ENDBRANCH   6   7
TORSDOF 2
ENDMDL
MODEL 2
REMARK VINA RESULT:     -10.4      2.635      3.069
REMARK  Name = 
REMARK  2 active torsions:
REMARK  status: ('A' for Active; 'I' for Inactive)
REMARK    1  A    between atoms: N_6  and  C_7
REMARK    2  A    between atoms: C_7  and  C_8
REMARK                            x       y       z     vdW  Elec       q    Type
REMARK                         _______ _______ _______ _____ _____    ______ ____
ROOT
ATOM      1  C   UNL     1       0.108   2.987  25.593  0.00  0.00    +0.117 C 
ATOM      2  N   UNL     1      -0.208   2.253  25.387  0.00  0.00    -0.261 N 
ATOM      3  C   UNL     1      -0.827   1.867  25.774  0.00  0.00    +0.116 C 
ATOM      4  C   UNL     1      -0.963   1.152  25.385  0.00  0.00    +0.113 C 
ATOM      5  C   UNL     1      -1.504   0.544  25.519  0.00  0.00    +0.094 C 
ATOM      6  N   UNL     1      -1.511  -0.119  25.029  0.00  0.00    -0.266 NA
ATOM     17  C   UNL     1      -0.976  -0.174  24.403  0.00  0.00    +0.094 C 
ATOM     18  C   UNL     1      -0.435   0.433  24.268  0.00  0.00    +0.112 C 
ATOM     19  N   UNL     1      -0.428   1.097  24.759  0.00  0.00    -0.261 N 
ATOM     20  C   UNL     1       0.038   1.778  24.761  0.00  0.00    +0.307 C 
ATOM     21  O   UNL     1       0.644   1.951  24.229  0.00  0.00    -0.252 OA
ENDROOT
BRANCH   6   7
ATOM      7  C   UNL     1      -2.052  -0.727  25.164  0.00  0.00    +0.101 C 
BRANCH   7   8
ATOM      8  C   UNL     1      -2.754  -0.758  24.732  0.00  0.00    +0.014 A 
ATOM      9  C   UNL     1      -3.158  -0.111  24.417  0.00  0.00    +0.096 A 
ATOM     10  N   UNL     1      -3.830  -0.395  24.030  0.00  0.00    -0.244 NA
ATOM     11  C   UNL     1      -3.841  -1.216  24.106  0.00  0.00    +0.081 A 
ATOM     12  C   UNL     1      -3.176  -1.440  24.540  0.00  0.00    +0.016 A 
ATOM     13  C   UNL     1      -3.040  -2.238  24.704  0.00  0.00    +0.001 A 
ATOM     14  C   UNL     1      -3.570  -2.810  24.434  0.00  0.00    +0.000 A 
ATOM     15  C   UNL     1      -4.235  -2.585  24.000  0.00  0.00    +0.002 A 
ATOM     16  C   UNL     1      -4.370  -1.789  23.836  0.00  0.00    +0.019 A 
ENDBRANCH   7   8
ENDBRANCH   6   7
TORSDOF 2
ENDMDL
