MODEL 1
REMARK VINA RESULT:      -8.3      0.000      0.000
REMARK  Name = 
REMARK  8 active torsions:
REMARK  status: ('A' for Active; 'I' for Inactive)
REMARK    1  A    between atoms: O_2  and  C_3
REMARK    2  A    between atoms: C_6  and  S_9
REMARK    3  A    between atoms: S_9  and  N_12
REMARK    4  A    between atoms: N_12  and  C_13
REMARK    5  A    between atoms: C_13  and  C_14
REMARK    6  A    between atoms: C_18  and  C_19
REMARK    7  A    between atoms: C_19  and  C_20
REMARK    8  A    between atoms: C_28  and  C_29
REMARK                            x       y       z     vdW  Elec       q    Type
REMARK                         _______ _______ _______ _____ _____    ______ ____
ROOT
ATOM     14  C   UNL     1      -1.712   1.085  24.304  0.00  0.00    +0.041 C 
ATOM     15  C   UNL     1      -2.239   0.511  24.032  0.00  0.00    -0.033 C 
ATOM     16  C   UNL     1      -3.044   0.579  24.197  0.00  0.00    -0.048 C 
ATOM     17  C   UNL     1      -3.571   0.004  23.924  0.00  0.00    +0.026 C 
ATOM     18  C   UNL     1      -3.323   1.220  24.634  0.00  0.00    +0.027 C 
ATOM     27  C   UNL     1      -2.797   1.794  24.907  0.00  0.00    +0.005 C 
ATOM     28  C   UNL     1      -1.991   1.726  24.742  0.00  0.00    +0.006 C 
ENDROOT
BRANCH  28  29
ATOM     29  C   UNL     1      -1.465   2.299  25.014  0.00  0.00    +0.000 C 
ATOM     30  C   UNL     1      -1.123   2.223  25.761  0.00  0.00    +0.000 C 
ATOM     31  C   UNL     1      -1.281   2.950  24.540  0.00  0.00    +0.000 C 
ENDBRANCH  28  29
BRANCH  14  13
ATOM     13  C   UNL     1      -0.907   1.017  24.140  0.00  0.00    +0.120 C 
BRANCH  13  12
ATOM     12  N   UNL     1      -0.618   0.342  23.764  0.00  0.00    -0.077 NA
BRANCH  12   9
ATOM      9  S   UNL     1       0.161   0.323  23.491  0.00  0.00    +0.077 S 
ATOM     10  O   UNL     1       0.383  -0.112  24.155  0.00  0.00    -0.152 OA
ATOM     11  O   UNL     1      -0.062   0.759  22.826  0.00  0.00    -0.152 OA
BRANCH   9   6
ATOM      3  C   UNL     1       2.495   0.266  22.671  0.00  0.00    +0.139 A 
ATOM      4  C   UNL     1       1.941  -0.269  22.377  0.00  0.00    +0.038 A 
ATOM      5  C   UNL     1       1.163  -0.250  22.650  0.00  0.00    +0.023 A 
ATOM      6  C   UNL     1       0.939   0.304  23.217  0.00  0.00    +0.124 A 
ATOM      7  C   UNL     1       1.492   0.839  23.512  0.00  0.00    +0.023 A 
ATOM      8  C   UNL     1       2.270   0.820  23.239  0.00  0.00    +0.038 A 
BRANCH   3   2
ATOM      1  C   UNL     1       3.845   0.727  22.748  0.00  0.00    +0.252 C 
ATOM      2  O   UNL     1       3.273   0.247  22.398  0.00  0.00    -0.471 OA
ENDBRANCH   3   2
ENDBRANCH   9   6
ENDBRANCH  12   9
ENDBRANCH  13  12
ENDBRANCH  14  13
BRANCH  18  19
ATOM     19  C   UNL     1      -4.129   1.288  24.799  0.00  0.00    +0.089 C 
BRANCH  19  20
ATOM     20  C   UNL     1      -4.517   2.005  24.669  0.00  0.00    +0.226 C 
ATOM     21  O   UNL     1      -4.289   2.492  24.044  0.00  0.00    -0.275 OA
ATOM     22  N   UNL     1      -5.135   2.234  25.166  0.00  0.00    -0.280 N 
ATOM     23  C   UNL     1      -5.573   2.930  25.105  0.00  0.00    +0.093 C 
ATOM     24  C   UNL     1      -6.132   2.934  25.712  0.00  0.00    +0.023 C 
ATOM     25  C   UNL     1      -6.040   2.241  26.147  0.00  0.00    +0.023 C 
ATOM     26  C   UNL     1      -5.424   1.808  25.810  0.00  0.00    +0.093 C 
ENDBRANCH  19  20
ENDBRANCH  18  19
TORSDOF 8
ENDMDL
MODEL 2
REMARK VINA RESULT:      -8.1      2.952      4.711
REMARK  Name = 
REMARK  8 active torsions:
REMARK  status: ('A' for Active; 'I' for Inactive)
REMARK    1  A    between atoms: O_2  and  C_3
REMARK    2  A    between atoms: C_6  and  S_9
REMARK    3  A    between atoms: S_9  and  N_12
REMARK    4  A    between atoms: N_12  and  C_13
REMARK    5  A    between atoms: C_13  and  C_14
REMARK    6  A    between atoms: C_18  and  C_19
REMARK    7  A    between atoms: C_19  and  C_20
REMARK    8  A    between atoms: C_28  and  C_29
REMARK                            x       y       z     vdW  Elec       q    Type
REMARK                         _______ _______ _______ _____ _____    ______ ____
ROOT
ATOM     14  C   UNL     1      -2.293   1.327  24.862  0.00  0.00    +0.041 C 
ATOM     15  C   UNL     1      -1.658   1.330  25.389  0.00  0.00    -0.033 C 
ATOM     16  C   UNL     1      -1.276   2.039  25.571  0.00  0.00    -0.048 C 
ATOM     17  C   UNL     1      -0.641   2.043  26.098  0.00  0.00    +0.026 C 
ATOM     18  C   UNL     1      -1.530   2.745  25.225  0.00  0.00    +0.027 C 
ATOM     27  C   UNL     1      -2.164   2.740  24.698  0.00  0.00    +0.005 C 
ATOM     28  C   UNL     1      -2.546   2.032  24.517  0.00  0.00    +0.006 C 
ENDROOT
BRANCH  28  29
ATOM     29  C   UNL     1      -3.180   2.028  23.990  0.00  0.00    +0.000 C 
ATOM     30  C   UNL     1      -3.044   1.943  23.181  0.00  0.00    +0.000 C 
ATOM     31  C   UNL     1      -3.952   2.111  24.272  0.00  0.00    +0.000 C 
ENDBRANCH  28  29
BRANCH  14  13
ATOM     13  C   UNL     1      -2.674   0.619  24.681  0.00  0.00    +0.120 C 
BRANCH  13  12
ATOM     12  N   UNL     1      -2.499  -0.066  25.107  0.00  0.00    -0.077 NA
BRANCH  12   9
ATOM      9  S   UNL     1      -2.836  -0.786  24.888  0.00  0.00    +0.077 S 
ATOM     10  O   UNL     1      -3.447  -0.664  25.430  0.00  0.00    -0.152 OA
ATOM     11  O   UNL     1      -2.226  -0.908  24.347  0.00  0.00    -0.152 OA
BRANCH   9   6
ATOM      3  C   UNL     1      -3.849  -2.947  24.233  0.00  0.00    +0.139 A 
ATOM      4  C   UNL     1      -4.174  -2.240  23.961  0.00  0.00    +0.038 A 
ATOM      5  C   UNL     1      -3.836  -1.519  24.180  0.00  0.00    +0.023 A 
ATOM      6  C   UNL     1      -3.174  -1.506  24.670  0.00  0.00    +0.124 A 
ATOM      7  C   UNL     1      -2.848  -2.213  24.942  0.00  0.00    +0.023 A 
ATOM      8  C   UNL     1      -3.185  -2.934  24.723  0.00  0.00    +0.038 A 
BRANCH   3   2
ATOM      1  C   UNL     1      -4.549  -3.746  23.278  0.00  0.00    +0.252 C 
ATOM      2  O   UNL     1      -4.186  -3.668  24.014  0.00  0.00    -0.471 OA
ENDBRANCH   3   2
ENDBRANCH   9   6
ENDBRANCH  12   9
ENDBRANCH  13  12
ENDBRANCH  14  13
BRANCH  18  19
ATOM     19  C   UNL     1      -1.148   3.453  25.406  0.00  0.00    +0.089 C 
BRANCH  19  20
ATOM     20  C   UNL     1      -1.589   4.140  25.527  0.00  0.00    +0.226 C 
ATOM     21  O   UNL     1      -2.272   4.117  25.990  0.00  0.00    -0.275 OA
ATOM     22  N   UNL     1      -1.348   4.850  25.183  0.00  0.00    -0.280 N 
ATOM     23  C   UNL     1      -1.730   5.577  25.254  0.00  0.00    +0.093 C 
ATOM     24  C   UNL     1      -1.300   6.135  24.823  0.00  0.00    +0.023 C 
ATOM     25  C   UNL     1      -0.652   5.752  24.487  0.00  0.00    +0.023 C 
ATOM     26  C   UNL     1      -0.682   4.958  24.709  0.00  0.00    +0.093 C 
ENDBRANCH  19  20
ENDBRANCH  18  19
TORSDOF 8
ENDMDL
MODEL 3
REMARK VINA RESULT:      -7.4      1.391      6.147
REMARK  Name = 
REMARK  8 active torsions:
REMARK  status: ('A' for Active; 'I' for Inactive)
REMARK    1  A    between atoms: O_2  and  C_3
REMARK    2  A    between atoms: C_6  and  S_9
REMARK    3  A    between atoms: S_9  and  N_12
REMARK    4  A    between atoms: N_12  and  C_13
REMARK    5  A    between atoms: C_13  and  C_14
REMARK    6  A    between atoms: C_18  and  C_19
REMARK    7  A    between atoms: C_19  and  C_20
REMARK    8  A    between atoms: C_28  and  C_29
REMARK                            x       y       z     vdW  Elec       q    Type
REMARK                         _______ _______ _______ _____ _____    ______ ____
ROOT
ATOM     14  C   UNL     1      -0.918   0.803  24.139  0.00  0.00    +0.041 C 
ATOM     15  C   UNL     1      -0.816  -0.006  24.017  0.00  0.00    -0.033 C 
ATOM     16  C   UNL     1      -0.072  -0.302  23.818  0.00  0.00    -0.048 C 
ATOM     17  C   UNL     1       0.031  -1.112  23.695  0.00  0.00    +0.026 C 
ATOM     18  C   UNL     1       0.570   0.212  23.741  0.00  0.00    +0.027 C 
ATOM     27  C   UNL     1       0.467   1.021  23.863  0.00  0.00    +0.005 C 
ATOM     28  C   UNL     1      -0.277   1.317  24.062  0.00  0.00    +0.006 C 
ENDROOT
BRANCH  28  29
ATOM     29  C   UNL     1      -0.380   2.125  24.185  0.00  0.00    +0.000 C 
ATOM     30  C   UNL     1      -0.270   2.446  24.937  0.00  0.00    +0.000 C 
ATOM     31  C   UNL     1      -0.593   2.615  23.555  0.00  0.00    +0.000 C 
ENDBRANCH  28  29
BRANCH  14  13
ATOM     13  C   UNL     1      -1.662   1.099  24.338  0.00  0.00    +0.120 C 
BRANCH  13  12
ATOM     12  N   UNL     1      -2.324   0.608  24.304  0.00  0.00    -0.077 NA
BRANCH  12   9
ATOM      9  S   UNL     1      -3.072   0.911  24.476  0.00  0.00    +0.077 S 
ATOM     10  O   UNL     1      -3.221   1.000  23.669  0.00  0.00    -0.152 OA
ATOM     11  O   UNL     1      -2.923   0.823  25.283  0.00  0.00    -0.152 OA
BRANCH   9   6
ATOM      3  C   UNL     1      -5.316   1.820  24.991  0.00  0.00    +0.139 A 
ATOM      4  C   UNL     1      -5.131   1.041  25.186  0.00  0.00    +0.038 A 
ATOM      5  C   UNL     1      -4.383   0.738  25.015  0.00  0.00    +0.023 A 
ATOM      6  C   UNL     1      -3.820   1.214  24.648  0.00  0.00    +0.124 A 
ATOM      7  C   UNL     1      -4.003   1.994  24.452  0.00  0.00    +0.023 A 
ATOM      8  C   UNL     1      -4.751   2.297  24.623  0.00  0.00    +0.038 A 
BRANCH   3   2
ATOM      1  C   UNL     1      -6.150   2.703  25.742  0.00  0.00    +0.252 C 
ATOM      2  O   UNL     1      -6.064   2.123  25.162  0.00  0.00    -0.471 OA
ENDBRANCH   3   2
ENDBRANCH   9   6
ENDBRANCH  12   9
ENDBRANCH  13  12
ENDBRANCH  14  13
BRANCH  18  19
ATOM     19  C   UNL     1       1.314  -0.084  23.542  0.00  0.00    +0.089 C 
BRANCH  19  20
ATOM     20  C   UNL     1       1.624   0.052  22.789  0.00  0.00    +0.226 C 
ATOM     21  O   UNL     1       1.128   0.040  22.130  0.00  0.00    -0.275 OA
ATOM     22  N   UNL     1       2.430   0.200  22.696  0.00  0.00    -0.280 N 
ATOM     23  C   UNL     1       2.817   0.345  21.982  0.00  0.00    +0.093 C 
ATOM     24  C   UNL     1       3.617   0.464  22.146  0.00  0.00    +0.023 C 
ATOM     25  C   UNL     1       3.725   0.392  22.960  0.00  0.00    +0.023 C 
ATOM     26  C   UNL     1       2.991   0.229  23.300  0.00  0.00    +0.093 C 
ENDBRANCH  19  20
ENDBRANCH  18  19
TORSDOF 8
ENDMDL
MODEL 4
REMARK VINA RESULT:      -7.4      2.816      4.562
REMARK  Name = 
REMARK  8 active torsions:
REMARK  status: ('A' for Active; 'I' for Inactive)
REMARK    1  A    between atoms: O_2  and  C_3
REMARK    2  A    between atoms: C_6  and  S_9
REMARK    3  A    between atoms: S_9  and  N_12
REMARK    4  A    between atoms: N_12  and  C_13
REMARK    5  A    between atoms: C_13  and  C_14
REMARK    6  A    between atoms: C_18  and  C_19
REMARK    7  A    between atoms: C_19  and  C_20
REMARK    8  A    between atoms: C_28  and  C_29
REMARK                            x       y       z     vdW  Elec       q    Type
REMARK                         _______ _______ _______ _____ _____    ______ ____
ROOT
ATOM     14  C   UNL     1      -2.797   1.054  24.946  0.00  0.00    +0.041 C 
ATOM     15  C   UNL     1      -3.620   1.065  24.999  0.00  0.00    -0.033 C 
ATOM     16  C   UNL     1      -4.047   0.362  24.927  0.00  0.00    -0.048 C 
ATOM     17  C   UNL     1      -4.871   0.372  24.980  0.00  0.00    +0.026 C 
ATOM     18  C   UNL     1      -3.650  -0.351  24.802  0.00  0.00    +0.027 C 
ATOM     27  C   UNL     1      -2.827  -0.360  24.750  0.00  0.00    +0.005 C 
ATOM     28  C   UNL     1      -2.400   0.343  24.821  0.00  0.00    +0.006 C 
ENDROOT
BRANCH  28  29
ATOM     29  C   UNL     1      -1.578   0.332  24.768  0.00  0.00    +0.000 C 
ATOM     30  C   UNL     1      -1.212   0.385  24.031  0.00  0.00    +0.000 C 
ATOM     31  C   UNL     1      -1.120   0.270  25.452  0.00  0.00    +0.000 C 
ENDBRANCH  28  29
BRANCH  14  13
ATOM     13  C   UNL     1      -2.371   1.757  25.018  0.00  0.00    +0.120 C 
BRANCH  13  12
ATOM     12  N   UNL     1      -2.762   2.462  25.191  0.00  0.00    -0.077 NA
BRANCH  12   9
ATOM      9  S   UNL     1      -2.361   3.181  25.139  0.00  0.00    +0.077 S 
ATOM     10  O   UNL     1      -2.123   3.106  25.925  0.00  0.00    -0.152 OA
ATOM     11  O   UNL     1      -2.599   3.256  24.352  0.00  0.00    -0.152 OA
BRANCH   9   6
ATOM      3  C   UNL     1      -1.159   5.338  24.980  0.00  0.00    +0.139 A 
ATOM      4  C   UNL     1      -1.931   5.316  25.270  0.00  0.00    +0.038 A 
ATOM      5  C   UNL     1      -2.332   4.597  25.322  0.00  0.00    +0.023 A 
ATOM      6  C   UNL     1      -1.960   3.900  25.086  0.00  0.00    +0.124 A 
ATOM      7  C   UNL     1      -1.189   3.921  24.796  0.00  0.00    +0.023 A 
ATOM      8  C   UNL     1      -0.788   4.640  24.743  0.00  0.00    +0.038 A 
BRANCH   3   2
ATOM      1  C   UNL     1      -0.042   6.101  24.521  0.00  0.00    +0.252 C 
ATOM      2  O   UNL     1      -0.758   6.057  24.927  0.00  0.00    -0.471 OA
ENDBRANCH   3   2
ENDBRANCH   9   6
ENDBRANCH  12   9
ENDBRANCH  13  12
ENDBRANCH  14  13
BRANCH  18  19
ATOM     19  C   UNL     1      -4.076  -1.053  24.731  0.00  0.00    +0.089 C 
BRANCH  19  20
ATOM     20  C   UNL     1      -3.780  -1.751  25.058  0.00  0.00    +0.226 C 
ATOM     21  O   UNL     1      -3.481  -1.753  25.827  0.00  0.00    -0.275 OA
ATOM     22  N   UNL     1      -3.781  -2.447  24.615  0.00  0.00    -0.280 N 
ATOM     23  C   UNL     1      -3.505  -3.182  24.866  0.00  0.00    +0.093 C 
ATOM     24  C   UNL     1      -3.613  -3.719  24.249  0.00  0.00    +0.023 C 
ATOM     25  C   UNL     1      -3.956  -3.316  23.617  0.00  0.00    +0.023 C 
ATOM     26  C   UNL     1      -4.060  -2.530  23.843  0.00  0.00    +0.093 C 
ENDBRANCH  19  20
ENDBRANCH  18  19
TORSDOF 8
ENDMDL
