MODEL 1
REMARK VINA RESULT:     -10.7      0.000      0.000
REMARK  Name = 
REMARK  8 active torsions:
REMARK  status: ('A' for Active; 'I' for Inactive)
REMARK    1  A    between atoms: O_2  and  C_3
REMARK    2  A    between atoms: C_3  and  C_4
REMARK    3  A    between atoms: C_6  and  C_7
REMARK    4  A    between atoms: C_7  and  C_8
REMARK    5  A    between atoms: C_13  and  C_14
REMARK    6  A    between atoms: C_14  and  C_15
REMARK    7  A    between atoms: C_22  and  O_23
REMARK    8  A    between atoms: C_25  and  O_26
REMARK                            x       y       z     vdW  Elec       q    Type
REMARK                         _______ _______ _______ _____ _____    ______ ____
ROOT
ATOM     14  C   UNL     1      -3.411  -0.300  24.657  0.00  0.00    +0.085 C 
ENDROOT
BRANCH  14  15
ATOM     15  C   UNL     1      -4.222  -0.148  24.678  0.00  0.00    +0.226 C 
ATOM     16  O   UNL     1      -4.760  -0.762  24.556  0.00  0.00    -0.275 OA
ATOM     17  N   UNL     1      -4.494   0.618  24.820  0.00  0.00    -0.275 N 
ATOM     18  C   UNL     1      -5.306   0.770  24.840  0.00  0.00    +0.098 C 
ATOM     19  C   UNL     1      -5.578   1.536  24.982  0.00  0.00    +0.048 C 
ATOM     20  C   UNL     1      -5.040   2.149  25.103  0.00  0.00    -0.020 A 
ATOM     21  C   UNL     1      -5.312   2.915  25.246  0.00  0.00    +0.036 A 
ATOM     22  C   UNL     1      -4.775   3.528  25.367  0.00  0.00    +0.172 A 
ATOM     25  C   UNL     1      -3.963   3.376  25.346  0.00  0.00    +0.172 A 
ATOM     28  C   UNL     1      -3.691   2.611  25.205  0.00  0.00    +0.037 A 
ATOM     29  C   UNL     1      -4.229   1.996  25.083  0.00  0.00    -0.003 A 
ATOM     30  C   UNL     1      -3.957   1.231  24.941  0.00  0.00    +0.120 C 
BRANCH  22  23
ATOM     23  O   UNL     1      -5.047   4.294  25.509  0.00  0.00    -0.468 OA
ATOM     24  C   UNL     1      -5.858   4.446  25.531  0.00  0.00    +0.253 C 
ENDBRANCH  22  23
BRANCH  25  26
ATOM     26  O   UNL     1      -3.426   3.990  25.468  0.00  0.00    -0.468 OA
ATOM     27  C   UNL     1      -2.617   3.829  25.502  0.00  0.00    +0.253 C 
ENDBRANCH  25  26
ENDBRANCH  14  15
BRANCH  14  13
ATOM      8  C   UNL     1      -2.345  -1.249  24.712  0.00  0.00    +0.024 C 
ATOM      9  C   UNL     1      -2.072  -2.023  24.630  0.00  0.00    +0.089 C 
ATOM     10  N   UNL     1      -2.594  -2.622  24.409  0.00  0.00    -0.218 NA
ATOM     11  C   UNL     1      -3.388  -2.448  24.271  0.00  0.00    +0.089 C 
ATOM     12  C   UNL     1      -3.661  -1.674  24.353  0.00  0.00    +0.019 C 
ATOM     13  C   UNL     1      -3.139  -1.075  24.574  0.00  0.00    +0.012 C 
BRANCH   8   7
ATOM      7  C   UNL     1      -1.823  -0.649  24.933  0.00  0.00    +0.051 C 
BRANCH   7   6
ATOM      4  C   UNL     1       0.033  -0.315  23.932  0.00  0.00    +0.184 A 
ATOM      5  C   UNL     1      -0.759  -0.127  24.063  0.00  0.00    +0.056 A 
ATOM      6  C   UNL     1      -1.053  -0.642  24.636  0.00  0.00    +0.100 A 
ATOM     31  N   UNL     1      -0.442  -1.149  24.860  0.00  0.00    -0.082 NA
ATOM     32  O   UNL     1       0.230  -0.946  24.424  0.00  0.00    -0.356 OA
BRANCH   4   3
ATOM      3  C   UNL     1       0.540   0.062  23.402  0.00  0.00    +0.209 C 
BRANCH   3   2
ATOM      1  C   UNL     1       1.662   0.001  22.519  0.00  0.00    +0.175 C 
ATOM      2  O   UNL     1       1.078  -0.380  22.959  0.00  0.00    -0.343 OA
ENDBRANCH   3   2
ENDBRANCH   4   3
ENDBRANCH   7   6
ENDBRANCH   8   7
ENDBRANCH  14  13
TORSDOF 8
ENDMDL
MODEL 2
REMARK VINA RESULT:     -10.6      1.566      4.774
REMARK  Name = 
REMARK  8 active torsions:
REMARK  status: ('A' for Active; 'I' for Inactive)
REMARK    1  A    between atoms: O_2  and  C_3
REMARK    2  A    between atoms: C_3  and  C_4
REMARK    3  A    between atoms: C_6  and  C_7
REMARK    4  A    between atoms: C_7  and  C_8
REMARK    5  A    between atoms: C_13  and  C_14
REMARK    6  A    between atoms: C_14  and  C_15
REMARK    7  A    between atoms: C_22  and  O_23
REMARK    8  A    between atoms: C_25  and  O_26
REMARK                            x       y       z     vdW  Elec       q    Type
REMARK                         _______ _______ _______ _____ _____    ______ ____
ROOT
ATOM     14  C   UNL     1      -4.113   1.760  24.646  0.00  0.00    +0.085 C 
ENDROOT
BRANCH  14  15
ATOM     15  C   UNL     1      -4.561   1.069  24.590  0.00  0.00    +0.226 C 
ATOM     16  O   UNL     1      -5.384   1.115  24.555  0.00  0.00    -0.275 OA
ATOM     17  N   UNL     1      -4.186   0.335  24.569  0.00  0.00    -0.275 N 
ATOM     18  C   UNL     1      -4.635  -0.356  24.514  0.00  0.00    +0.098 C 
ATOM     19  C   UNL     1      -4.260  -1.090  24.493  0.00  0.00    +0.048 C 
ATOM     20  C   UNL     1      -3.438  -1.135  24.527  0.00  0.00    -0.020 A 
ATOM     21  C   UNL     1      -3.062  -1.869  24.507  0.00  0.00    +0.036 A 
ATOM     22  C   UNL     1      -2.240  -1.914  24.541  0.00  0.00    +0.172 A 
ATOM     25  C   UNL     1      -1.791  -1.223  24.597  0.00  0.00    +0.172 A 
ATOM     28  C   UNL     1      -2.166  -0.489  24.618  0.00  0.00    +0.037 A 
ATOM     29  C   UNL     1      -2.989  -0.444  24.583  0.00  0.00    -0.003 A 
ATOM     30  C   UNL     1      -3.363   0.290  24.604  0.00  0.00    +0.120 C 
BRANCH  22  23
ATOM     23  O   UNL     1      -1.865  -2.649  24.520  0.00  0.00    -0.468 OA
ATOM     24  C   UNL     1      -2.275  -3.313  24.254  0.00  0.00    +0.253 C 
ENDBRANCH  22  23
BRANCH  25  26
ATOM     26  O   UNL     1      -0.968  -1.268  24.631  0.00  0.00    -0.468 OA
ATOM     27  C   UNL     1      -0.518  -0.577  24.642  0.00  0.00    +0.253 C 
ENDBRANCH  25  26
ENDBRANCH  14  15
BRANCH  14  13
ATOM      8  C   UNL     1      -4.059   3.164  24.904  0.00  0.00    +0.024 C 
ATOM      9  C   UNL     1      -4.383   3.841  25.247  0.00  0.00    +0.089 C 
ATOM     10  N   UNL     1      -5.087   3.789  25.673  0.00  0.00    -0.218 NA
ATOM     11  C   UNL     1      -5.466   3.062  25.757  0.00  0.00    +0.089 C 
ATOM     12  C   UNL     1      -5.142   2.385  25.415  0.00  0.00    +0.019 C 
ATOM     13  C   UNL     1      -4.438   2.437  24.988  0.00  0.00    +0.012 C 
BRANCH   8   7
ATOM      7  C   UNL     1      -3.354   3.215  24.477  0.00  0.00    +0.051 C 
BRANCH   7   6
ATOM      4  C   UNL     1      -1.485   3.714  25.380  0.00  0.00    +0.184 A 
ATOM      5  C   UNL     1      -2.010   3.158  25.071  0.00  0.00    +0.056 A 
ATOM      6  C   UNL     1      -2.687   3.558  24.822  0.00  0.00    +0.100 A 
ATOM     31  N   UNL     1      -2.580   4.361  24.977  0.00  0.00    -0.082 NA
ATOM     32  O   UNL     1      -1.837   4.457  25.323  0.00  0.00    -0.356 OA
BRANCH   4   3
ATOM      3  C   UNL     1      -0.738   3.554  25.692  0.00  0.00    +0.209 C 
BRANCH   3   2
ATOM      1  C   UNL     1       0.174   2.641  26.306  0.00  0.00    +0.175 C 
ATOM      2  O   UNL     1      -0.588   2.825  26.049  0.00  0.00    -0.343 OA
ENDBRANCH   3   2
ENDBRANCH   4   3
ENDBRANCH   7   6
ENDBRANCH   8   7
ENDBRANCH  14  13
TORSDOF 8
ENDMDL
MODEL 3
REMARK VINA RESULT:     -10.0      1.255      2.001
REMARK  Name = 
REMARK  8 active torsions:
REMARK  status: ('A' for Active; 'I' for Inactive)
REMARK    1  A    between atoms: O_2  and  C_3
REMARK    2  A    between atoms: C_3  and  C_4
REMARK    3  A    between atoms: C_6  and  C_7
REMARK    4  A    between atoms: C_7  and  C_8
REMARK    5  A    between atoms: C_13  and  C_14
REMARK    6  A    between atoms: C_14  and  C_15
REMARK    7  A    between atoms: C_22  and  O_23
REMARK    8  A    between atoms: C_25  and  O_26
REMARK                            x       y       z     vdW  Elec       q    Type
REMARK                         _______ _______ _______ _____ _____    ______ ____
ROOT
ATOM     14  C   UNL     1      -3.530   0.341  25.092  0.00  0.00    +0.085 C 
ENDROOT
BRANCH  14  15
ATOM     15  C   UNL     1      -3.989   1.012  24.950  0.00  0.00    +0.226 C 
ATOM     16  O   UNL     1      -4.788   0.933  24.760  0.00  0.00    -0.275 OA
ATOM     17  N   UNL     1      -3.647   1.762  24.998  0.00  0.00    -0.275 N 
ATOM     18  C   UNL     1      -4.106   2.434  24.856  0.00  0.00    +0.098 C 
ATOM     19  C   UNL     1      -3.766   3.183  24.904  0.00  0.00    +0.048 C 
ATOM     20  C   UNL     1      -2.967   3.262  25.094  0.00  0.00    -0.020 A 
ATOM     21  C   UNL     1      -2.626   4.012  25.143  0.00  0.00    +0.036 A 
ATOM     22  C   UNL     1      -1.828   4.091  25.333  0.00  0.00    +0.172 A 
ATOM     25  C   UNL     1      -1.369   3.419  25.475  0.00  0.00    +0.172 A 
ATOM     28  C   UNL     1      -1.710   2.670  25.427  0.00  0.00    +0.037 A 
ATOM     29  C   UNL     1      -2.509   2.590  25.237  0.00  0.00    -0.003 A 
ATOM     30  C   UNL     1      -2.849   1.841  25.188  0.00  0.00    +0.120 C 
BRANCH  22  23
ATOM     23  O   UNL     1      -1.487   4.841  25.381  0.00  0.00    -0.468 OA
ATOM     24  C   UNL     1      -1.878   5.493  25.061  0.00  0.00    +0.253 C 
ENDBRANCH  22  23
BRANCH  25  26
ATOM     26  O   UNL     1      -0.570   3.499  25.665  0.00  0.00    -0.468 OA
ATOM     27  C   UNL     1      -0.105   2.827  25.780  0.00  0.00    +0.253 C 
ENDBRANCH  25  26
ENDBRANCH  14  15
BRANCH  14  13
ATOM      8  C   UNL     1      -3.255  -1.040  24.855  0.00  0.00    +0.024 C 
ATOM      9  C   UNL     1      -3.455  -1.759  24.504  0.00  0.00    +0.089 C 
ATOM     10  N   UNL     1      -4.134  -1.814  24.038  0.00  0.00    -0.218 NA
ATOM     11  C   UNL     1      -4.611  -1.152  23.924  0.00  0.00    +0.089 C 
ATOM     12  C   UNL     1      -4.410  -0.433  24.275  0.00  0.00    +0.019 C 
ATOM     13  C   UNL     1      -3.731  -0.378  24.740  0.00  0.00    +0.012 C 
BRANCH   8   7
ATOM      7  C   UNL     1      -2.575  -0.985  25.321  0.00  0.00    +0.051 C 
BRANCH   7   6
ATOM      4  C   UNL     1      -0.622  -1.261  24.504  0.00  0.00    +0.184 A 
ATOM      5  C   UNL     1      -1.242  -0.770  24.740  0.00  0.00    +0.056 A 
ATOM      6  C   UNL     1      -1.850  -1.247  25.027  0.00  0.00    +0.100 A 
ATOM     31  N   UNL     1      -1.606  -2.032  24.968  0.00  0.00    -0.082 NA
ATOM     32  O   UNL     1      -0.847  -2.041  24.645  0.00  0.00    -0.356 OA
BRANCH   4   3
ATOM      3  C   UNL     1       0.096  -1.014  24.183  0.00  0.00    +0.209 C 
BRANCH   3   2
ATOM      1  C   UNL     1       0.824  -0.223  23.241  0.00  0.00    +0.175 C 
ATOM      2  O   UNL     1       0.108  -0.446  23.584  0.00  0.00    -0.343 OA
ENDBRANCH   3   2
ENDBRANCH   4   3
ENDBRANCH   7   6
ENDBRANCH   8   7
ENDBRANCH  14  13
TORSDOF 8
ENDMDL
MODEL 4
REMARK VINA RESULT:     -10.0      1.393      3.104
REMARK  Name = 
REMARK  8 active torsions:
REMARK  status: ('A' for Active; 'I' for Inactive)
REMARK    1  A    between atoms: O_2  and  C_3
REMARK    2  A    between atoms: C_3  and  C_4
REMARK    3  A    between atoms: C_6  and  C_7
REMARK    4  A    between atoms: C_7  and  C_8
REMARK    5  A    between atoms: C_13  and  C_14
REMARK    6  A    between atoms: C_14  and  C_15
REMARK    7  A    between atoms: C_22  and  O_23
REMARK    8  A    between atoms: C_25  and  O_26
REMARK                            x       y       z     vdW  Elec       q    Type
REMARK                         _______ _______ _______ _____ _____    ______ ____
ROOT
ATOM     14  C   UNL     1      -1.624   1.217  24.949  0.00  0.00    +0.085 C 
ENDROOT
BRANCH  14  15
ATOM     15  C   UNL     1      -1.570   2.025  25.106  0.00  0.00    +0.226 C 
ATOM     16  O   UNL     1      -0.829   2.384  25.168  0.00  0.00    -0.275 OA
ATOM     17  N   UNL     1      -2.256   2.473  25.201  0.00  0.00    -0.275 N 
ATOM     18  C   UNL     1      -2.202   3.282  25.358  0.00  0.00    +0.098 C 
ATOM     19  C   UNL     1      -2.887   3.730  25.453  0.00  0.00    +0.048 C 
ATOM     20  C   UNL     1      -3.627   3.371  25.391  0.00  0.00    -0.020 A 
ATOM     21  C   UNL     1      -4.313   3.819  25.485  0.00  0.00    +0.036 A 
ATOM     22  C   UNL     1      -5.053   3.460  25.423  0.00  0.00    +0.172 A 
ATOM     25  C   UNL     1      -5.107   2.651  25.266  0.00  0.00    +0.172 A 
ATOM     28  C   UNL     1      -4.421   2.203  25.171  0.00  0.00    +0.037 A 
ATOM     29  C   UNL     1      -3.681   2.562  25.234  0.00  0.00    -0.003 A 
ATOM     30  C   UNL     1      -2.996   2.114  25.139  0.00  0.00    +0.120 C 
BRANCH  22  23
ATOM     23  O   UNL     1      -5.739   3.909  25.518  0.00  0.00    -0.468 OA
ATOM     24  C   UNL     1      -5.696   4.732  25.519  0.00  0.00    +0.253 C 
ENDBRANCH  22  23
BRANCH  25  26
ATOM     26  O   UNL     1      -5.847   2.292  25.204  0.00  0.00    -0.468 OA
ATOM     27  C   UNL     1      -5.907   1.513  24.939  0.00  0.00    +0.253 C 
ENDBRANCH  25  26
ENDBRANCH  14  15
BRANCH  14  13
ATOM      8  C   UNL     1      -0.873   0.032  24.678  0.00  0.00    +0.024 C 
ATOM      9  C   UNL     1      -0.264  -0.352  24.275  0.00  0.00    +0.089 C 
ATOM     10  N   UNL     1       0.202   0.067  23.738  0.00  0.00    -0.218 NA
ATOM     11  C   UNL     1       0.060   0.867  23.605  0.00  0.00    +0.089 C 
ATOM     12  C   UNL     1      -0.549   1.251  24.009  0.00  0.00    +0.019 C 
ATOM     13  C   UNL     1      -1.015   0.833  24.545  0.00  0.00    +0.012 C 
BRANCH   8   7
ATOM      7  C   UNL     1      -1.339  -0.387  25.215  0.00  0.00    +0.051 C 
BRANCH   7   6
ATOM      4  C   UNL     1      -2.424  -2.142  24.667  0.00  0.00    +0.184 A 
ATOM      5  C   UNL     1      -2.393  -1.331  24.817  0.00  0.00    +0.056 A 
ATOM      6  C   UNL     1      -1.618  -1.139  25.022  0.00  0.00    +0.100 A 
ATOM     31  N   UNL     1      -1.169  -1.831  24.999  0.00  0.00    -0.082 NA
ATOM     32  O   UNL     1      -1.668  -2.451  24.780  0.00  0.00    -0.356 OA
BRANCH   4   3
ATOM      3  C   UNL     1      -3.094  -2.569  24.445  0.00  0.00    +0.209 C 
BRANCH   3   2
ATOM      1  C   UNL     1      -4.370  -2.623  23.805  0.00  0.00    +0.175 C 
ATOM      2  O   UNL     1      -3.700  -2.197  24.027  0.00  0.00    -0.343 OA
ENDBRANCH   3   2
ENDBRANCH   4   3
ENDBRANCH   7   6
ENDBRANCH   8   7
ENDBRANCH  14  13
TORSDOF 8
ENDMDL
MODEL 5
REMARK VINA RESULT:      -9.8      1.878      5.813
REMARK  Name = 
REMARK  8 active torsions:
REMARK  status: ('A' for Active; 'I' for Inactive)
REMARK    1  A    between atoms: O_2  and  C_3
REMARK    2  A    between atoms: C_3  and  C_4
REMARK    3  A    between atoms: C_6  and  C_7
REMARK    4  A    between atoms: C_7  and  C_8
REMARK    5  A    between atoms: C_13  and  C_14
REMARK    6  A    between atoms: C_14  and  C_15
REMARK    7  A    between atoms: C_22  and  O_23
REMARK    8  A    between atoms: C_25  and  O_26
REMARK                            x       y       z     vdW  Elec       q    Type
REMARK                         _______ _______ _______ _____ _____    ______ ____
ROOT
ATOM     14  C   UNL     1      -1.151   2.561  25.440  0.00  0.00    +0.085 C 
ENDROOT
BRANCH  14  15
ATOM     15  C   UNL     1      -0.575   2.117  25.050  0.00  0.00    +0.226 C 
ATOM     16  O   UNL     1       0.113   2.483  24.779  0.00  0.00    -0.275 OA
ATOM     17  N   UNL     1      -0.688   1.308  24.932  0.00  0.00    -0.275 N 
ATOM     18  C   UNL     1      -0.111   0.864  24.542  0.00  0.00    +0.098 C 
ATOM     19  C   UNL     1      -0.223   0.056  24.424  0.00  0.00    +0.048 C 
ATOM     20  C   UNL     1      -0.911  -0.309  24.695  0.00  0.00    -0.020 A 
ATOM     21  C   UNL     1      -1.024  -1.118  24.578  0.00  0.00    +0.036 A 
ATOM     22  C   UNL     1      -1.711  -1.483  24.849  0.00  0.00    +0.172 A 
ATOM     25  C   UNL     1      -2.288  -1.039  25.239  0.00  0.00    +0.172 A 
ATOM     28  C   UNL     1      -2.176  -0.230  25.357  0.00  0.00    +0.037 A 
ATOM     29  C   UNL     1      -1.488   0.135  25.085  0.00  0.00    -0.003 A 
ATOM     30  C   UNL     1      -1.375   0.943  25.203  0.00  0.00    +0.120 C 
BRANCH  22  23
ATOM     23  O   UNL     1      -1.824  -2.292  24.731  0.00  0.00    -0.468 OA
ATOM     24  C   UNL     1      -1.337  -2.704  24.207  0.00  0.00    +0.253 C 
ENDBRANCH  22  23
BRANCH  25  26
ATOM     26  O   UNL     1      -2.976  -1.404  25.510  0.00  0.00    -0.468 OA
ATOM     27  C   UNL     1      -3.618  -0.946  25.754  0.00  0.00    +0.253 C 
ENDBRANCH  25  26
ENDBRANCH  14  15
BRANCH  14  13
ATOM      8  C   UNL     1      -1.844   3.798  25.611  0.00  0.00    +0.024 C 
ATOM      9  C   UNL     1      -1.904   4.609  25.474  0.00  0.00    +0.089 C 
ATOM     10  N   UNL     1      -1.327   4.994  25.027  0.00  0.00    -0.218 NA
ATOM     11  C   UNL     1      -0.693   4.569  24.718  0.00  0.00    +0.089 C 
ATOM     12  C   UNL     1      -0.634   3.758  24.855  0.00  0.00    +0.019 C 
ATOM     13  C   UNL     1      -1.210   3.373  25.302  0.00  0.00    +0.012 C 
BRANCH   8   7
ATOM      7  C   UNL     1      -2.421   3.413  26.059  0.00  0.00    +0.051 C 
BRANCH   7   6
ATOM      4  C   UNL     1      -4.486   3.448  25.514  0.00  0.00    +0.184 A 
ATOM      5  C   UNL     1      -3.747   3.079  25.518  0.00  0.00    +0.056 A 
ATOM      6  C   UNL     1      -3.220   3.567  25.923  0.00  0.00    +0.100 A 
ATOM     31  N   UNL     1      -3.633   4.238  26.169  0.00  0.00    -0.082 NA
ATOM     32  O   UNL     1      -4.415   4.163  25.916  0.00  0.00    -0.356 OA
BRANCH   4   3
ATOM      3  C   UNL     1      -5.173   3.152  25.168  0.00  0.00    +0.209 C 
BRANCH   3   2
ATOM      1  C   UNL     1      -6.112   2.083  25.035  0.00  0.00    +0.175 C 
ATOM      2  O   UNL     1      -5.523   2.467  25.466  0.00  0.00    -0.343 OA
ENDBRANCH   3   2
ENDBRANCH   4   3
ENDBRANCH   7   6
ENDBRANCH   8   7
ENDBRANCH  14  13
TORSDOF 8
ENDMDL
MODEL 6
REMARK VINA RESULT:      -9.4      1.750      4.203
REMARK  Name = 
REMARK  8 active torsions:
REMARK  status: ('A' for Active; 'I' for Inactive)
REMARK    1  A    between atoms: O_2  and  C_3
REMARK    2  A    between atoms: C_3  and  C_4
REMARK    3  A    between atoms: C_6  and  C_7
REMARK    4  A    between atoms: C_7  and  C_8
REMARK    5  A    between atoms: C_13  and  C_14
REMARK    6  A    between atoms: C_14  and  C_15
REMARK    7  A    between atoms: C_22  and  O_23
REMARK    8  A    between atoms: C_25  and  O_26
REMARK                            x       y       z     vdW  Elec       q    Type
REMARK                         _______ _______ _______ _____ _____    ______ ____
ROOT
ATOM     14  C   UNL     1      -2.657   1.989  25.339  0.00  0.00    +0.085 C 
ENDROOT
BRANCH  14  15
ATOM     15  C   UNL     1      -3.436   1.821  25.125  0.00  0.00    +0.226 C 
ATOM     16  O   UNL     1      -4.000   2.423  25.117  0.00  0.00    -0.275 OA
ATOM     17  N   UNL     1      -3.649   1.051  24.919  0.00  0.00    -0.275 N 
ATOM     18  C   UNL     1      -4.429   0.882  24.705  0.00  0.00    +0.098 C 
ATOM     19  C   UNL     1      -4.643   0.113  24.500  0.00  0.00    +0.048 C 
ATOM     20  C   UNL     1      -4.079  -0.488  24.508  0.00  0.00    -0.020 A 
ATOM     21  C   UNL     1      -4.293  -1.258  24.302  0.00  0.00    +0.036 A 
ATOM     22  C   UNL     1      -3.729  -1.859  24.310  0.00  0.00    +0.172 A 
ATOM     25  C   UNL     1      -2.950  -1.691  24.524  0.00  0.00    +0.172 A 
ATOM     28  C   UNL     1      -2.735  -0.922  24.730  0.00  0.00    +0.037 A 
ATOM     29  C   UNL     1      -3.300  -0.320  24.722  0.00  0.00    -0.003 A 
ATOM     30  C   UNL     1      -3.086   0.449  24.928  0.00  0.00    +0.120 C 
BRANCH  22  23
ATOM     23  O   UNL     1      -3.943  -2.629  24.105  0.00  0.00    -0.468 OA
ATOM     24  C   UNL     1      -4.581  -2.758  23.597  0.00  0.00    +0.253 C 
ENDBRANCH  22  23
BRANCH  25  26
ATOM     26  O   UNL     1      -2.385  -2.293  24.532  0.00  0.00    -0.468 OA
ATOM     27  C   UNL     1      -1.598  -2.118  24.706  0.00  0.00    +0.253 C 
ENDBRANCH  25  26
ENDBRANCH  14  15
BRANCH  14  13
ATOM      8  C   UNL     1      -1.570   2.913  25.418  0.00  0.00    +0.024 C 
ATOM      9  C   UNL     1      -1.276   3.679  25.339  0.00  0.00    +0.089 C 
ATOM     10  N   UNL     1      -1.778   4.290  25.103  0.00  0.00    -0.218 NA
ATOM     11  C   UNL     1      -2.572   4.134  24.946  0.00  0.00    +0.089 C 
ATOM     12  C   UNL     1      -2.865   3.367  25.024  0.00  0.00    +0.019 C 
ATOM     13  C   UNL     1      -2.363   2.757  25.260  0.00  0.00    +0.012 C 
BRANCH   8   7
ATOM      7  C   UNL     1      -1.067   2.301  25.654  0.00  0.00    +0.051 C 
BRANCH   7   6
ATOM      4  C   UNL     1       0.551   1.682  24.407  0.00  0.00    +0.184 A 
ATOM      5  C   UNL     1      -0.236   1.626  24.647  0.00  0.00    +0.056 A 
ATOM      6  C   UNL     1      -0.358   2.172  25.253  0.00  0.00    +0.100 A 
ATOM     31  N   UNL     1       0.354   2.565  25.388  0.00  0.00    -0.082 NA
ATOM     32  O   UNL     1       0.916   2.262  24.865  0.00  0.00    -0.356 OA
BRANCH   4   3
ATOM      3  C   UNL     1       0.910   1.235  23.814  0.00  0.00    +0.209 C 
BRANCH   3   2
ATOM      1  C   UNL     1       0.922   0.075  22.980  0.00  0.00    +0.175 C 
ATOM      2  O   UNL     1       0.530   0.568  23.512  0.00  0.00    -0.343 OA
ENDBRANCH   3   2
ENDBRANCH   4   3
ENDBRANCH   7   6
ENDBRANCH   8   7
ENDBRANCH  14  13
TORSDOF 8
ENDMDL
MODEL 7
REMARK VINA RESULT:      -9.1      1.678      3.442
REMARK  Name = 
REMARK  8 active torsions:
REMARK  status: ('A' for Active; 'I' for Inactive)
REMARK    1  A    between atoms: O_2  and  C_3
REMARK    2  A    between atoms: C_3  and  C_4
REMARK    3  A    between atoms: C_6  and  C_7
REMARK    4  A    between atoms: C_7  and  C_8
REMARK    5  A    between atoms: C_13  and  C_14
REMARK    6  A    between atoms: C_14  and  C_15
REMARK    7  A    between atoms: C_22  and  O_23
REMARK    8  A    between atoms: C_25  and  O_26
REMARK                            x       y       z     vdW  Elec       q    Type
REMARK                         _______ _______ _______ _____ _____    ______ ____
ROOT
ATOM     14  C   UNL     1      -1.512   2.791  24.584  0.00  0.00    +0.085 C 
ENDROOT
BRANCH  14  15
ATOM     15  C   UNL     1      -2.012   3.387  24.858  0.00  0.00    +0.226 C 
ATOM     16  O   UNL     1      -1.713   4.142  25.002  0.00  0.00    -0.275 OA
ATOM     17  N   UNL     1      -2.811   3.227  24.987  0.00  0.00    -0.275 N 
ATOM     18  C   UNL     1      -3.313   3.824  25.260  0.00  0.00    +0.098 C 
ATOM     19  C   UNL     1      -4.111   3.665  25.389  0.00  0.00    +0.048 C 
ATOM     20  C   UNL     1      -4.410   2.910  25.245  0.00  0.00    -0.020 A 
ATOM     21  C   UNL     1      -5.209   2.750  25.373  0.00  0.00    +0.036 A 
ATOM     22  C   UNL     1      -5.508   1.995  25.229  0.00  0.00    +0.172 A 
ATOM     25  C   UNL     1      -5.007   1.399  24.955  0.00  0.00    +0.172 A 
ATOM     28  C   UNL     1      -4.208   1.558  24.826  0.00  0.00    +0.037 A 
ATOM     29  C   UNL     1      -3.909   2.313  24.971  0.00  0.00    -0.003 A 
ATOM     30  C   UNL     1      -3.110   2.472  24.842  0.00  0.00    +0.120 C 
BRANCH  22  23
ATOM     23  O   UNL     1      -6.307   1.836  25.357  0.00  0.00    -0.468 OA
ATOM     24  C   UNL     1      -6.685   2.137  26.026  0.00  0.00    +0.253 C 
ENDBRANCH  22  23
BRANCH  25  26
ATOM     26  O   UNL     1      -5.306   0.643  24.810  0.00  0.00    -0.468 OA
ATOM     27  C   UNL     1      -4.798   0.036  24.578  0.00  0.00    +0.253 C 
ENDBRANCH  25  26
ENDBRANCH  14  15
BRANCH  14  13
ATOM      8  C   UNL     1      -0.302   2.040  24.704  0.00  0.00    +0.024 C 
ATOM      9  C   UNL     1       0.417   1.899  25.082  0.00  0.00    +0.089 C 
ATOM     10  N   UNL     1       0.646   2.370  25.719  0.00  0.00    -0.218 NA
ATOM     11  C   UNL     1       0.157   2.980  25.978  0.00  0.00    +0.089 C 
ATOM     12  C   UNL     1      -0.563   3.121  25.600  0.00  0.00    +0.019 C 
ATOM     13  C   UNL     1      -0.792   2.650  24.963  0.00  0.00    +0.012 C 
BRANCH   8   7
ATOM      7  C   UNL     1      -0.532   1.569  24.066  0.00  0.00    +0.051 C 
BRANCH   7   6
ATOM      4  C   UNL     1      -0.427  -0.551  24.297  0.00  0.00    +0.184 A 
ATOM      5  C   UNL     1      -0.797   0.173  24.441  0.00  0.00    +0.056 A 
ATOM      6  C   UNL     1      -0.359   0.762  24.065  0.00  0.00    +0.100 A 
ATOM     31  N   UNL     1       0.280   0.403  23.689  0.00  0.00    -0.082 NA
ATOM     32  O   UNL     1       0.238  -0.409  23.832  0.00  0.00    -0.356 OA
BRANCH   4   3
ATOM      3  C   UNL     1      -0.679  -1.287  24.570  0.00  0.00    +0.209 C 
BRANCH   3   2
ATOM      1  C   UNL     1      -1.646  -2.339  24.575  0.00  0.00    +0.175 C 
ATOM      2  O   UNL     1      -1.374  -1.620  24.276  0.00  0.00    -0.343 OA
ENDBRANCH   3   2
ENDBRANCH   4   3
ENDBRANCH   7   6
ENDBRANCH   8   7
ENDBRANCH  14  13
TORSDOF 8
ENDMDL
MODEL 8
REMARK VINA RESULT:      -7.8     17.433     19.108
REMARK  Name = 
REMARK  8 active torsions:
REMARK  status: ('A' for Active; 'I' for Inactive)
REMARK    1  A    between atoms: O_2  and  C_3
REMARK    2  A    between atoms: C_3  and  C_4
REMARK    3  A    between atoms: C_6  and  C_7
REMARK    4  A    between atoms: C_7  and  C_8
REMARK    5  A    between atoms: C_13  and  C_14
REMARK    6  A    between atoms: C_14  and  C_15
REMARK    7  A    between atoms: C_22  and  O_23
REMARK    8  A    between atoms: C_25  and  O_26
REMARK                            x       y       z     vdW  Elec       q    Type
REMARK                         _______ _______ _______ _____ _____    ______ ____
ROOT
ATOM     14  C   UNL     1      13.351   7.784  20.283  0.00  0.00    +0.085 C 
ENDROOT
BRANCH  14  15
ATOM     15  C   UNL     1      12.552   7.982  20.226  0.00  0.00    +0.226 C 
ATOM     16  O   UNL     1      12.075   7.963  20.899  0.00  0.00    -0.275 OA
ATOM     17  N   UNL     1      12.232   8.198  19.497  0.00  0.00    -0.275 N 
ATOM     18  C   UNL     1      11.432   8.395  19.441  0.00  0.00    +0.098 C 
ATOM     19  C   UNL     1      11.111   8.611  18.713  0.00  0.00    +0.048 C 
ATOM     20  C   UNL     1      11.589   8.630  18.041  0.00  0.00    -0.020 A 
ATOM     21  C   UNL     1      11.268   8.846  17.312  0.00  0.00    +0.036 A 
ATOM     22  C   UNL     1      11.746   8.864  16.640  0.00  0.00    +0.172 A 
ATOM     25  C   UNL     1      12.546   8.667  16.697  0.00  0.00    +0.172 A 
ATOM     28  C   UNL     1      12.866   8.451  17.425  0.00  0.00    +0.037 A 
ATOM     29  C   UNL     1      12.389   8.432  18.097  0.00  0.00    -0.003 A 
ATOM     30  C   UNL     1      12.709   8.216  18.826  0.00  0.00    +0.120 C 
BRANCH  22  23
ATOM     23  O   UNL     1      11.425   9.080  15.911  0.00  0.00    -0.468 OA
ATOM     24  C   UNL     1      10.609   9.049  15.794  0.00  0.00    +0.253 C 
ENDBRANCH  22  23
BRANCH  25  26
ATOM     26  O   UNL     1      13.023   8.685  16.024  0.00  0.00    -0.468 OA
ATOM     27  C   UNL     1      13.844   8.715  16.102  0.00  0.00    +0.253 C 
ENDBRANCH  25  26
ENDBRANCH  14  15
BRANCH  14  13
ATOM      8  C   UNL     1      14.383   7.504  21.230  0.00  0.00    +0.024 C 
ATOM      9  C   UNL     1      14.815   7.715  21.901  0.00  0.00    +0.089 C 
ATOM     10  N   UNL     1      14.644   8.420  22.295  0.00  0.00    -0.218 NA
ATOM     11  C   UNL     1      14.043   8.911  22.019  0.00  0.00    +0.089 C 
ATOM     12  C   UNL     1      13.612   8.700  21.348  0.00  0.00    +0.019 C 
ATOM     13  C   UNL     1      13.783   7.996  20.954  0.00  0.00    +0.012 C 
BRANCH   8   7
ATOM      7  C   UNL     1      14.554   6.799  20.836  0.00  0.00    +0.051 C 
BRANCH   7   6
ATOM      4  C   UNL     1      16.453   6.323  19.982  0.00  0.00    +0.184 A 
ATOM      5  C   UNL     1      15.655   6.519  19.902  0.00  0.00    +0.056 A 
ATOM      6  C   UNL     1      15.336   6.605  20.658  0.00  0.00    +0.100 A 
ATOM     31  N   UNL     1      15.937   6.462  21.205  0.00  0.00    -0.082 NA
ATOM     32  O   UNL     1      16.627   6.288  20.787  0.00  0.00    -0.356 OA
BRANCH   4   3
ATOM      3  C   UNL     1      16.982   6.187  19.365  0.00  0.00    +0.209 C 
BRANCH   3   2
ATOM      1  C   UNL     1      17.330   5.489  18.168  0.00  0.00    +0.175 C 
ATOM      2  O   UNL     1      16.835   5.585  18.820  0.00  0.00    -0.343 OA
ENDBRANCH   3   2
ENDBRANCH   4   3
ENDBRANCH   7   6
ENDBRANCH   8   7
ENDBRANCH  14  13
TORSDOF 8
ENDMDL
