MODEL 1
REMARK VINA RESULT:     -11.5      0.000      0.000
REMARK  Name = 
REMARK  6 active torsions:
REMARK  status: ('A' for Active; 'I' for Inactive)
REMARK    1  A    between atoms: O_2  and  C_3
REMARK    2  A    between atoms: C_6  and  C_9
REMARK    3  A    between atoms: C_12  and  C_14
REMARK    4  A    between atoms: N_17  and  C_18
REMARK    5  A    between atoms: C_18  and  C_19
REMARK    6  A    between atoms: C_22  and  C_25
REMARK                            x       y       z     vdW  Elec       q    Type
REMARK                         _______ _______ _______ _____ _____    ______ ____
ROOT
ATOM     14  C   UNL     1      -4.535   2.369  25.289  0.00  0.00    +0.096 C 
ATOM     15  C   UNL     1      -5.009   3.012  25.081  0.00  0.00    +0.028 C 
ATOM     16  C   UNL     1      -4.650   3.697  25.371  0.00  0.00    +0.073 C 
ATOM     17  N   UNL     1      -3.956   3.476  25.758  0.00  0.00    -0.268 NA
ATOM     28  C   UNL     1      -3.885   2.656  25.707  0.00  0.00    +0.082 C 
ENDROOT
BRANCH  14  12
ATOM      9  C   UNL     1      -4.518   0.273  24.883  0.00  0.00    +0.250 A 
ATOM     10  N   UNL     1      -5.318   0.449  24.784  0.00  0.00    -0.107 NA
ATOM     11  N   UNL     1      -5.423   1.255  24.923  0.00  0.00    -0.111 NA
ATOM     12  C   UNL     1      -4.687   1.578  25.109  0.00  0.00    +0.227 A 
ATOM     13  O   UNL     1      -4.128   0.971  25.085  0.00  0.00    -0.419 OA
BRANCH   9   6
ATOM      3  C   UNL     1      -3.474  -1.956  24.624  0.00  0.00    +0.139 A 
ATOM      4  C   UNL     1      -3.831  -1.589  23.976  0.00  0.00    +0.037 A 
ATOM      5  C   UNL     1      -4.179  -0.846  24.062  0.00  0.00    +0.008 A 
ATOM      6  C   UNL     1      -4.170  -0.470  24.797  0.00  0.00    +0.055 A 
ATOM      7  C   UNL     1      -3.814  -0.836  25.444  0.00  0.00    +0.008 A 
ATOM      8  C   UNL     1      -3.466  -1.579  25.358  0.00  0.00    +0.037 A 
BRANCH   3   2
ATOM      1  C   UNL     1      -2.319  -2.760  24.384  0.00  0.00    +0.252 C 
ATOM      2  O   UNL     1      -3.126  -2.699  24.537  0.00  0.00    -0.471 OA
ENDBRANCH   3   2
ENDBRANCH   9   6
ENDBRANCH  14  12
BRANCH  17  18
ATOM     18  C   UNL     1      -3.425   3.987  26.131  0.00  0.00    +0.099 C 
BRANCH  18  19
ATOM     19  C   UNL     1      -2.699   4.156  25.779  0.00  0.00    -0.006 A 
ATOM     20  C   UNL     1      -2.068   3.631  25.862  0.00  0.00    -0.003 A 
ATOM     21  C   UNL     1      -1.341   3.800  25.510  0.00  0.00    +0.006 A 
ATOM     22  C   UNL     1      -1.246   4.494  25.074  0.00  0.00    +0.080 A 
ATOM     23  C   UNL     1      -1.876   5.018  24.990  0.00  0.00    +0.006 A 
ATOM     24  C   UNL     1      -2.603   4.850  25.342  0.00  0.00    -0.003 A 
BRANCH  22  25
ATOM     25  C   UNL     1      -0.519   4.662  24.722  0.00  0.00    +0.388 C 
ATOM     26  O   UNL     1      -0.067   4.054  24.395  0.00  0.00    -0.241 OA
ATOM     27  O   UNL     1      -0.243   5.440  24.696  0.00  0.00    -0.241 OA
ENDBRANCH  22  25
ENDBRANCH  18  19
ENDBRANCH  17  18
TORSDOF 6
ENDMDL
MODEL 2
REMARK VINA RESULT:     -11.0      2.130      3.165
REMARK  Name = 
REMARK  6 active torsions:
REMARK  status: ('A' for Active; 'I' for Inactive)
REMARK    1  A    between atoms: O_2  and  C_3
REMARK    2  A    between atoms: C_6  and  C_9
REMARK    3  A    between atoms: C_12  and  C_14
REMARK    4  A    between atoms: N_17  and  C_18
REMARK    5  A    between atoms: C_18  and  C_19
REMARK    6  A    between atoms: C_22  and  C_25
REMARK                            x       y       z     vdW  Elec       q    Type
REMARK                         _______ _______ _______ _____ _____    ______ ____
ROOT
ATOM     14  C   UNL     1      -1.218   1.791  25.418  0.00  0.00    +0.096 C 
ATOM     15  C   UNL     1      -0.661   2.245  25.824  0.00  0.00    +0.028 C 
ATOM     16  C   UNL     1      -0.906   3.033  25.798  0.00  0.00    +0.073 C 
ATOM     17  N   UNL     1      -1.614   3.066  25.377  0.00  0.00    -0.268 NA
ATOM     28  C   UNL     1      -1.807   2.298  25.141  0.00  0.00    +0.082 C 
ENDROOT
BRANCH  14  12
ATOM      9  C   UNL     1      -1.561  -0.297  25.136  0.00  0.00    +0.250 A 
ATOM     10  N   UNL     1      -0.737  -0.269  25.141  0.00  0.00    -0.107 NA
ATOM     11  N   UNL     1      -0.507   0.516  25.247  0.00  0.00    -0.111 NA
ATOM     12  C   UNL     1      -1.190   0.975  25.308  0.00  0.00    +0.227 A 
ATOM     13  O   UNL     1      -1.841   0.472  25.239  0.00  0.00    -0.419 OA
BRANCH   9   6
ATOM      3  C   UNL     1      -2.948  -2.328  24.861  0.00  0.00    +0.139 A 
ATOM      4  C   UNL     1      -3.241  -1.682  25.284  0.00  0.00    +0.037 A 
ATOM      5  C   UNL     1      -2.778  -1.005  25.376  0.00  0.00    +0.008 A 
ATOM      6  C   UNL     1      -2.023  -0.974  25.044  0.00  0.00    +0.055 A 
ATOM      7  C   UNL     1      -1.731  -1.618  24.622  0.00  0.00    +0.008 A 
ATOM      8  C   UNL     1      -2.193  -2.295  24.531  0.00  0.00    +0.037 A 
BRANCH   3   2
ATOM      1  C   UNL     1      -3.968  -3.044  24.163  0.00  0.00    +0.252 C 
ATOM      2  O   UNL     1      -3.411  -3.005  24.769  0.00  0.00    -0.471 OA
ENDBRANCH   3   2
ENDBRANCH   9   6
ENDBRANCH  14  12
BRANCH  17  18
ATOM     18  C   UNL     1      -2.053   3.746  25.218  0.00  0.00    +0.099 C 
BRANCH  18  19
ATOM     19  C   UNL     1      -2.875   3.734  25.289  0.00  0.00    -0.006 A 
ATOM     20  C   UNL     1      -3.345   3.608  24.623  0.00  0.00    -0.003 A 
ATOM     21  C   UNL     1      -4.167   3.595  24.695  0.00  0.00    +0.006 A 
ATOM     22  C   UNL     1      -4.518   3.708  25.433  0.00  0.00    +0.080 A 
ATOM     23  C   UNL     1      -4.048   3.833  26.099  0.00  0.00    +0.006 A 
ATOM     24  C   UNL     1      -3.226   3.846  26.028  0.00  0.00    -0.003 A 
BRANCH  22  25
ATOM     25  C   UNL     1      -5.340   3.695  25.505  0.00  0.00    +0.388 C 
ATOM     26  O   UNL     1      -5.752   2.988  25.398  0.00  0.00    -0.241 OA
ATOM     27  O   UNL     1      -5.750   4.388  25.683  0.00  0.00    -0.241 OA
ENDBRANCH  22  25
ENDBRANCH  18  19
ENDBRANCH  17  18
TORSDOF 6
ENDMDL
MODEL 3
REMARK VINA RESULT:     -10.4      2.378      6.374
REMARK  Name = 
REMARK  6 active torsions:
REMARK  status: ('A' for Active; 'I' for Inactive)
REMARK    1  A    between atoms: O_2  and  C_3
REMARK    2  A    between atoms: C_6  and  C_9
REMARK    3  A    between atoms: C_12  and  C_14
REMARK    4  A    between atoms: N_17  and  C_18
REMARK    5  A    between atoms: C_18  and  C_19
REMARK    6  A    between atoms: C_22  and  C_25
REMARK                            x       y       z     vdW  Elec       q    Type
REMARK                         _______ _______ _______ _____ _____    ______ ____
ROOT
ATOM     14  C   UNL     1      -0.309   0.337  24.678  0.00  0.00    +0.096 C 
ATOM     15  C   UNL     1       0.036  -0.173  24.128  0.00  0.00    +0.028 C 
ATOM     16  C   UNL     1      -0.239  -0.936  24.280  0.00  0.00    +0.073 C 
ATOM     17  N   UNL     1      -0.753  -0.898  24.924  0.00  0.00    -0.268 NA
ATOM     28  C   UNL     1      -0.797  -0.112  25.170  0.00  0.00    +0.082 C 
ENDROOT
BRANCH  14  12
ATOM      9  C   UNL     1      -0.403   2.459  24.885  0.00  0.00    +0.250 A 
ATOM     10  N   UNL     1       0.398   2.350  24.721  0.00  0.00    -0.107 NA
ATOM     11  N   UNL     1       0.531   1.541  24.623  0.00  0.00    -0.111 NA
ATOM     12  C   UNL     1      -0.188   1.151  24.727  0.00  0.00    +0.227 A 
ATOM     13  O   UNL     1      -0.765   1.718  24.888  0.00  0.00    -0.419 OA
BRANCH   9   6
ATOM      3  C   UNL     1      -1.522   4.629  25.292  0.00  0.00    +0.139 A 
ATOM      4  C   UNL     1      -1.751   3.960  25.718  0.00  0.00    +0.037 A 
ATOM      5  C   UNL     1      -1.378   3.236  25.582  0.00  0.00    +0.008 A 
ATOM      6  C   UNL     1      -0.776   3.182  25.020  0.00  0.00    +0.055 A 
ATOM      7  C   UNL     1      -0.547   3.850  24.595  0.00  0.00    +0.008 A 
ATOM      8  C   UNL     1      -0.920   4.574  24.731  0.00  0.00    +0.037 A 
BRANCH   3   2
ATOM      1  C   UNL     1      -1.673   6.018  24.996  0.00  0.00    +0.252 C 
ATOM      2  O   UNL     1      -1.895   5.352  25.428  0.00  0.00    -0.471 OA
ENDBRANCH   3   2
ENDBRANCH   9   6
ENDBRANCH  14  12
BRANCH  17  18
ATOM     18  C   UNL     1      -1.154  -1.536  25.263  0.00  0.00    +0.099 C 
BRANCH  18  19
ATOM     19  C   UNL     1      -1.893  -1.759  24.973  0.00  0.00    -0.006 A 
ATOM     20  C   UNL     1      -2.573  -1.371  25.235  0.00  0.00    -0.003 A 
ATOM     21  C   UNL     1      -3.313  -1.594  24.946  0.00  0.00    +0.006 A 
ATOM     22  C   UNL     1      -3.372  -2.205  24.394  0.00  0.00    +0.080 A 
ATOM     23  C   UNL     1      -2.693  -2.592  24.132  0.00  0.00    +0.006 A 
ATOM     24  C   UNL     1      -1.953  -2.369  24.421  0.00  0.00    -0.003 A 
BRANCH  22  25
ATOM     25  C   UNL     1      -4.112  -2.428  24.105  0.00  0.00    +0.388 C 
ATOM     26  O   UNL     1      -4.293  -3.228  24.008  0.00  0.00    -0.241 OA
ATOM     27  O   UNL     1      -4.670  -1.853  23.912  0.00  0.00    -0.241 OA
ENDBRANCH  22  25
ENDBRANCH  18  19
ENDBRANCH  17  18
TORSDOF 6
ENDMDL
MODEL 4
REMARK VINA RESULT:     -10.3      2.358      3.163
REMARK  Name = 
REMARK  6 active torsions:
REMARK  status: ('A' for Active; 'I' for Inactive)
REMARK    1  A    between atoms: O_2  and  C_3
REMARK    2  A    between atoms: C_6  and  C_9
REMARK    3  A    between atoms: C_12  and  C_14
REMARK    4  A    between atoms: N_17  and  C_18
REMARK    5  A    between atoms: C_18  and  C_19
REMARK    6  A    between atoms: C_22  and  C_25
REMARK                            x       y       z     vdW  Elec       q    Type
REMARK                         _______ _______ _______ _____ _____    ______ ____
ROOT
ATOM     14  C   UNL     1      -0.402   0.533  24.794  0.00  0.00    +0.096 C 
ATOM     15  C   UNL     1       0.040   0.856  24.176  0.00  0.00    +0.028 C 
ATOM     16  C   UNL     1       0.272   1.616  24.398  0.00  0.00    +0.073 C 
ATOM     17  N   UNL     1      -0.027   1.763  25.152  0.00  0.00    -0.268 NA
ATOM     28  C   UNL     1      -0.443   1.094  25.397  0.00  0.00    +0.082 C 
ENDROOT
BRANCH  14  12
ATOM      9  C   UNL     1      -1.628  -1.212  24.702  0.00  0.00    +0.250 A 
ATOM     10  N   UNL     1      -0.908  -1.534  24.945  0.00  0.00    -0.107 NA
ATOM     11  N   UNL     1      -0.361  -0.920  25.009  0.00  0.00    -0.111 NA
ATOM     12  C   UNL     1      -0.743  -0.218  24.806  0.00  0.00    +0.227 A 
ATOM     13  O   UNL     1      -1.525  -0.398  24.616  0.00  0.00    -0.419 OA
BRANCH   9   6
ATOM      3  C   UNL     1      -3.723  -2.466  24.301  0.00  0.00    +0.139 A 
ATOM      4  C   UNL     1      -3.743  -1.645  24.386  0.00  0.00    +0.037 A 
ATOM      5  C   UNL     1      -3.045  -1.227  24.520  0.00  0.00    +0.008 A 
ATOM      6  C   UNL     1      -2.326  -1.630  24.568  0.00  0.00    +0.055 A 
ATOM      7  C   UNL     1      -2.306  -2.450  24.484  0.00  0.00    +0.008 A 
ATOM      8  C   UNL     1      -3.005  -2.868  24.350  0.00  0.00    +0.037 A 
BRANCH   3   2
ATOM      1  C   UNL     1      -4.844  -2.770  23.469  0.00  0.00    +0.252 C 
ATOM      2  O   UNL     1      -4.422  -2.884  24.168  0.00  0.00    -0.471 OA
ENDBRANCH   3   2
ENDBRANCH   9   6
ENDBRANCH  14  12
BRANCH  17  18
ATOM     18  C   UNL     1       0.073   2.458  25.587  0.00  0.00    +0.099 C 
BRANCH  18  19
ATOM     19  C   UNL     1      -0.467   3.077  25.506  0.00  0.00    -0.006 A 
ATOM     20  C   UNL     1      -0.330   3.674  24.953  0.00  0.00    -0.003 A 
ATOM     21  C   UNL     1      -0.870   4.292  24.872  0.00  0.00    +0.006 A 
ATOM     22  C   UNL     1      -1.546   4.314  25.344  0.00  0.00    +0.080 A 
ATOM     23  C   UNL     1      -1.683   3.717  25.896  0.00  0.00    +0.006 A 
ATOM     24  C   UNL     1      -1.143   3.098  25.978  0.00  0.00    -0.003 A 
BRANCH  22  25
ATOM     25  C   UNL     1      -2.086   4.932  25.263  0.00  0.00    +0.388 C 
ATOM     26  O   UNL     1      -2.890   4.769  25.174  0.00  0.00    -0.241 OA
ATOM     27  O   UNL     1      -1.823   5.714  25.271  0.00  0.00    -0.241 OA
ENDBRANCH  22  25
ENDBRANCH  18  19
ENDBRANCH  17  18
TORSDOF 6
ENDMDL
MODEL 5
REMARK VINA RESULT:     -10.2      2.165      5.810
REMARK  Name = 
REMARK  6 active torsions:
REMARK  status: ('A' for Active; 'I' for Inactive)
REMARK    1  A    between atoms: O_2  and  C_3
REMARK    2  A    between atoms: C_6  and  C_9
REMARK    3  A    between atoms: C_12  and  C_14
REMARK    4  A    between atoms: N_17  and  C_18
REMARK    5  A    between atoms: C_18  and  C_19
REMARK    6  A    between atoms: C_22  and  C_25
REMARK                            x       y       z     vdW  Elec       q    Type
REMARK                         _______ _______ _______ _____ _____    ______ ____
ROOT
ATOM     14  C   UNL     1      -1.038   0.979  24.509  0.00  0.00    +0.096 C 
ATOM     15  C   UNL     1      -0.367   0.786  24.069  0.00  0.00    +0.028 C 
ATOM     16  C   UNL     1      -0.194  -0.010  24.204  0.00  0.00    +0.073 C 
ATOM     17  N   UNL     1      -0.758  -0.308  24.727  0.00  0.00    -0.268 NA
ATOM     28  C   UNL     1      -1.279   0.303  24.916  0.00  0.00    +0.082 C 
ENDROOT
BRANCH  14  12
ATOM      9  C   UNL     1      -2.316   2.678  24.704  0.00  0.00    +0.250 A 
ATOM     10  N   UNL     1      -1.614   3.033  24.458  0.00  0.00    -0.107 NA
ATOM     11  N   UNL     1      -1.049   2.441  24.355  0.00  0.00    -0.111 NA
ATOM     12  C   UNL     1      -1.403   1.718  24.537  0.00  0.00    +0.227 A 
ATOM     13  O   UNL     1      -2.186   1.865  24.753  0.00  0.00    -0.419 OA
BRANCH   9   6
ATOM      3  C   UNL     1      -4.441   3.844  25.206  0.00  0.00    +0.139 A 
ATOM      4  C   UNL     1      -3.823   3.856  25.755  0.00  0.00    +0.037 A 
ATOM      5  C   UNL     1      -3.115   3.467  25.587  0.00  0.00    +0.008 A 
ATOM      6  C   UNL     1      -3.024   3.066  24.871  0.00  0.00    +0.055 A 
ATOM      7  C   UNL     1      -3.640   3.054  24.324  0.00  0.00    +0.008 A 
ATOM      8  C   UNL     1      -4.349   3.443  24.491  0.00  0.00    +0.037 A 
BRANCH   3   2
ATOM      1  C   UNL     1      -5.762   3.828  25.748  0.00  0.00    +0.252 C 
ATOM      2  O   UNL     1      -5.149   4.232  25.374  0.00  0.00    -0.471 OA
ENDBRANCH   3   2
ENDBRANCH   9   6
ENDBRANCH  14  12
BRANCH  17  18
ATOM     18  C   UNL     1      -0.794  -1.082  25.012  0.00  0.00    +0.099 C 
BRANCH  18  19
ATOM     19  C   UNL     1      -1.469  -1.538  24.883  0.00  0.00    -0.006 A 
ATOM     20  C   UNL     1      -1.491  -2.076  24.257  0.00  0.00    -0.003 A 
ATOM     21  C   UNL     1      -2.166  -2.532  24.128  0.00  0.00    +0.006 A 
ATOM     22  C   UNL     1      -2.820  -2.450  24.624  0.00  0.00    +0.080 A 
ATOM     23  C   UNL     1      -2.798  -1.913  25.250  0.00  0.00    +0.006 A 
ATOM     24  C   UNL     1      -2.123  -1.456  25.379  0.00  0.00    -0.003 A 
BRANCH  22  25
ATOM     25  C   UNL     1      -3.495  -2.906  24.495  0.00  0.00    +0.388 C 
ATOM     26  O   UNL     1      -3.594  -3.619  24.898  0.00  0.00    -0.241 OA
ATOM     27  O   UNL     1      -4.071  -2.649  23.964  0.00  0.00    -0.241 OA
ENDBRANCH  22  25
ENDBRANCH  18  19
ENDBRANCH  17  18
TORSDOF 6
ENDMDL
MODEL 6
REMARK VINA RESULT:     -10.1      1.428      5.179
REMARK  Name = 
REMARK  6 active torsions:
REMARK  status: ('A' for Active; 'I' for Inactive)
REMARK    1  A    between atoms: O_2  and  C_3
REMARK    2  A    between atoms: C_6  and  C_9
REMARK    3  A    between atoms: C_12  and  C_14
REMARK    4  A    between atoms: N_17  and  C_18
REMARK    5  A    between atoms: C_18  and  C_19
REMARK    6  A    between atoms: C_22  and  C_25
REMARK                            x       y       z     vdW  Elec       q    Type
REMARK                         _______ _______ _______ _____ _____    ______ ____
ROOT
ATOM     14  C   UNL     1      -4.257   0.655  24.857  0.00  0.00    +0.096 C 
ATOM     15  C   UNL     1      -4.791   0.221  24.402  0.00  0.00    +0.028 C 
ATOM     16  C   UNL     1      -4.622  -0.580  24.506  0.00  0.00    +0.073 C 
ATOM     17  N   UNL     1      -3.983  -0.641  25.024  0.00  0.00    -0.268 NA
ATOM     28  C   UNL     1      -3.758   0.123  25.242  0.00  0.00    +0.082 C 
ENDROOT
BRANCH  14  12
ATOM      9  C   UNL     1      -3.771   2.725  25.047  0.00  0.00    +0.250 A 
ATOM     10  N   UNL     1      -4.591   2.760  24.972  0.00  0.00    -0.107 NA
ATOM     11  N   UNL     1      -4.874   1.989  24.892  0.00  0.00    -0.111 NA
ATOM     12  C   UNL     1      -4.228   1.477  24.917  0.00  0.00    +0.227 A 
ATOM     13  O   UNL     1      -3.546   1.932  25.013  0.00  0.00    -0.419 OA
BRANCH   9   6
ATOM      3  C   UNL     1      -2.251   4.659  25.324  0.00  0.00    +0.139 A 
ATOM      4  C   UNL     1      -2.286   4.261  24.601  0.00  0.00    +0.037 A 
ATOM      5  C   UNL     1      -2.793   3.617  24.509  0.00  0.00    +0.008 A 
ATOM      6  C   UNL     1      -3.264   3.370  25.139  0.00  0.00    +0.055 A 
ATOM      7  C   UNL     1      -3.230   3.766  25.861  0.00  0.00    +0.008 A 
ATOM      8  C   UNL     1      -2.723   4.411  25.953  0.00  0.00    +0.037 A 
BRANCH   3   2
ATOM      1  C   UNL     1      -1.042   5.340  24.987  0.00  0.00    +0.252 C 
ATOM      2  O   UNL     1      -1.745   5.304  25.416  0.00  0.00    -0.471 OA
ENDBRANCH   3   2
ENDBRANCH   9   6
ENDBRANCH  14  12
BRANCH  17  18
ATOM     18  C   UNL     1      -3.632  -1.342  25.281  0.00  0.00    +0.099 C 
BRANCH  18  19
ATOM     19  C   UNL     1      -2.814  -1.439  25.224  0.00  0.00    -0.006 A 
ATOM     20  C   UNL     1      -2.321  -1.133  25.810  0.00  0.00    -0.003 A 
ATOM     21  C   UNL     1      -1.504  -1.229  25.753  0.00  0.00    +0.006 A 
ATOM     22  C   UNL     1      -1.180  -1.632  25.110  0.00  0.00    +0.080 A 
ATOM     23  C   UNL     1      -1.673  -1.937  24.523  0.00  0.00    +0.006 A 
ATOM     24  C   UNL     1      -2.491  -1.841  24.580  0.00  0.00    -0.003 A 
BRANCH  22  25
ATOM     25  C   UNL     1      -0.363  -1.728  25.053  0.00  0.00    +0.388 C 
ATOM     26  O   UNL     1       0.028  -2.250  25.559  0.00  0.00    -0.241 OA
ATOM     27  O   UNL     1       0.065  -1.303  24.489  0.00  0.00    -0.241 OA
ENDBRANCH  22  25
ENDBRANCH  18  19
ENDBRANCH  17  18
TORSDOF 6
ENDMDL
MODEL 7
REMARK VINA RESULT:     -10.0      2.766      4.523
REMARK  Name = 
REMARK  6 active torsions:
REMARK  status: ('A' for Active; 'I' for Inactive)
REMARK    1  A    between atoms: O_2  and  C_3
REMARK    2  A    between atoms: C_6  and  C_9
REMARK    3  A    between atoms: C_12  and  C_14
REMARK    4  A    between atoms: N_17  and  C_18
REMARK    5  A    between atoms: C_18  and  C_19
REMARK    6  A    between atoms: C_22  and  C_25
REMARK                            x       y       z     vdW  Elec       q    Type
REMARK                         _______ _______ _______ _____ _____    ______ ____
ROOT
ATOM     14  C   UNL     1      -1.672   3.238  25.264  0.00  0.00    +0.096 C 
ATOM     15  C   UNL     1      -1.751   3.862  25.798  0.00  0.00    +0.028 C 
ATOM     16  C   UNL     1      -2.488   4.213  25.673  0.00  0.00    +0.073 C 
ATOM     17  N   UNL     1      -2.863   3.806  25.061  0.00  0.00    -0.268 NA
ATOM     28  C   UNL     1      -2.359   3.204  24.808  0.00  0.00    +0.082 C 
ENDROOT
BRANCH  14  12
ATOM      9  C   UNL     1      -0.139   1.858  24.714  0.00  0.00    +0.250 A 
ATOM     10  N   UNL     1       0.104   2.073  25.472  0.00  0.00    -0.107 NA
ATOM     11  N   UNL     1      -0.440   2.617  25.771  0.00  0.00    -0.111 NA
ATOM     12  C   UNL     1      -1.020   2.737  25.197  0.00  0.00    +0.227 A 
ATOM     13  O   UNL     1      -0.834   2.268  24.544  0.00  0.00    -0.419 OA
BRANCH   9   6
ATOM      3  C   UNL     1       1.014   0.263  23.214  0.00  0.00    +0.139 A 
ATOM      4  C   UNL     1       0.277   0.071  23.532  0.00  0.00    +0.037 A 
ATOM      5  C   UNL     1      -0.108   0.603  24.032  0.00  0.00    +0.008 A 
ATOM      6  C   UNL     1       0.246   1.326  24.214  0.00  0.00    +0.055 A 
ATOM      7  C   UNL     1       0.982   1.518  23.897  0.00  0.00    +0.008 A 
ATOM      8  C   UNL     1       1.366   0.986  23.396  0.00  0.00    +0.037 A 
BRANCH   3   2
ATOM      1  C   UNL     1       2.152  -0.096  22.429  0.00  0.00    +0.252 C 
ATOM      2  O   UNL     1       1.399  -0.269  22.714  0.00  0.00    -0.471 OA
ENDBRANCH   3   2
ENDBRANCH   9   6
ENDBRANCH  14  12
BRANCH  17  18
ATOM     18  C   UNL     1      -3.611   3.973  24.755  0.00  0.00    +0.099 C 
BRANCH  18  19
ATOM     19  C   UNL     1      -4.243   3.467  24.912  0.00  0.00    -0.006 A 
ATOM     20  C   UNL     1      -4.719   3.594  25.575  0.00  0.00    -0.003 A 
ATOM     21  C   UNL     1      -5.351   3.087  25.732  0.00  0.00    +0.006 A 
ATOM     22  C   UNL     1      -5.507   2.454  25.227  0.00  0.00    +0.080 A 
ATOM     23  C   UNL     1      -5.032   2.327  24.565  0.00  0.00    +0.006 A 
ATOM     24  C   UNL     1      -4.399   2.833  24.407  0.00  0.00    -0.003 A 
BRANCH  22  25
ATOM     25  C   UNL     1      -6.139   1.947  25.384  0.00  0.00    +0.388 C 
ATOM     26  O   UNL     1      -6.249   1.650  26.146  0.00  0.00    -0.241 OA
ATOM     27  O   UNL     1      -6.660   1.738  24.780  0.00  0.00    -0.241 OA
ENDBRANCH  22  25
ENDBRANCH  18  19
ENDBRANCH  17  18
TORSDOF 6
ENDMDL
MODEL 8
REMARK VINA RESULT:      -9.9      2.941      4.425
REMARK  Name = 
REMARK  6 active torsions:
REMARK  status: ('A' for Active; 'I' for Inactive)
REMARK    1  A    between atoms: O_2  and  C_3
REMARK    2  A    between atoms: C_6  and  C_9
REMARK    3  A    between atoms: C_12  and  C_14
REMARK    4  A    between atoms: N_17  and  C_18
REMARK    5  A    between atoms: C_18  and  C_19
REMARK    6  A    between atoms: C_22  and  C_25
REMARK                            x       y       z     vdW  Elec       q    Type
REMARK                         _______ _______ _______ _____ _____    ______ ____
ROOT
ATOM     14  C   UNL     1      -2.801  -0.267  25.056  0.00  0.00    +0.096 C 
ATOM     15  C   UNL     1      -3.277  -0.703  25.570  0.00  0.00    +0.028 C 
ATOM     16  C   UNL     1      -4.060  -0.465  25.457  0.00  0.00    +0.073 C 
ATOM     17  N   UNL     1      -4.067   0.118  24.873  0.00  0.00    -0.268 NA
ATOM     28  C   UNL     1      -3.289   0.240  24.625  0.00  0.00    +0.082 C 
ENDROOT
BRANCH  14  12
ATOM      9  C   UNL     1      -0.741  -0.260  24.496  0.00  0.00    +0.250 A 
ATOM     10  N   UNL     1      -0.700  -0.581  25.254  0.00  0.00    -0.107 NA
ATOM     11  N   UNL     1      -1.466  -0.623  25.557  0.00  0.00    -0.111 NA
ATOM     12  C   UNL     1      -1.982  -0.327  24.985  0.00  0.00    +0.227 A 
ATOM     13  O   UNL     1      -1.534  -0.103  24.329  0.00  0.00    -0.419 OA
BRANCH   9   6
ATOM      3  C   UNL     1       1.174   0.159  22.986  0.00  0.00    +0.139 A 
ATOM      4  C   UNL     1       0.825  -0.588  23.012  0.00  0.00    +0.037 A 
ATOM      5  C   UNL     1       0.186  -0.728  23.515  0.00  0.00    +0.008 A 
ATOM      6  C   UNL     1      -0.103  -0.120  23.992  0.00  0.00    +0.055 A 
ATOM      7  C   UNL     1       0.246   0.626  23.966  0.00  0.00    +0.008 A 
ATOM      8  C   UNL     1       0.884   0.766  23.463  0.00  0.00    +0.037 A 
BRANCH   3   2
ATOM      1  C   UNL     1       2.583   0.270  22.775  0.00  0.00    +0.252 C 
ATOM      2  O   UNL     1       1.813   0.299  22.482  0.00  0.00    -0.471 OA
ENDBRANCH   3   2
ENDBRANCH   9   6
ENDBRANCH  14  12
BRANCH  17  18
ATOM     18  C   UNL     1      -4.735   0.509  24.587  0.00  0.00    +0.099 C 
BRANCH  18  19
ATOM     19  C   UNL     1      -4.885   1.288  24.814  0.00  0.00    -0.006 A 
ATOM     20  C   UNL     1      -5.390   1.442  25.449  0.00  0.00    -0.003 A 
ATOM     21  C   UNL     1      -5.541   2.220  25.676  0.00  0.00    +0.006 A 
ATOM     22  C   UNL     1      -5.187   2.845  25.270  0.00  0.00    +0.080 A 
ATOM     23  C   UNL     1      -4.682   2.691  24.636  0.00  0.00    +0.006 A 
ATOM     24  C   UNL     1      -4.531   1.912  24.408  0.00  0.00    -0.003 A 
BRANCH  22  25
ATOM     25  C   UNL     1      -5.337   3.623  25.497  0.00  0.00    +0.388 C 
ATOM     26  O   UNL     1      -6.082   3.832  25.787  0.00  0.00    -0.241 OA
ATOM     27  O   UNL     1      -4.744   4.193  25.436  0.00  0.00    -0.241 OA
ENDBRANCH  22  25
ENDBRANCH  18  19
ENDBRANCH  17  18
TORSDOF 6
ENDMDL
