MODEL 1
REMARK VINA RESULT:     -12.2      0.000      0.000
REMARK  Name = 
REMARK  4 active torsions:
REMARK  status: ('A' for Active; 'I' for Inactive)
REMARK    1  A    between atoms: N_2  and  C_4
REMARK    2  A    between atoms: C_7  and  C_8
REMARK    3  A    between atoms: C_8  and  N_9
REMARK    4  A    between atoms: C_12  and  C_14
REMARK                            x       y       z     vdW  Elec       q    Type
REMARK                         _______ _______ _______ _____ _____    ______ ____
ROOT
ATOM      9  N   UNL     1      -4.142   1.159  24.817  0.00  0.00    -0.269 NA
ATOM     10  C   UNL     1      -4.370   1.501  24.101  0.00  0.00    +0.073 C 
ATOM     11  C   UNL     1      -3.909   2.175  23.983  0.00  0.00    +0.026 C 
ATOM     12  C   UNL     1      -3.397   2.250  24.626  0.00  0.00    +0.074 C 
ATOM     13  C   UNL     1      -3.541   1.622  25.141  0.00  0.00    +0.080 C 
ENDROOT
BRANCH  12  14
ATOM     14  C   UNL     1      -2.838   2.848  24.734  0.00  0.00    +0.121 A 
ATOM     15  N   UNL     1      -2.036   2.801  24.551  0.00  0.00    -0.231 NA
ATOM     16  C   UNL     1      -1.687   3.521  24.748  0.00  0.00    +0.098 A 
ATOM     17  C   UNL     1      -2.274   4.014  25.053  0.00  0.00    +0.079 A 
ATOM     18  C   UNL     1      -2.083   4.778  25.299  0.00  0.00    +0.019 A 
ATOM     19  C   UNL     1      -1.307   5.050  25.241  0.00  0.00    +0.002 A 
ATOM     20  C   UNL     1      -0.720   4.557  24.935  0.00  0.00    +0.002 A 
ATOM     21  C   UNL     1      -0.909   3.793  24.689  0.00  0.00    +0.021 A 
ATOM     22  N   UNL     1      -2.986   3.598  25.045  0.00  0.00    -0.313 N 
ATOM     23  C   UNL     1      -3.716   3.882  25.301  0.00  0.00    +0.132 C 
ENDBRANCH  12  14
BRANCH   9   8
ATOM      8  C   UNL     1      -4.460   0.475  25.150  0.00  0.00    +0.099 C 
BRANCH   8   7
ATOM      4  C   UNL     1      -3.414  -1.722  24.701  0.00  0.00    +0.048 A 
ATOM      5  C   UNL     1      -3.260  -1.330  25.409  0.00  0.00    +0.014 A 
ATOM      6  C   UNL     1      -3.609  -0.597  25.560  0.00  0.00    -0.002 A 
ATOM      7  C   UNL     1      -4.111  -0.258  25.000  0.00  0.00    -0.006 A 
ATOM     24  C   UNL     1      -4.265  -0.650  24.291  0.00  0.00    -0.002 A 
ATOM     25  C   UNL     1      -3.916  -1.383  24.142  0.00  0.00    +0.014 A 
BRANCH   4   2
ATOM      1  C   UNL     1      -2.250  -2.507  24.433  0.00  0.00    +0.112 C 
ATOM      2  N   UNL     1      -3.065  -2.455  24.551  0.00  0.00    -0.304 N 
ATOM      3  C   UNL     1      -3.530  -3.135  24.520  0.00  0.00    +0.112 C 
ENDBRANCH   4   2
ENDBRANCH   8   7
ENDBRANCH   9   8
TORSDOF 4
ENDMDL
MODEL 2
REMARK VINA RESULT:     -12.1      0.880      5.169
REMARK  Name = 
REMARK  4 active torsions:
REMARK  status: ('A' for Active; 'I' for Inactive)
REMARK    1  A    between atoms: N_2  and  C_4
REMARK    2  A    between atoms: C_7  and  C_8
REMARK    3  A    between atoms: C_8  and  N_9
REMARK    4  A    between atoms: C_12  and  C_14
REMARK                            x       y       z     vdW  Elec       q    Type
REMARK                         _______ _______ _______ _____ _____    ______ ____
ROOT
ATOM      9  N   UNL     1      -4.436   1.877  24.564  0.00  0.00    -0.269 NA
ATOM     10  C   UNL     1      -4.981   1.684  25.152  0.00  0.00    +0.073 C 
ATOM     11  C   UNL     1      -4.964   0.865  25.257  0.00  0.00    +0.026 C 
ATOM     12  C   UNL     1      -4.408   0.552  24.733  0.00  0.00    +0.074 C 
ATOM     13  C   UNL     1      -4.082   1.177  24.305  0.00  0.00    +0.080 C 
ENDROOT
BRANCH  12  14
ATOM     14  C   UNL     1      -4.214  -0.245  24.652  0.00  0.00    +0.121 A 
ATOM     15  N   UNL     1      -4.503  -0.759  24.075  0.00  0.00    -0.231 NA
ATOM     16  C   UNL     1      -4.164  -1.500  24.201  0.00  0.00    +0.098 A 
ATOM     17  C   UNL     1      -3.665  -1.444  24.856  0.00  0.00    +0.079 A 
ATOM     18  C   UNL     1      -3.247  -2.108  25.113  0.00  0.00    +0.019 A 
ATOM     19  C   UNL     1      -3.328  -2.826  24.716  0.00  0.00    +0.002 A 
ATOM     20  C   UNL     1      -3.826  -2.881  24.061  0.00  0.00    +0.002 A 
ATOM     21  C   UNL     1      -4.245  -2.219  23.803  0.00  0.00    +0.021 A 
ATOM     22  N   UNL     1      -3.695  -0.669  25.135  0.00  0.00    -0.313 N 
ATOM     23  C   UNL     1      -3.282  -0.370  25.782  0.00  0.00    +0.132 C 
ENDBRANCH  12  14
BRANCH   9   8
ATOM      8  C   UNL     1      -4.272   2.635  24.284  0.00  0.00    +0.099 C 
BRANCH   8   7
ATOM      4  C   UNL     1      -2.195   3.789  24.974  0.00  0.00    +0.048 A 
ATOM      5  C   UNL     1      -2.198   3.314  24.300  0.00  0.00    +0.014 A 
ATOM      6  C   UNL     1      -2.890   2.929  24.070  0.00  0.00    -0.002 A 
ATOM      7  C   UNL     1      -3.580   3.020  24.514  0.00  0.00    -0.006 A 
ATOM     24  C   UNL     1      -3.577   3.496  25.188  0.00  0.00    -0.002 A 
ATOM     25  C   UNL     1      -2.884   3.881  25.418  0.00  0.00    +0.014 A 
BRANCH   4   2
ATOM      1  C   UNL     1      -0.844   3.735  25.440  0.00  0.00    +0.112 C 
ATOM      2  N   UNL     1      -1.502   4.174  25.204  0.00  0.00    -0.304 N 
ATOM      3  C   UNL     1      -1.466   4.998  25.197  0.00  0.00    +0.112 C 
ENDBRANCH   4   2
ENDBRANCH   8   7
ENDBRANCH   9   8
TORSDOF 4
ENDMDL
MODEL 3
REMARK VINA RESULT:     -11.1      1.640      5.605
REMARK  Name = 
REMARK  4 active torsions:
REMARK  status: ('A' for Active; 'I' for Inactive)
REMARK    1  A    between atoms: N_2  and  C_4
REMARK    2  A    between atoms: C_7  and  C_8
REMARK    3  A    between atoms: C_8  and  N_9
REMARK    4  A    between atoms: C_12  and  C_14
REMARK                            x       y       z     vdW  Elec       q    Type
REMARK                         _______ _______ _______ _____ _____    ______ ____
ROOT
ATOM      9  N   UNL     1      -0.719   1.061  25.215  0.00  0.00    -0.269 NA
ATOM     10  C   UNL     1      -0.347   0.806  24.524  0.00  0.00    +0.073 C 
ATOM     11  C   UNL     1      -0.791   0.185  24.209  0.00  0.00    +0.026 C 
ATOM     12  C   UNL     1      -1.437   0.056  24.707  0.00  0.00    +0.074 C 
ATOM     13  C   UNL     1      -1.392   0.597  25.328  0.00  0.00    +0.080 C 
ENDROOT
BRANCH  12  14
ATOM     14  C   UNL     1      -2.024  -0.514  24.601  0.00  0.00    +0.121 A 
ATOM     15  N   UNL     1      -2.791  -0.375  24.332  0.00  0.00    -0.231 NA
ATOM     16  C   UNL     1      -3.188  -1.098  24.310  0.00  0.00    +0.098 A 
ATOM     17  C   UNL     1      -2.665  -1.683  24.565  0.00  0.00    +0.079 A 
ATOM     18  C   UNL     1      -2.913  -2.470  24.600  0.00  0.00    +0.019 A 
ATOM     19  C   UNL     1      -3.682  -2.670  24.381  0.00  0.00    +0.002 A 
ATOM     20  C   UNL     1      -4.205  -2.085  24.127  0.00  0.00    +0.002 A 
ATOM     21  C   UNL     1      -3.958  -1.299  24.091  0.00  0.00    +0.021 A 
ATOM     22  N   UNL     1      -1.946  -1.323  24.744  0.00  0.00    -0.313 N 
ATOM     23  C   UNL     1      -1.268  -1.703  25.019  0.00  0.00    +0.132 C 
ENDBRANCH  12  14
BRANCH   9   8
ATOM      8  C   UNL     1      -0.463   1.671  25.707  0.00  0.00    +0.099 C 
BRANCH   8   7
ATOM      4  C   UNL     1      -1.257   3.984  25.326  0.00  0.00    +0.048 A 
ATOM      5  C   UNL     1      -0.590   3.707  24.929  0.00  0.00    +0.014 A 
ATOM      6  C   UNL     1      -0.325   2.936  25.056  0.00  0.00    -0.002 A 
ATOM      7  C   UNL     1      -0.728   2.442  25.580  0.00  0.00    -0.006 A 
ATOM     24  C   UNL     1      -1.396   2.719  25.977  0.00  0.00    -0.002 A 
ATOM     25  C   UNL     1      -1.660   3.491  25.850  0.00  0.00    +0.014 A 
BRANCH   4   2
ATOM      1  C   UNL     1      -2.302   4.959  25.379  0.00  0.00    +0.112 C 
ATOM      2  N   UNL     1      -1.522   4.755  25.199  0.00  0.00    -0.304 N 
ATOM      3  C   UNL     1      -1.008   5.322  24.893  0.00  0.00    +0.112 C 
ENDBRANCH   4   2
ENDBRANCH   8   7
ENDBRANCH   9   8
TORSDOF 4
ENDMDL
MODEL 4
REMARK VINA RESULT:     -10.7      1.508      2.230
REMARK  Name = 
REMARK  4 active torsions:
REMARK  status: ('A' for Active; 'I' for Inactive)
REMARK    1  A    between atoms: N_2  and  C_4
REMARK    2  A    between atoms: C_7  and  C_8
REMARK    3  A    between atoms: C_8  and  N_9
REMARK    4  A    between atoms: C_12  and  C_14
REMARK                            x       y       z     vdW  Elec       q    Type
REMARK                         _______ _______ _______ _____ _____    ______ ____
ROOT
ATOM      9  N   UNL     1      -1.009   0.200  25.184  0.00  0.00    -0.269 NA
ATOM     10  C   UNL     1      -0.583   0.326  24.489  0.00  0.00    +0.073 C 
ATOM     11  C   UNL     1      -0.583   1.137  24.333  0.00  0.00    +0.026 C 
ATOM     12  C   UNL     1      -1.009   1.511  24.933  0.00  0.00    +0.074 C 
ATOM     13  C   UNL     1      -1.272   0.932  25.458  0.00  0.00    +0.080 C 
ENDROOT
BRANCH  12  14
ATOM     14  C   UNL     1      -1.148   2.322  24.996  0.00  0.00    +0.121 A 
ATOM     15  N   UNL     1      -1.863   2.678  25.199  0.00  0.00    -0.231 NA
ATOM     16  C   UNL     1      -1.752   3.494  25.195  0.00  0.00    +0.098 A 
ATOM     17  C   UNL     1      -0.968   3.644  24.989  0.00  0.00    +0.079 A 
ATOM     18  C   UNL     1      -0.695   4.422  24.941  0.00  0.00    +0.019 A 
ATOM     19  C   UNL     1      -1.207   5.049  25.097  0.00  0.00    +0.002 A 
ATOM     20  C   UNL     1      -1.992   4.899  25.303  0.00  0.00    +0.002 A 
ATOM     21  C   UNL     1      -2.265   4.122  25.352  0.00  0.00    +0.021 A 
ATOM     22  N   UNL     1      -0.593   2.920  24.866  0.00  0.00    -0.313 N 
ATOM     23  C   UNL     1       0.195   2.812  24.651  0.00  0.00    +0.132 C 
ENDBRANCH  12  14
BRANCH   9   8
ATOM      8  C   UNL     1      -1.148  -0.530  25.542  0.00  0.00    +0.099 C 
BRANCH   8   7
ATOM      4  C   UNL     1      -2.982  -1.979  24.731  0.00  0.00    +0.048 A 
ATOM      5  C   UNL     1      -2.220  -2.071  24.429  0.00  0.00    +0.014 A 
ATOM      6  C   UNL     1      -1.608  -1.589  24.700  0.00  0.00    -0.002 A 
ATOM      7  C   UNL     1      -1.760  -1.013  25.272  0.00  0.00    -0.006 A 
ATOM     24  C   UNL     1      -2.522  -0.921  25.573  0.00  0.00    -0.002 A 
ATOM     25  C   UNL     1      -3.133  -1.404  25.302  0.00  0.00    +0.014 A 
BRANCH   4   2
ATOM      1  C   UNL     1      -4.166  -2.157  23.949  0.00  0.00    +0.112 C 
ATOM      2  N   UNL     1      -3.594  -2.463  24.460  0.00  0.00    -0.304 N 
ATOM      3  C   UNL     1      -3.633  -3.251  24.699  0.00  0.00    +0.112 C 
ENDBRANCH   4   2
ENDBRANCH   8   7
ENDBRANCH   9   8
TORSDOF 4
ENDMDL
MODEL 5
REMARK VINA RESULT:      -9.9      2.139      4.826
REMARK  Name = 
REMARK  4 active torsions:
REMARK  status: ('A' for Active; 'I' for Inactive)
REMARK    1  A    between atoms: N_2  and  C_4
REMARK    2  A    between atoms: C_7  and  C_8
REMARK    3  A    between atoms: C_8  and  N_9
REMARK    4  A    between atoms: C_12  and  C_14
REMARK                            x       y       z     vdW  Elec       q    Type
REMARK                         _______ _______ _______ _____ _____    ______ ____
ROOT
ATOM      9  N   UNL     1      -1.501   3.099  25.275  0.00  0.00    -0.269 NA
ATOM     10  C   UNL     1      -0.832   3.110  25.757  0.00  0.00    +0.073 C 
ATOM     11  C   UNL     1      -0.528   2.343  25.789  0.00  0.00    +0.026 C 
ATOM     12  C   UNL     1      -1.010   1.858  25.326  0.00  0.00    +0.074 C 
ATOM     13  C   UNL     1      -1.611   2.325  25.009  0.00  0.00    +0.080 C 
ENDROOT
BRANCH  12  14
ATOM     14  C   UNL     1      -0.908   1.049  25.203  0.00  0.00    +0.121 A 
ATOM     15  N   UNL     1      -1.218   0.444  25.671  0.00  0.00    -0.231 NA
ATOM     16  C   UNL     1      -0.980  -0.276  25.348  0.00  0.00    +0.098 A 
ATOM     17  C   UNL     1      -0.523  -0.117  24.680  0.00  0.00    +0.079 A 
ATOM     18  C   UNL     1      -0.206  -0.739  24.239  0.00  0.00    +0.019 A 
ATOM     19  C   UNL     1      -0.347  -1.518  24.466  0.00  0.00    +0.002 A 
ATOM     20  C   UNL     1      -0.804  -1.678  25.134  0.00  0.00    +0.002 A 
ATOM     21  C   UNL     1      -1.121  -1.057  25.575  0.00  0.00    +0.021 A 
ATOM     22  N   UNL     1      -0.478   0.702  24.590  0.00  0.00    -0.313 N 
ATOM     23  C   UNL     1      -0.075   1.103  23.994  0.00  0.00    +0.132 C 
ENDBRANCH  12  14
BRANCH   9   8
ATOM      8  C   UNL     1      -1.976   3.747  25.091  0.00  0.00    +0.099 C 
BRANCH   8   7
ATOM      4  C   UNL     1      -4.424   3.625  25.438  0.00  0.00    +0.048 A 
ATOM      5  C   UNL     1      -3.927   3.818  26.068  0.00  0.00    +0.014 A 
ATOM      6  C   UNL     1      -3.111   3.859  25.952  0.00  0.00    -0.002 A 
ATOM      7  C   UNL     1      -2.792   3.706  25.206  0.00  0.00    -0.006 A 
ATOM     24  C   UNL     1      -3.289   3.513  24.577  0.00  0.00    -0.002 A 
ATOM     25  C   UNL     1      -4.105   3.472  24.693  0.00  0.00    +0.014 A 
BRANCH   4   2
ATOM      1  C   UNL     1      -5.702   4.264  25.480  0.00  0.00    +0.112 C 
ATOM      2  N   UNL     1      -5.240   3.584  25.554  0.00  0.00    -0.304 N 
ATOM      3  C   UNL     1      -5.594   2.864  25.745  0.00  0.00    +0.112 C 
ENDBRANCH   4   2
ENDBRANCH   8   7
ENDBRANCH   9   8
TORSDOF 4
ENDMDL
MODEL 6
REMARK VINA RESULT:      -9.9      1.826      2.886
REMARK  Name = 
REMARK  4 active torsions:
REMARK  status: ('A' for Active; 'I' for Inactive)
REMARK    1  A    between atoms: N_2  and  C_4
REMARK    2  A    between atoms: C_7  and  C_8
REMARK    3  A    between atoms: C_8  and  N_9
REMARK    4  A    between atoms: C_12  and  C_14
REMARK                            x       y       z     vdW  Elec       q    Type
REMARK                         _______ _______ _______ _____ _____    ______ ____
ROOT
ATOM      9  N   UNL     1      -3.964  -0.732  25.034  0.00  0.00    -0.269 NA
ATOM     10  C   UNL     1      -4.421  -0.734  24.347  0.00  0.00    +0.073 C 
ATOM     11  C   UNL     1      -4.730   0.024  24.244  0.00  0.00    +0.026 C 
ATOM     12  C   UNL     1      -4.463   0.495  24.867  0.00  0.00    +0.074 C 
ATOM     13  C   UNL     1      -3.990   0.028  25.354  0.00  0.00    +0.080 C 
ENDROOT
BRANCH  12  14
ATOM     14  C   UNL     1      -4.639   1.293  24.981  0.00  0.00    +0.121 A 
ATOM     15  N   UNL     1      -5.256   1.593  25.439  0.00  0.00    -0.231 NA
ATOM     16  C   UNL     1      -5.227   2.416  25.398  0.00  0.00    +0.098 A 
ATOM     17  C   UNL     1      -4.592   2.625  24.915  0.00  0.00    +0.079 A 
ATOM     18  C   UNL     1      -4.427   3.421  24.773  0.00  0.00    +0.019 A 
ATOM     19  C   UNL     1      -4.897   4.007  25.113  0.00  0.00    +0.002 A 
ATOM     20  C   UNL     1      -5.532   3.798  25.596  0.00  0.00    +0.002 A 
ATOM     21  C   UNL     1      -5.698   3.002  25.739  0.00  0.00    +0.021 A 
ATOM     22  N   UNL     1      -4.228   1.932  24.657  0.00  0.00    -0.313 N 
ATOM     23  C   UNL     1      -3.570   1.884  24.163  0.00  0.00    +0.132 C 
ENDBRANCH  12  14
BRANCH   9   8
ATOM      8  C   UNL     1      -3.552  -1.375  25.345  0.00  0.00    +0.099 C 
BRANCH   8   7
ATOM      4  C   UNL     1      -1.106  -1.556  25.018  0.00  0.00    +0.048 A 
ATOM      5  C   UNL     1      -1.620  -1.944  24.504  0.00  0.00    +0.014 A 
ATOM      6  C   UNL     1      -2.436  -1.884  24.612  0.00  0.00    -0.002 A 
ATOM      7  C   UNL     1      -2.736  -1.435  25.236  0.00  0.00    -0.006 A 
ATOM     24  C   UNL     1      -2.222  -1.047  25.751  0.00  0.00    -0.002 A 
ATOM     25  C   UNL     1      -1.406  -1.108  25.642  0.00  0.00    +0.014 A 
BRANCH   4   2
ATOM      1  C   UNL     1       0.095  -1.110  24.383  0.00  0.00    +0.112 C 
ATOM      2  N   UNL     1      -0.290  -1.616  24.909  0.00  0.00    -0.304 N 
ATOM      3  C   UNL     1       0.141  -2.183  25.326  0.00  0.00    +0.112 C 
ENDBRANCH   4   2
ENDBRANCH   8   7
ENDBRANCH   9   8
TORSDOF 4
ENDMDL
MODEL 7
REMARK VINA RESULT:      -8.5     16.032     18.875
REMARK  Name = 
REMARK  4 active torsions:
REMARK  status: ('A' for Active; 'I' for Inactive)
REMARK    1  A    between atoms: N_2  and  C_4
REMARK    2  A    between atoms: C_7  and  C_8
REMARK    3  A    between atoms: C_8  and  N_9
REMARK    4  A    between atoms: C_12  and  C_14
REMARK                            x       y       z     vdW  Elec       q    Type
REMARK                         _______ _______ _______ _____ _____    ______ ____
ROOT
ATOM      9  N   UNL     1      13.022   7.958  18.999  0.00  0.00    -0.269 NA
ATOM     10  C   UNL     1      13.438   8.642  18.799  0.00  0.00    +0.073 C 
ATOM     11  C   UNL     1      14.244   8.473  18.846  0.00  0.00    +0.026 C 
ATOM     12  C   UNL     1      14.326   7.684  19.076  0.00  0.00    +0.074 C 
ATOM     13  C   UNL     1      13.571   7.366  19.170  0.00  0.00    +0.080 C 
ENDROOT
BRANCH  12  14
ATOM     14  C   UNL     1      15.039   7.284  19.190  0.00  0.00    +0.121 A 
ATOM     15  N   UNL     1      15.399   6.772  18.653  0.00  0.00    -0.231 NA
ATOM     16  C   UNL     1      16.099   6.498  18.993  0.00  0.00    +0.098 A 
ATOM     17  C   UNL     1      16.171   6.841  19.740  0.00  0.00    +0.079 A 
ATOM     18  C   UNL     1      16.825   6.665  20.212  0.00  0.00    +0.019 A 
ATOM     19  C   UNL     1      17.405   6.148  19.938  0.00  0.00    +0.002 A 
ATOM     20  C   UNL     1      17.333   5.806  19.191  0.00  0.00    +0.002 A 
ATOM     21  C   UNL     1      16.680   5.980  18.718  0.00  0.00    +0.021 A 
ATOM     22  N   UNL     1      15.516   7.326  19.862  0.00  0.00    -0.313 N 
ATOM     23  C   UNL     1      15.365   7.776  20.537  0.00  0.00    +0.132 C 
ENDBRANCH  12  14
BRANCH   9   8
ATOM      8  C   UNL     1      12.201   7.879  19.025  0.00  0.00    +0.099 C 
BRANCH   8   7
ATOM      4  C   UNL     1      10.997   8.145  21.170  0.00  0.00    +0.048 A 
ATOM      5  C   UNL     1      11.316   7.413  20.964  0.00  0.00    +0.014 A 
ATOM      6  C   UNL     1      11.717   7.324  20.249  0.00  0.00    -0.002 A 
ATOM      7  C   UNL     1      11.800   7.968  19.740  0.00  0.00    -0.006 A 
ATOM     24  C   UNL     1      11.481   8.701  19.946  0.00  0.00    -0.002 A 
ATOM     25  C   UNL     1      11.080   8.789  20.661  0.00  0.00    +0.014 A 
BRANCH   4   2
ATOM      1  C   UNL     1      10.682   8.928  22.325  0.00  0.00    +0.112 C 
ATOM      2  N   UNL     1      10.596   8.234  21.886  0.00  0.00    -0.304 N 
ATOM      3  C   UNL     1      10.108   7.629  22.163  0.00  0.00    +0.112 C 
ENDBRANCH   4   2
ENDBRANCH   8   7
ENDBRANCH   9   8
TORSDOF 4
ENDMDL
