MODEL 1
REMARK VINA RESULT:     -12.4      0.000      0.000
REMARK  Name = 
REMARK  5 active torsions:
REMARK  status: ('A' for Active; 'I' for Inactive)
REMARK    1  A    between atoms: C_7  and  C_8
REMARK    2  A    between atoms: C_8  and  N_9
REMARK    3  A    between atoms: C_13  and  C_14
REMARK    4  A    between atoms: C_16  and  C_19
REMARK    5  A    between atoms: C_23  and  N_25
REMARK                            x       y       z     vdW  Elec       q    Type
REMARK                         _______ _______ _______ _____ _____    ______ ____
ROOT
ATOM     14  C   UNL     1      -4.448   2.579  24.800  0.00  0.00    +0.251 A 
ATOM     15  N   UNL     1      -3.716   2.718  25.156  0.00  0.00    -0.190 NA
ATOM     16  C   UNL     1      -3.363   3.357  24.774  0.00  0.00    +0.203 A 
ATOM     17  N   UNL     1      -3.877   3.615  24.182  0.00  0.00    -0.056 NA
ATOM     18  O   UNL     1      -4.547   3.135  24.198  0.00  0.00    -0.336 OA
ENDROOT
BRANCH  16  19
ATOM     19  C   UNL     1      -2.626   3.683  24.952  0.00  0.00    +0.043 A 
ATOM     20  C   UNL     1      -2.554   4.495  25.077  0.00  0.00    +0.024 A 
ATOM     21  C   UNL     1      -1.818   4.822  25.254  0.00  0.00    +0.100 A 
ATOM     22  N   UNL     1      -1.154   4.336  25.307  0.00  0.00    -0.229 NA
ATOM     23  C   UNL     1      -1.225   3.524  25.183  0.00  0.00    +0.132 A 
ATOM     24  C   UNL     1      -1.962   3.197  25.005  0.00  0.00    +0.037 A 
BRANCH  23  25
ATOM     25  N   UNL     1      -0.560   3.038  25.236  0.00  0.00    -0.288 N 
ATOM     26  C   UNL     1      -0.197   2.760  24.550  0.00  0.00    +0.124 C 
ATOM     27  C   UNL     1       0.467   2.274  24.603  0.00  0.00    +0.164 C 
ATOM     28  O   UNL     1       0.769   2.067  25.342  0.00  0.00    -0.350 OA
ATOM     29  C   UNL     1       0.406   2.346  26.028  0.00  0.00    +0.164 C 
ATOM     30  C   UNL     1      -0.259   2.831  25.975  0.00  0.00    +0.124 C 
ENDBRANCH  23  25
ENDBRANCH  16  19
BRANCH  14  13
ATOM      9  N   UNL     1      -4.896   1.181  24.877  0.00  0.00    -0.263 NA
ATOM     10  C   UNL     1      -5.564   0.799  25.174  0.00  0.00    +0.073 C 
ATOM     11  C   UNL     1      -6.067   1.372  25.489  0.00  0.00    +0.019 C 
ATOM     12  C   UNL     1      -5.710   2.109  25.388  0.00  0.00    +0.027 C 
ATOM     13  C   UNL     1      -4.986   1.991  25.009  0.00  0.00    +0.138 C 
BRANCH   9   8
ATOM      8  C   UNL     1      -4.252   0.819  24.513  0.00  0.00    +0.102 C 
BRANCH   8   7
ATOM      1  F   UNL     1      -4.112  -0.237  23.253  0.00  0.00    -0.204 F 
ATOM      2  C   UNL     1      -4.020  -0.505  24.027  0.00  0.00    +0.137 A 
ATOM      3  C   UNL     1      -3.858  -1.301  24.172  0.00  0.00    +0.029 A 
ATOM      4  C   UNL     1      -3.766  -1.569  24.946  0.00  0.00    +0.002 A 
ATOM      5  C   UNL     1      -3.835  -1.041  25.577  0.00  0.00    -0.000 A 
ATOM      6  C   UNL     1      -3.997  -0.245  25.432  0.00  0.00    -0.001 A 
ATOM      7  C   UNL     1      -4.090   0.023  24.657  0.00  0.00    +0.021 A 
ENDBRANCH   8   7
ENDBRANCH   9   8
ENDBRANCH  14  13
TORSDOF 5
ENDMDL
MODEL 2
REMARK VINA RESULT:     -12.3      1.803      3.577
REMARK  Name = 
REMARK  5 active torsions:
REMARK  status: ('A' for Active; 'I' for Inactive)
REMARK    1  A    between atoms: C_7  and  C_8
REMARK    2  A    between atoms: C_8  and  N_9
REMARK    3  A    between atoms: C_13  and  C_14
REMARK    4  A    between atoms: C_16  and  C_19
REMARK    5  A    between atoms: C_23  and  N_25
REMARK                            x       y       z     vdW  Elec       q    Type
REMARK                         _______ _______ _______ _____ _____    ______ ____
ROOT
ATOM     14  C   UNL     1      -1.571   0.723  24.467  0.00  0.00    +0.251 A 
ATOM     15  N   UNL     1      -1.908   1.223  25.030  0.00  0.00    -0.190 NA
ATOM     16  C   UNL     1      -2.039   1.956  24.676  0.00  0.00    +0.203 A 
ATOM     17  N   UNL     1      -1.784   1.909  23.892  0.00  0.00    -0.056 NA
ATOM     18  O   UNL     1      -1.495   1.147  23.763  0.00  0.00    -0.336 OA
ENDROOT
BRANCH  16  19
ATOM     19  C   UNL     1      -2.367   2.620  25.039  0.00  0.00    +0.043 A 
ATOM     20  C   UNL     1      -1.876   3.218  25.325  0.00  0.00    +0.024 A 
ATOM     21  C   UNL     1      -2.204   3.882  25.688  0.00  0.00    +0.100 A 
ATOM     22  N   UNL     1      -3.022   3.948  25.766  0.00  0.00    -0.229 NA
ATOM     23  C   UNL     1      -3.514   3.350  25.480  0.00  0.00    +0.132 A 
ATOM     24  C   UNL     1      -3.186   2.686  25.116  0.00  0.00    +0.037 A 
BRANCH  23  25
ATOM     25  N   UNL     1      -4.332   3.417  25.557  0.00  0.00    -0.288 N 
ATOM     26  C   UNL     1      -4.772   2.781  25.845  0.00  0.00    +0.124 C 
ATOM     27  C   UNL     1      -5.590   2.848  25.923  0.00  0.00    +0.164 C 
ATOM     28  O   UNL     1      -5.969   3.549  25.712  0.00  0.00    -0.350 OA
ATOM     29  C   UNL     1      -5.529   4.185  25.423  0.00  0.00    +0.164 C 
ATOM     30  C   UNL     1      -4.711   4.119  25.346  0.00  0.00    +0.124 C 
ENDBRANCH  23  25
ENDBRANCH  16  19
BRANCH  14  13
ATOM      9  N   UNL     1      -1.862  -0.709  24.634  0.00  0.00    -0.263 NA
ATOM     10  C   UNL     1      -1.406  -1.386  24.754  0.00  0.00    +0.073 C 
ATOM     11  C   UNL     1      -0.613  -1.158  24.780  0.00  0.00    +0.019 C 
ATOM     12  C   UNL     1      -0.579  -0.340  24.676  0.00  0.00    +0.027 C 
ATOM     13  C   UNL     1      -1.351  -0.062  24.585  0.00  0.00    +0.138 C 
BRANCH   9   8
ATOM      8  C   UNL     1      -2.683  -0.683  24.573  0.00  0.00    +0.102 C 
BRANCH   8   7
ATOM      1  F   UNL     1      -3.889  -0.788  23.452  0.00  0.00    -0.204 F 
ATOM      2  C   UNL     1      -3.717  -1.434  23.934  0.00  0.00    +0.137 A 
ATOM      3  C   UNL     1      -4.148  -2.134  23.857  0.00  0.00    +0.029 A 
ATOM      4  C   UNL     1      -3.975  -2.780  24.338  0.00  0.00    +0.002 A 
ATOM      5  C   UNL     1      -3.372  -2.727  24.899  0.00  0.00    -0.000 A 
ATOM      6  C   UNL     1      -2.941  -2.029  24.977  0.00  0.00    -0.001 A 
ATOM      7  C   UNL     1      -3.114  -1.381  24.494  0.00  0.00    +0.021 A 
ENDBRANCH   8   7
ENDBRANCH   9   8
ENDBRANCH  14  13
TORSDOF 5
ENDMDL
MODEL 3
REMARK VINA RESULT:     -12.0      1.942      4.459
REMARK  Name = 
REMARK  5 active torsions:
REMARK  status: ('A' for Active; 'I' for Inactive)
REMARK    1  A    between atoms: C_7  and  C_8
REMARK    2  A    between atoms: C_8  and  N_9
REMARK    3  A    between atoms: C_13  and  C_14
REMARK    4  A    between atoms: C_16  and  C_19
REMARK    5  A    between atoms: C_23  and  N_25
REMARK                            x       y       z     vdW  Elec       q    Type
REMARK                         _______ _______ _______ _____ _____    ______ ____
ROOT
ATOM     14  C   UNL     1      -3.935   1.980  24.638  0.00  0.00    +0.251 A 
ATOM     15  N   UNL     1      -3.795   1.229  24.950  0.00  0.00    -0.190 NA
ATOM     16  C   UNL     1      -3.796   0.689  24.327  0.00  0.00    +0.203 A 
ATOM     17  N   UNL     1      -3.938   1.105  23.629  0.00  0.00    -0.056 NA
ATOM     18  O   UNL     1      -4.023   1.903  23.821  0.00  0.00    -0.336 OA
ENDROOT
BRANCH  16  19
ATOM     19  C   UNL     1      -3.678  -0.125  24.390  0.00  0.00    +0.043 A 
ATOM     20  C   UNL     1      -4.311  -0.644  24.281  0.00  0.00    +0.024 A 
ATOM     21  C   UNL     1      -4.193  -1.457  24.343  0.00  0.00    +0.100 A 
ATOM     22  N   UNL     1      -3.443  -1.754  24.514  0.00  0.00    -0.229 NA
ATOM     23  C   UNL     1      -2.809  -1.236  24.623  0.00  0.00    +0.132 A 
ATOM     24  C   UNL     1      -2.927  -0.422  24.561  0.00  0.00    +0.037 A 
BRANCH  23  25
ATOM     25  N   UNL     1      -2.059  -1.533  24.794  0.00  0.00    -0.288 N 
ATOM     26  C   UNL     1      -1.553  -1.112  25.291  0.00  0.00    +0.124 C 
ATOM     27  C   UNL     1      -0.803  -1.409  25.463  0.00  0.00    +0.164 C 
ATOM     28  O   UNL     1      -0.558  -2.126  25.137  0.00  0.00    -0.350 OA
ATOM     29  C   UNL     1      -1.064  -2.547  24.639  0.00  0.00    +0.164 C 
ATOM     30  C   UNL     1      -1.815  -2.250  24.468  0.00  0.00    +0.124 C 
ENDBRANCH  23  25
ENDBRANCH  16  19
BRANCH  14  13
ATOM      9  N   UNL     1      -3.358   3.210  25.199  0.00  0.00    -0.263 NA
ATOM     10  C   UNL     1      -3.648   3.836  25.652  0.00  0.00    +0.073 C 
ATOM     11  C   UNL     1      -4.448   3.695  25.799  0.00  0.00    +0.019 C 
ATOM     12  C   UNL     1      -4.652   2.983  25.437  0.00  0.00    +0.027 C 
ATOM     13  C   UNL     1      -3.979   2.683  25.066  0.00  0.00    +0.138 C 
BRANCH   9   8
ATOM      8  C   UNL     1      -2.585   3.126  24.928  0.00  0.00    +0.102 C 
BRANCH   8   7
ATOM      1  F   UNL     1      -1.040   2.824  25.422  0.00  0.00    -0.204 F 
ATOM      2  C   UNL     1      -1.276   3.596  25.258  0.00  0.00    +0.137 A 
ATOM      3  C   UNL     1      -0.740   4.218  25.340  0.00  0.00    +0.029 A 
ATOM      4  C   UNL     1      -0.976   4.991  25.175  0.00  0.00    +0.002 A 
ATOM      5  C   UNL     1      -1.749   5.142  24.927  0.00  0.00    -0.000 A 
ATOM      6  C   UNL     1      -2.285   4.521  24.845  0.00  0.00    -0.001 A 
ATOM      7  C   UNL     1      -2.048   3.747  25.010  0.00  0.00    +0.021 A 
ENDBRANCH   8   7
ENDBRANCH   9   8
ENDBRANCH  14  13
TORSDOF 5
ENDMDL
MODEL 4
REMARK VINA RESULT:     -11.9      2.259      4.443
REMARK  Name = 
REMARK  5 active torsions:
REMARK  status: ('A' for Active; 'I' for Inactive)
REMARK    1  A    between atoms: C_7  and  C_8
REMARK    2  A    between atoms: C_8  and  N_9
REMARK    3  A    between atoms: C_13  and  C_14
REMARK    4  A    between atoms: C_16  and  C_19
REMARK    5  A    between atoms: C_23  and  N_25
REMARK                            x       y       z     vdW  Elec       q    Type
REMARK                         _______ _______ _______ _____ _____    ______ ____
ROOT
ATOM     14  C   UNL     1      -1.791   2.234  24.693  0.00  0.00    +0.251 A 
ATOM     15  N   UNL     1      -1.708   1.486  25.030  0.00  0.00    -0.190 NA
ATOM     16  C   UNL     1      -1.414   0.977  24.452  0.00  0.00    +0.203 A 
ATOM     17  N   UNL     1      -1.314   1.411  23.757  0.00  0.00    -0.056 NA
ATOM     18  O   UNL     1      -1.547   2.188  23.906  0.00  0.00    -0.336 OA
ENDROOT
BRANCH  16  19
ATOM     19  C   UNL     1      -1.247   0.175  24.550  0.00  0.00    +0.043 A 
ATOM     20  C   UNL     1      -0.464  -0.084  24.571  0.00  0.00    +0.024 A 
ATOM     21  C   UNL     1      -0.296  -0.885  24.669  0.00  0.00    +0.100 A 
ATOM     22  N   UNL     1      -0.912  -1.429  24.746  0.00  0.00    -0.229 NA
ATOM     23  C   UNL     1      -1.696  -1.171  24.724  0.00  0.00    +0.132 A 
ATOM     24  C   UNL     1      -1.863  -0.369  24.626  0.00  0.00    +0.037 A 
BRANCH  23  25
ATOM     25  N   UNL     1      -2.311  -1.715  24.801  0.00  0.00    -0.288 N 
ATOM     26  C   UNL     1      -2.894  -1.599  25.372  0.00  0.00    +0.124 C 
ATOM     27  C   UNL     1      -3.510  -2.143  25.449  0.00  0.00    +0.164 C 
ATOM     28  O   UNL     1      -3.543  -2.802  24.954  0.00  0.00    -0.350 OA
ATOM     29  C   UNL     1      -2.960  -2.917  24.381  0.00  0.00    +0.164 C 
ATOM     30  C   UNL     1      -2.344  -2.373  24.305  0.00  0.00    +0.124 C 
ENDBRANCH  23  25
ENDBRANCH  16  19
BRANCH  14  13
ATOM      9  N   UNL     1      -2.858   3.135  25.152  0.00  0.00    -0.263 NA
ATOM     10  C   UNL     1      -2.881   3.845  25.572  0.00  0.00    +0.073 C 
ATOM     11  C   UNL     1      -2.105   4.059  25.754  0.00  0.00    +0.019 C 
ATOM     12  C   UNL     1      -1.603   3.482  25.447  0.00  0.00    +0.027 C 
ATOM     13  C   UNL     1      -2.068   2.910  25.075  0.00  0.00    +0.138 C 
BRANCH   9   8
ATOM      8  C   UNL     1      -3.510   2.723  24.862  0.00  0.00    +0.102 C 
BRANCH   8   7
ATOM      1  F   UNL     1      -4.528   1.531  25.378  0.00  0.00    -0.204 F 
ATOM      2  C   UNL     1      -4.778   2.317  25.381  0.00  0.00    +0.137 A 
ATOM      3  C   UNL     1      -5.537   2.508  25.642  0.00  0.00    +0.029 A 
ATOM      4  C   UNL     1      -5.787   3.293  25.645  0.00  0.00    +0.002 A 
ATOM      5  C   UNL     1      -5.278   3.889  25.386  0.00  0.00    -0.000 A 
ATOM      6  C   UNL     1      -4.519   3.699  25.125  0.00  0.00    -0.001 A 
ATOM      7  C   UNL     1      -4.269   2.913  25.123  0.00  0.00    +0.021 A 
ENDBRANCH   8   7
ENDBRANCH   9   8
ENDBRANCH  14  13
TORSDOF 5
ENDMDL
MODEL 5
REMARK VINA RESULT:     -11.8      1.736      2.813
REMARK  Name = 
REMARK  5 active torsions:
REMARK  status: ('A' for Active; 'I' for Inactive)
REMARK    1  A    between atoms: C_7  and  C_8
REMARK    2  A    between atoms: C_8  and  N_9
REMARK    3  A    between atoms: C_13  and  C_14
REMARK    4  A    between atoms: C_16  and  C_19
REMARK    5  A    between atoms: C_23  and  N_25
REMARK                            x       y       z     vdW  Elec       q    Type
REMARK                         _______ _______ _______ _____ _____    ______ ____
ROOT
ATOM     14  C   UNL     1      -4.178   0.047  24.728  0.00  0.00    +0.251 A 
ATOM     15  N   UNL     1      -3.875   0.714  24.350  0.00  0.00    -0.190 NA
ATOM     16  C   UNL     1      -4.140   1.381  24.757  0.00  0.00    +0.203 A 
ATOM     17  N   UNL     1      -4.608   1.126  25.387  0.00  0.00    -0.056 NA
ATOM     18  O   UNL     1      -4.631   0.301  25.369  0.00  0.00    -0.336 OA
ENDROOT
BRANCH  16  19
ATOM     19  C   UNL     1      -3.969   2.165  24.567  0.00  0.00    +0.043 A 
ATOM     20  C   UNL     1      -4.533   2.629  24.183  0.00  0.00    +0.024 A 
ATOM     21  C   UNL     1      -4.363   3.413  23.994  0.00  0.00    +0.100 A 
ATOM     22  N   UNL     1      -3.628   3.735  24.188  0.00  0.00    -0.229 NA
ATOM     23  C   UNL     1      -3.064   3.272  24.573  0.00  0.00    +0.132 A 
ATOM     24  C   UNL     1      -3.234   2.487  24.762  0.00  0.00    +0.037 A 
BRANCH  23  25
ATOM     25  N   UNL     1      -2.329   3.593  24.768  0.00  0.00    -0.288 N 
ATOM     26  C   UNL     1      -1.638   3.224  24.512  0.00  0.00    +0.124 C 
ATOM     27  C   UNL     1      -0.903   3.546  24.707  0.00  0.00    +0.164 C 
ATOM     28  O   UNL     1      -0.861   4.236  25.157  0.00  0.00    -0.350 OA
ATOM     29  C   UNL     1      -1.553   4.604  25.413  0.00  0.00    +0.164 C 
ATOM     30  C   UNL     1      -2.288   4.283  25.218  0.00  0.00    +0.124 C 
ENDBRANCH  23  25
ENDBRANCH  16  19
BRANCH  14  13
ATOM      9  N   UNL     1      -3.442  -1.225  24.774  0.00  0.00    -0.263 NA
ATOM     10  C   UNL     1      -3.526  -1.960  24.409  0.00  0.00    +0.073 C 
ATOM     11  C   UNL     1      -4.187  -1.927  23.916  0.00  0.00    +0.019 C 
ATOM     12  C   UNL     1      -4.512  -1.171  23.976  0.00  0.00    +0.027 C 
ATOM     13  C   UNL     1      -4.051  -0.737  24.506  0.00  0.00    +0.138 C 
BRANCH   9   8
ATOM      8  C   UNL     1      -2.853  -1.015  25.311  0.00  0.00    +0.102 C 
BRANCH   8   7
ATOM      1  F   UNL     1      -1.597  -0.290  26.097  0.00  0.00    -0.204 F 
ATOM      2  C   UNL     1      -1.457  -0.939  25.608  0.00  0.00    +0.137 A 
ATOM      3  C   UNL     1      -0.690  -1.226  25.511  0.00  0.00    +0.029 A 
ATOM      4  C   UNL     1      -0.550  -1.875  25.022  0.00  0.00    +0.002 A 
ATOM      5  C   UNL     1      -1.178  -2.237  24.629  0.00  0.00    -0.000 A 
ATOM      6  C   UNL     1      -1.946  -1.951  24.725  0.00  0.00    -0.001 A 
ATOM      7  C   UNL     1      -2.085  -1.301  25.215  0.00  0.00    +0.021 A 
ENDBRANCH   8   7
ENDBRANCH   9   8
ENDBRANCH  14  13
TORSDOF 5
ENDMDL
MODEL 6
REMARK VINA RESULT:     -11.8      2.071      5.381
REMARK  Name = 
REMARK  5 active torsions:
REMARK  status: ('A' for Active; 'I' for Inactive)
REMARK    1  A    between atoms: C_7  and  C_8
REMARK    2  A    between atoms: C_8  and  N_9
REMARK    3  A    between atoms: C_13  and  C_14
REMARK    4  A    between atoms: C_16  and  C_19
REMARK    5  A    between atoms: C_23  and  N_25
REMARK                            x       y       z     vdW  Elec       q    Type
REMARK                         _______ _______ _______ _____ _____    ______ ____
ROOT
ATOM     14  C   UNL     1      -1.439   1.568  24.815  0.00  0.00    +0.251 A 
ATOM     15  N   UNL     1      -2.124   1.206  25.097  0.00  0.00    -0.190 NA
ATOM     16  C   UNL     1      -2.477   0.802  24.471  0.00  0.00    +0.203 A 
ATOM     17  N   UNL     1      -2.009   0.914  23.800  0.00  0.00    -0.056 NA
ATOM     18  O   UNL     1      -1.368   1.387  24.012  0.00  0.00    -0.336 OA
ENDROOT
BRANCH  16  19
ATOM     19  C   UNL     1      -3.174   0.363  24.507  0.00  0.00    +0.043 A 
ATOM     20  C   UNL     1      -3.900   0.748  24.587  0.00  0.00    +0.024 A 
ATOM     21  C   UNL     1      -4.597   0.310  24.623  0.00  0.00    +0.100 A 
ATOM     22  N   UNL     1      -4.570  -0.514  24.580  0.00  0.00    -0.229 NA
ATOM     23  C   UNL     1      -3.845  -0.899  24.500  0.00  0.00    +0.132 A 
ATOM     24  C   UNL     1      -3.147  -0.460  24.463  0.00  0.00    +0.037 A 
BRANCH  23  25
ATOM     25  N   UNL     1      -3.818  -1.722  24.456  0.00  0.00    -0.288 N 
ATOM     26  C   UNL     1      -4.157  -2.112  23.814  0.00  0.00    +0.124 C 
ATOM     27  C   UNL     1      -4.130  -2.936  23.770  0.00  0.00    +0.164 C 
ATOM     28  O   UNL     1      -3.763  -3.369  24.369  0.00  0.00    -0.350 OA
ATOM     29  C   UNL     1      -3.423  -2.978  25.011  0.00  0.00    +0.164 C 
ATOM     30  C   UNL     1      -3.450  -2.155  25.055  0.00  0.00    +0.124 C 
ENDBRANCH  23  25
ENDBRANCH  16  19
BRANCH  14  13
ATOM      9  N   UNL     1      -0.966   2.845  25.370  0.00  0.00    -0.263 NA
ATOM     10  C   UNL     1      -0.332   3.075  25.844  0.00  0.00    +0.073 C 
ATOM     11  C   UNL     1       0.111   2.402  26.023  0.00  0.00    +0.019 C 
ATOM     12  C   UNL     1      -0.251   1.755  25.658  0.00  0.00    +0.027 C 
ATOM     13  C   UNL     1      -0.916   2.029  25.255  0.00  0.00    +0.138 C 
BRANCH   9   8
ATOM      8  C   UNL     1      -1.548   3.342  25.064  0.00  0.00    +0.102 C 
BRANCH   8   7
ATOM      1  F   UNL     1      -2.664   4.375  25.705  0.00  0.00    -0.204 F 
ATOM      2  C   UNL     1      -1.979   4.673  25.355  0.00  0.00    +0.137 A 
ATOM      3  C   UNL     1      -1.852   5.488  25.325  0.00  0.00    +0.029 A 
ATOM      4  C   UNL     1      -1.167   5.786  24.975  0.00  0.00    +0.002 A 
ATOM      5  C   UNL     1      -0.610   5.270  24.655  0.00  0.00    -0.000 A 
ATOM      6  C   UNL     1      -0.736   4.455  24.684  0.00  0.00    -0.001 A 
ATOM      7  C   UNL     1      -1.422   4.157  25.035  0.00  0.00    +0.021 A 
ENDBRANCH   8   7
ENDBRANCH   9   8
ENDBRANCH  14  13
TORSDOF 5
ENDMDL
