MODEL 1
REMARK VINA RESULT:     -10.9      0.000      0.000
REMARK  Name = 
REMARK  7 active torsions:
REMARK  status: ('A' for Active; 'I' for Inactive)
REMARK    1  A    between atoms: C_2  and  N_4
REMARK    2  A    between atoms: N_7  and  C_8
REMARK    3  A    between atoms: C_13  and  C_14
REMARK    4  A    between atoms: C_14  and  C_15
REMARK    5  A    between atoms: C_15  and  C_16
REMARK    6  A    between atoms: N_18  and  C_19
REMARK    7  A    between atoms: C_19  and  C_20
REMARK                            x       y       z     vdW  Elec       q    Type
REMARK                         _______ _______ _______ _____ _____    ______ ____
ROOT
ATOM      8  C   UNL     1      -3.449   3.722  25.833  0.00  0.00    +0.115 C 
ATOM      9  C   UNL     1      -4.204   4.051  25.881  0.00  0.00    +0.049 C 
ATOM     10  C   UNL     1      -4.747   3.476  25.645  0.00  0.00    +0.138 C 
ATOM     11  N   UNL     1      -4.328   2.792  25.452  0.00  0.00    -0.265 NA
ATOM     12  C   UNL     1      -3.525   2.945  25.568  0.00  0.00    +0.094 C 
ATOM     13  C   UNL     1      -4.731   2.120  25.195  0.00  0.00    +0.080 C 
ATOM     26  C   UNL     1      -5.554   2.131  25.132  0.00  0.00    +0.131 C 
ATOM     27  N   UNL     1      -5.973   2.815  25.325  0.00  0.00    -0.203 NA
ATOM     28  C   UNL     1      -5.570   3.488  25.582  0.00  0.00    +0.256 C 
ATOM     29  O   UNL     1      -5.989   4.171  25.775  0.00  0.00    -0.272 OA
ENDROOT
BRANCH   8   7
ATOM      4  N   UNL     1      -1.512   4.702  25.604  0.00  0.00    -0.189 NA
ATOM      5  C   UNL     1      -2.219   4.320  25.417  0.00  0.00    +0.339 C 
ATOM      6  O   UNL     1      -2.404   4.153  24.631  0.00  0.00    -0.249 OA
ATOM      7  N   UNL     1      -2.742   4.104  26.018  0.00  0.00    -0.187 NA
BRANCH   4   2
ATOM      1  C   UNL     1      -1.015   5.680  24.687  0.00  0.00    +0.023 C 
ATOM      2  C   UNL     1      -0.990   4.918  25.003  0.00  0.00    +0.097 C 
ATOM      3  C   UNL     1      -0.441   4.371  24.717  0.00  0.00    +0.023 C 
ENDBRANCH   4   2
ENDBRANCH   8   7
BRANCH  13  14
ATOM     14  C   UNL     1      -4.311   1.437  25.002  0.00  0.00    +0.027 C 
BRANCH  14  15
ATOM     15  C   UNL     1      -4.621   0.904  24.453  0.00  0.00    +0.088 C 
BRANCH  15  16
ATOM     16  C   UNL     1      -4.127   0.352  24.089  0.00  0.00    +0.242 C 
ATOM     17  O   UNL     1      -3.641   0.582  23.464  0.00  0.00    -0.273 OA
ATOM     18  N   UNL     1      -4.119  -0.430  24.352  0.00  0.00    -0.201 NA
BRANCH  18  19
ATOM     19  C   UNL     1      -3.625  -0.981  23.988  0.00  0.00    +0.141 C 
BRANCH  19  20
ATOM     20  C   UNL     1      -3.593  -1.756  24.272  0.00  0.00    -0.001 A 
ATOM     21  C   UNL     1      -3.989  -2.358  23.872  0.00  0.00    -0.003 A 
ATOM     22  C   UNL     1      -3.956  -3.133  24.156  0.00  0.00    -0.000 A 
ATOM     23  C   UNL     1      -3.528  -3.304  24.840  0.00  0.00    -0.000 A 
ATOM     24  C   UNL     1      -3.132  -2.701  25.240  0.00  0.00    -0.000 A 
ATOM     25  C   UNL     1      -3.165  -1.927  24.957  0.00  0.00    -0.003 A 
ENDBRANCH  19  20
ENDBRANCH  18  19
ENDBRANCH  15  16
ENDBRANCH  14  15
ENDBRANCH  13  14
TORSDOF 7
ENDMDL
MODEL 2
REMARK VINA RESULT:     -10.7      1.934      3.567
REMARK  Name = 
REMARK  7 active torsions:
REMARK  status: ('A' for Active; 'I' for Inactive)
REMARK    1  A    between atoms: C_2  and  N_4
REMARK    2  A    between atoms: N_7  and  C_8
REMARK    3  A    between atoms: C_13  and  C_14
REMARK    4  A    between atoms: C_14  and  C_15
REMARK    5  A    between atoms: C_15  and  C_16
REMARK    6  A    between atoms: N_18  and  C_19
REMARK    7  A    between atoms: C_19  and  C_20
REMARK                            x       y       z     vdW  Elec       q    Type
REMARK                         _______ _______ _______ _____ _____    ______ ____
ROOT
ATOM      8  C   UNL     1      -2.717   2.965  24.362  0.00  0.00    +0.115 C 
ATOM      9  C   UNL     1      -2.224   3.554  24.665  0.00  0.00    +0.049 C 
ATOM     10  C   UNL     1      -1.467   3.237  24.745  0.00  0.00    +0.138 C 
ATOM     11  N   UNL     1      -1.492   2.451  24.491  0.00  0.00    -0.265 NA
ATOM     12  C   UNL     1      -2.264   2.284  24.255  0.00  0.00    +0.094 C 
ATOM     13  C   UNL     1      -0.807   1.991  24.509  0.00  0.00    +0.080 C 
ATOM     26  C   UNL     1      -0.098   2.315  24.780  0.00  0.00    +0.131 C 
ATOM     27  N   UNL     1      -0.074   3.100  25.034  0.00  0.00    -0.203 NA
ATOM     28  C   UNL     1      -0.758   3.561  25.016  0.00  0.00    +0.256 C 
ATOM     29  O   UNL     1      -0.734   4.345  25.270  0.00  0.00    -0.272 OA
ENDROOT
BRANCH   8   7
ATOM      4  N   UNL     1      -4.887   2.826  24.554  0.00  0.00    -0.189 NA
ATOM      5  C   UNL     1      -4.083   2.746  24.721  0.00  0.00    +0.339 C 
ATOM      6  O   UNL     1      -3.840   2.369  25.413  0.00  0.00    -0.249 OA
ATOM      7  N   UNL     1      -3.521   3.045  24.196  0.00  0.00    -0.187 NA
BRANCH   4   2
ATOM      1  C   UNL     1      -5.693   2.981  25.723  0.00  0.00    +0.023 C 
ATOM      2  C   UNL     1      -5.448   2.528  25.079  0.00  0.00    +0.097 C 
ATOM      3  C   UNL     1      -5.767   1.776  24.960  0.00  0.00    +0.023 C 
ENDBRANCH   4   2
ENDBRANCH   8   7
BRANCH  13  14
ATOM     14  C   UNL     1      -0.832   1.207  24.256  0.00  0.00    +0.027 C 
BRANCH  14  15
ATOM     15  C   UNL     1      -0.516   0.610  24.731  0.00  0.00    +0.088 C 
BRANCH  15  16
ATOM     16  C   UNL     1      -0.639  -0.182  24.534  0.00  0.00    +0.242 C 
ATOM     17  O   UNL     1      -0.107  -0.571  24.039  0.00  0.00    -0.273 OA
ATOM     18  N   UNL     1      -1.295  -0.584  24.832  0.00  0.00    -0.201 NA
BRANCH  18  19
ATOM     19  C   UNL     1      -1.417  -1.376  24.635  0.00  0.00    +0.141 C 
BRANCH  19  20
ATOM     20  C   UNL     1      -2.150  -1.728  24.779  0.00  0.00    -0.001 A 
ATOM     21  C   UNL     1      -2.352  -2.429  24.395  0.00  0.00    -0.003 A 
ATOM     22  C   UNL     1      -3.085  -2.781  24.539  0.00  0.00    -0.000 A 
ATOM     23  C   UNL     1      -3.615  -2.431  25.066  0.00  0.00    -0.000 A 
ATOM     24  C   UNL     1      -3.411  -1.729  25.449  0.00  0.00    -0.000 A 
ATOM     25  C   UNL     1      -2.680  -1.378  25.306  0.00  0.00    -0.003 A 
ENDBRANCH  19  20
ENDBRANCH  18  19
ENDBRANCH  15  16
ENDBRANCH  14  15
ENDBRANCH  13  14
TORSDOF 7
ENDMDL
MODEL 3
REMARK VINA RESULT:     -10.5      1.895      5.491
REMARK  Name = 
REMARK  7 active torsions:
REMARK  status: ('A' for Active; 'I' for Inactive)
REMARK    1  A    between atoms: C_2  and  N_4
REMARK    2  A    between atoms: N_7  and  C_8
REMARK    3  A    between atoms: C_13  and  C_14
REMARK    4  A    between atoms: C_14  and  C_15
REMARK    5  A    between atoms: C_15  and  C_16
REMARK    6  A    between atoms: N_18  and  C_19
REMARK    7  A    between atoms: C_19  and  C_20
REMARK                            x       y       z     vdW  Elec       q    Type
REMARK                         _______ _______ _______ _____ _____    ______ ____
ROOT
ATOM      8  C   UNL     1      -3.617   0.024  24.402  0.00  0.00    +0.115 C 
ATOM      9  C   UNL     1      -3.514  -0.770  24.602  0.00  0.00    +0.049 C 
ATOM     10  C   UNL     1      -2.704  -0.912  24.669  0.00  0.00    +0.138 C 
ATOM     11  N   UNL     1      -2.307  -0.206  24.510  0.00  0.00    -0.265 NA
ATOM     12  C   UNL     1      -2.872   0.372  24.345  0.00  0.00    +0.094 C 
ATOM     13  C   UNL     1      -1.483  -0.182  24.536  0.00  0.00    +0.080 C 
ATOM     26  C   UNL     1      -1.055  -0.863  24.720  0.00  0.00    +0.131 C 
ATOM     27  N   UNL     1      -1.452  -1.568  24.879  0.00  0.00    -0.203 NA
ATOM     28  C   UNL     1      -2.276  -1.593  24.853  0.00  0.00    +0.256 C 
ATOM     29  O   UNL     1      -2.673  -2.298  25.012  0.00  0.00    -0.272 OA
ENDROOT
BRANCH   8   7
ATOM      4  N   UNL     1      -5.313   1.371  24.678  0.00  0.00    -0.189 NA
ATOM      5  C   UNL     1      -4.590   0.993  24.801  0.00  0.00    +0.339 C 
ATOM      6  O   UNL     1      -4.117   1.205  25.442  0.00  0.00    -0.249 OA
ATOM      7  N   UNL     1      -4.340   0.403  24.281  0.00  0.00    -0.187 NA
BRANCH   4   2
ATOM      1  C   UNL     1      -6.040   1.769  25.843  0.00  0.00    +0.023 C 
ATOM      2  C   UNL     1      -5.563   1.961  25.198  0.00  0.00    +0.097 C 
ATOM      3  C   UNL     1      -5.335   2.745  25.072  0.00  0.00    +0.023 C 
ENDBRANCH   4   2
ENDBRANCH   8   7
BRANCH  13  14
ATOM     14  C   UNL     1      -1.087   0.524  24.377  0.00  0.00    +0.027 C 
BRANCH  14  15
ATOM     15  C   UNL     1      -0.566   0.839  24.935  0.00  0.00    +0.088 C 
BRANCH  15  16
ATOM     16  C   UNL     1      -0.265   1.601  24.835  0.00  0.00    +0.242 C 
ATOM     17  O   UNL     1       0.439   1.715  24.422  0.00  0.00    -0.273 OA
ATOM     18  N   UNL     1      -0.670   2.248  25.147  0.00  0.00    -0.201 NA
BRANCH  18  19
ATOM     19  C   UNL     1      -0.368   3.010  25.047  0.00  0.00    +0.141 C 
BRANCH  19  20
ATOM     20  C   UNL     1      -0.858   3.665  25.160  0.00  0.00    -0.001 A 
ATOM     21  C   UNL     1      -0.664   4.388  24.814  0.00  0.00    -0.003 A 
ATOM     22  C   UNL     1      -1.153   5.044  24.927  0.00  0.00    -0.000 A 
ATOM     23  C   UNL     1      -1.836   4.975  25.385  0.00  0.00    -0.000 A 
ATOM     24  C   UNL     1      -2.029   4.250  25.730  0.00  0.00    -0.000 A 
ATOM     25  C   UNL     1      -1.541   3.596  25.618  0.00  0.00    -0.003 A 
ENDBRANCH  19  20
ENDBRANCH  18  19
ENDBRANCH  15  16
ENDBRANCH  14  15
ENDBRANCH  13  14
TORSDOF 7
ENDMDL
MODEL 4
REMARK VINA RESULT:     -10.4      2.110      5.350
REMARK  Name = 
REMARK  7 active torsions:
REMARK  status: ('A' for Active; 'I' for Inactive)
REMARK    1  A    between atoms: C_2  and  N_4
REMARK    2  A    between atoms: N_7  and  C_8
REMARK    3  A    between atoms: C_13  and  C_14
REMARK    4  A    between atoms: C_14  and  C_15
REMARK    5  A    between atoms: C_15  and  C_16
REMARK    6  A    between atoms: N_18  and  C_19
REMARK    7  A    between atoms: C_19  and  C_20
REMARK                            x       y       z     vdW  Elec       q    Type
REMARK                         _______ _______ _______ _____ _____    ______ ____
ROOT
ATOM      8  C   UNL     1      -1.128   0.199  25.230  0.00  0.00    +0.115 C 
ATOM      9  C   UNL     1      -0.468   0.295  24.743  0.00  0.00    +0.049 C 
ATOM     10  C   UNL     1      -0.327   1.104  24.663  0.00  0.00    +0.138 C 
ATOM     11  N   UNL     1      -0.900   1.508  25.100  0.00  0.00    -0.265 NA
ATOM     12  C   UNL     1      -1.394   0.948  25.450  0.00  0.00    +0.094 C 
ATOM     13  C   UNL     1      -0.896   2.332  25.121  0.00  0.00    +0.080 C 
ATOM     26  C   UNL     1      -0.320   2.754  24.707  0.00  0.00    +0.131 C 
ATOM     27  N   UNL     1       0.251   2.351  24.271  0.00  0.00    -0.203 NA
ATOM     28  C   UNL     1       0.249   1.526  24.248  0.00  0.00    +0.256 C 
ATOM     29  O   UNL     1       0.821   1.123  23.812  0.00  0.00    -0.272 OA
ENDROOT
BRANCH   8   7
ATOM      4  N   UNL     1      -2.467  -1.524  25.297  0.00  0.00    -0.189 NA
ATOM      5  C   UNL     1      -2.134  -0.803  25.070  0.00  0.00    +0.339 C 
ATOM      6  O   UNL     1      -2.473  -0.366  24.459  0.00  0.00    -0.249 OA
ATOM      7  N   UNL     1      -1.461  -0.521  25.456  0.00  0.00    -0.187 NA
BRANCH   4   2
ATOM      1  C   UNL     1      -3.876  -1.470  25.067  0.00  0.00    +0.023 C 
ATOM      2  C   UNL     1      -3.139  -1.806  24.912  0.00  0.00    +0.097 C 
ATOM      3  C   UNL     1      -3.075  -2.426  24.370  0.00  0.00    +0.023 C 
ENDBRANCH   4   2
ENDBRANCH   8   7
BRANCH  13  14
ATOM     14  C   UNL     1      -1.469   2.735  25.558  0.00  0.00    +0.027 C 
BRANCH  14  15
ATOM     15  C   UNL     1      -1.861   3.381  25.226  0.00  0.00    +0.088 C 
BRANCH  15  16
ATOM     16  C   UNL     1      -2.601   3.607  25.514  0.00  0.00    +0.242 C 
ATOM     17  O   UNL     1      -2.656   4.179  26.104  0.00  0.00    -0.273 OA
ATOM     18  N   UNL     1      -3.285   3.259  25.212  0.00  0.00    -0.201 NA
BRANCH  18  19
ATOM     19  C   UNL     1      -4.024   3.484  25.500  0.00  0.00    +0.141 C 
BRANCH  19  20
ATOM     20  C   UNL     1      -4.678   2.994  25.387  0.00  0.00    -0.001 A 
ATOM     21  C   UNL     1      -5.261   2.944  25.968  0.00  0.00    -0.003 A 
ATOM     22  C   UNL     1      -5.915   2.453  25.855  0.00  0.00    -0.000 A 
ATOM     23  C   UNL     1      -5.986   2.013  25.161  0.00  0.00    -0.000 A 
ATOM     24  C   UNL     1      -5.402   2.063  24.580  0.00  0.00    -0.000 A 
ATOM     25  C   UNL     1      -4.748   2.553  24.693  0.00  0.00    -0.003 A 
ENDBRANCH  19  20
ENDBRANCH  18  19
ENDBRANCH  15  16
ENDBRANCH  14  15
ENDBRANCH  13  14
TORSDOF 7
ENDMDL
MODEL 5
REMARK VINA RESULT:     -10.2      2.236      4.167
REMARK  Name = 
REMARK  7 active torsions:
REMARK  status: ('A' for Active; 'I' for Inactive)
REMARK    1  A    between atoms: C_2  and  N_4
REMARK    2  A    between atoms: N_7  and  C_8
REMARK    3  A    between atoms: C_13  and  C_14
REMARK    4  A    between atoms: C_14  and  C_15
REMARK    5  A    between atoms: C_15  and  C_16
REMARK    6  A    between atoms: N_18  and  C_19
REMARK    7  A    between atoms: C_19  and  C_20
REMARK                            x       y       z     vdW  Elec       q    Type
REMARK                         _______ _______ _______ _____ _____    ______ ____
ROOT
ATOM      8  C   UNL     1      -0.447   1.681  25.146  0.00  0.00    +0.115 C 
ATOM      9  C   UNL     1       0.068   1.328  24.605  0.00  0.00    +0.049 C 
ATOM     10  C   UNL     1      -0.222   0.576  24.430  0.00  0.00    +0.138 C 
ATOM     11  N   UNL     1      -0.917   0.464  24.862  0.00  0.00    -0.265 NA
ATOM     12  C   UNL     1      -1.055   1.147  25.304  0.00  0.00    +0.094 C 
ATOM     13  C   UNL     1      -1.332  -0.246  24.797  0.00  0.00    +0.080 C 
ATOM     26  C   UNL     1      -1.054  -0.843  24.300  0.00  0.00    +0.131 C 
ATOM     27  N   UNL     1      -0.361  -0.730  23.869  0.00  0.00    -0.203 NA
ATOM     28  C   UNL     1       0.056  -0.021  23.933  0.00  0.00    +0.256 C 
ATOM     29  O   UNL     1       0.749   0.091  23.502  0.00  0.00    -0.272 OA
ENDROOT
BRANCH   8   7
ATOM      4  N   UNL     1      -0.740   3.814  25.505  0.00  0.00    -0.189 NA
ATOM      5  C   UNL     1      -0.821   3.059  25.180  0.00  0.00    +0.339 C 
ATOM      6  O   UNL     1      -1.355   2.930  24.566  0.00  0.00    -0.249 OA
ATOM      7  N   UNL     1      -0.367   2.435  25.470  0.00  0.00    -0.187 NA
BRANCH   4   2
ATOM      1  C   UNL     1      -0.858   4.990  24.702  0.00  0.00    +0.023 C 
ATOM      2  C   UNL     1      -1.194   4.438  25.215  0.00  0.00    +0.097 C 
ATOM      3  C   UNL     1      -1.985   4.511  25.438  0.00  0.00    +0.023 C 
ENDBRANCH   4   2
ENDBRANCH   8   7
BRANCH  13  14
ATOM     14  C   UNL     1      -2.026  -0.357  25.229  0.00  0.00    +0.027 C 
BRANCH  14  15
ATOM     15  C   UNL     1      -2.702  -0.649  24.855  0.00  0.00    +0.088 C 
BRANCH  15  16
ATOM     16  C   UNL     1      -3.449  -0.478  25.161  0.00  0.00    +0.242 C 
ATOM     17  O   UNL     1      -3.794  -0.984  25.713  0.00  0.00    -0.273 OA
ATOM     18  N   UNL     1      -3.850   0.200  24.915  0.00  0.00    -0.201 NA
BRANCH  18  19
ATOM     19  C   UNL     1      -4.597   0.370  25.222  0.00  0.00    +0.141 C 
BRANCH  19  20
ATOM     20  C   UNL     1      -4.901   1.136  25.166  0.00  0.00    -0.001 A 
ATOM     21  C   UNL     1      -5.466   1.395  25.707  0.00  0.00    -0.003 A 
ATOM     22  C   UNL     1      -5.770   2.161  25.651  0.00  0.00    -0.000 A 
ATOM     23  C   UNL     1      -5.508   2.666  25.054  0.00  0.00    -0.000 A 
ATOM     24  C   UNL     1      -4.942   2.406  24.513  0.00  0.00    -0.000 A 
ATOM     25  C   UNL     1      -4.638   1.641  24.569  0.00  0.00    -0.003 A 
ENDBRANCH  19  20
ENDBRANCH  18  19
ENDBRANCH  15  16
ENDBRANCH  14  15
ENDBRANCH  13  14
TORSDOF 7
ENDMDL
MODEL 6
REMARK VINA RESULT:     -10.2      1.283      4.691
REMARK  Name = 
REMARK  7 active torsions:
REMARK  status: ('A' for Active; 'I' for Inactive)
REMARK    1  A    between atoms: C_2  and  N_4
REMARK    2  A    between atoms: N_7  and  C_8
REMARK    3  A    between atoms: C_13  and  C_14
REMARK    4  A    between atoms: C_14  and  C_15
REMARK    5  A    between atoms: C_15  and  C_16
REMARK    6  A    between atoms: N_18  and  C_19
REMARK    7  A    between atoms: C_19  and  C_20
REMARK                            x       y       z     vdW  Elec       q    Type
REMARK                         _______ _______ _______ _____ _____    ______ ____
ROOT
ATOM      8  C   UNL     1      -4.652   0.853  24.659  0.00  0.00    +0.115 C 
ATOM      9  C   UNL     1      -5.325   0.941  25.128  0.00  0.00    +0.049 C 
ATOM     10  C   UNL     1      -5.348   1.721  25.396  0.00  0.00    +0.138 C 
ATOM     11  N   UNL     1      -4.689   2.114  25.092  0.00  0.00    -0.265 NA
ATOM     12  C   UNL     1      -4.259   1.578  24.637  0.00  0.00    +0.094 C 
ATOM     13  C   UNL     1      -4.567   2.911  25.270  0.00  0.00    +0.080 C 
ATOM     26  C   UNL     1      -5.103   3.313  25.751  0.00  0.00    +0.131 C 
ATOM     27  N   UNL     1      -5.761   2.920  26.055  0.00  0.00    -0.203 NA
ATOM     28  C   UNL     1      -5.884   2.123  25.877  0.00  0.00    +0.256 C 
ATOM     29  O   UNL     1      -6.542   1.730  26.180  0.00  0.00    -0.272 OA
ENDROOT
BRANCH   8   7
ATOM      4  N   UNL     1      -3.686  -1.069  24.286  0.00  0.00    -0.189 NA
ATOM      5  C   UNL     1      -3.923  -0.377  24.667  0.00  0.00    +0.339 C 
ATOM      6  O   UNL     1      -3.670  -0.221  25.436  0.00  0.00    -0.249 OA
ATOM      7  N   UNL     1      -4.414   0.160  24.278  0.00  0.00    -0.187 NA
BRANCH   4   2
ATOM      1  C   UNL     1      -2.379  -1.485  24.689  0.00  0.00    +0.023 C 
ATOM      2  C   UNL     1      -3.195  -1.606  24.675  0.00  0.00    +0.097 C 
ATOM      3  C   UNL     1      -3.520  -2.265  25.051  0.00  0.00    +0.023 C 
ENDBRANCH   4   2
ENDBRANCH   8   7
BRANCH  13  14
ATOM     14  C   UNL     1      -3.909   3.304  24.966  0.00  0.00    +0.027 C 
BRANCH  14  15
ATOM     15  C   UNL     1      -3.477   3.817  25.448  0.00  0.00    +0.088 C 
BRANCH  15  16
ATOM     16  C   UNL     1      -2.705   4.024  25.242  0.00  0.00    +0.242 C 
ATOM     17  O   UNL     1      -2.558   4.736  24.855  0.00  0.00    -0.273 OA
ATOM     18  N   UNL     1      -2.081   3.517  25.425  0.00  0.00    -0.201 NA
BRANCH  18  19
ATOM     19  C   UNL     1      -1.309   3.724  25.219  0.00  0.00    +0.141 C 
BRANCH  19  20
ATOM     20  C   UNL     1      -0.714   3.151  25.224  0.00  0.00    -0.001 A 
ATOM     21  C   UNL     1      -0.435   2.841  24.512  0.00  0.00    -0.003 A 
ATOM     22  C   UNL     1       0.160   2.269  24.517  0.00  0.00    -0.000 A 
ATOM     23  C   UNL     1       0.476   2.008  25.233  0.00  0.00    -0.000 A 
ATOM     24  C   UNL     1       0.196   2.318  25.944  0.00  0.00    -0.000 A 
ATOM     25  C   UNL     1      -0.398   2.890  25.940  0.00  0.00    -0.003 A 
ENDBRANCH  19  20
ENDBRANCH  18  19
ENDBRANCH  15  16
ENDBRANCH  14  15
ENDBRANCH  13  14
TORSDOF 7
ENDMDL
MODEL 7
REMARK VINA RESULT:     -10.1      2.135      3.378
REMARK  Name = 
REMARK  7 active torsions:
REMARK  status: ('A' for Active; 'I' for Inactive)
REMARK    1  A    between atoms: C_2  and  N_4
REMARK    2  A    between atoms: N_7  and  C_8
REMARK    3  A    between atoms: C_13  and  C_14
REMARK    4  A    between atoms: C_14  and  C_15
REMARK    5  A    between atoms: C_15  and  C_16
REMARK    6  A    between atoms: N_18  and  C_19
REMARK    7  A    between atoms: C_19  and  C_20
REMARK                            x       y       z     vdW  Elec       q    Type
REMARK                         _______ _______ _______ _____ _____    ______ ____
ROOT
ATOM      8  C   UNL     1      -0.692   2.403  25.100  0.00  0.00    +0.115 C 
ATOM      9  C   UNL     1      -0.539   3.209  25.014  0.00  0.00    +0.049 C 
ATOM     10  C   UNL     1      -1.249   3.616  25.119  0.00  0.00    +0.138 C 
ATOM     11  N   UNL     1      -1.841   3.061  25.270  0.00  0.00    -0.265 NA
ATOM     12  C   UNL     1      -1.496   2.311  25.258  0.00  0.00    +0.094 C 
ATOM     13  C   UNL     1      -2.617   3.310  25.399  0.00  0.00    +0.080 C 
ATOM     26  C   UNL     1      -2.801   4.114  25.377  0.00  0.00    +0.131 C 
ATOM     27  N   UNL     1      -2.210   4.668  25.226  0.00  0.00    -0.203 NA
ATOM     28  C   UNL     1      -1.434   4.420  25.097  0.00  0.00    +0.256 C 
ATOM     29  O   UNL     1      -0.843   4.974  24.946  0.00  0.00    -0.272 OA
ENDROOT
BRANCH   8   7
ATOM      4  N   UNL     1       0.345   0.621  24.383  0.00  0.00    -0.189 NA
ATOM      5  C   UNL     1      -0.210   1.228  24.444  0.00  0.00    +0.339 C 
ATOM      6  O   UNL     1      -0.838   1.268  23.911  0.00  0.00    -0.249 OA
ATOM      7  N   UNL     1      -0.138   1.796  25.039  0.00  0.00    -0.187 NA
BRANCH   4   2
ATOM      1  C   UNL     1       0.641   0.170  23.060  0.00  0.00    +0.023 C 
ATOM      2  C   UNL     1       0.273   0.054  23.789  0.00  0.00    +0.097 C 
ATOM      3  C   UNL     1      -0.169  -0.631  23.923  0.00  0.00    +0.023 C 
ENDBRANCH   4   2
ENDBRANCH   8   7
BRANCH  13  14
ATOM     14  C   UNL     1      -3.208   2.755  25.550  0.00  0.00    +0.027 C 
BRANCH  14  15
ATOM     15  C   UNL     1      -3.844   2.678  25.029  0.00  0.00    +0.088 C 
BRANCH  15  16
ATOM     16  C   UNL     1      -4.351   2.030  25.090  0.00  0.00    +0.242 C 
ATOM     17  O   UNL     1      -5.126   2.135  25.349  0.00  0.00    -0.273 OA
ATOM     18  N   UNL     1      -4.082   1.276  24.891  0.00  0.00    -0.201 NA
BRANCH  18  19
ATOM     19  C   UNL     1      -4.589   0.628  24.952  0.00  0.00    +0.141 C 
BRANCH  19  20
ATOM     20  C   UNL     1      -4.299  -0.135  24.826  0.00  0.00    -0.001 A 
ATOM     21  C   UNL     1      -3.910  -0.533  25.435  0.00  0.00    -0.003 A 
ATOM     22  C   UNL     1      -3.621  -1.296  25.310  0.00  0.00    -0.000 A 
ATOM     23  C   UNL     1      -3.720  -1.660  24.576  0.00  0.00    -0.000 A 
ATOM     24  C   UNL     1      -4.110  -1.260  23.968  0.00  0.00    -0.000 A 
ATOM     25  C   UNL     1      -4.399  -0.499  24.093  0.00  0.00    -0.003 A 
ENDBRANCH  19  20
ENDBRANCH  18  19
ENDBRANCH  15  16
ENDBRANCH  14  15
ENDBRANCH  13  14
TORSDOF 7
ENDMDL
