MODEL 1
REMARK VINA RESULT:      -9.5      0.000      0.000
REMARK  Name = 
REMARK  9 active torsions:
REMARK  status: ('A' for Active; 'I' for Inactive)
REMARK    1  A    between atoms: O_2  and  C_3
REMARK    2  A    between atoms: C_3  and  C_4
REMARK    3  A    between atoms: C_4  and  O_5
REMARK    4  A    between atoms: O_5  and  C_6
REMARK    5  A    between atoms: C_8  and  C_12
REMARK    6  A    between atoms: C_15  and  C_17
REMARK    7  A    between atoms: N_21  and  C_22
REMARK    8  A    between atoms: C_22  and  C_23
REMARK    9  A    between atoms: C_26  and  C_27
REMARK                            x       y       z     vdW  Elec       q    Type
REMARK                         _______ _______ _______ _____ _____    ______ ____
ROOT
ATOM     12  C   UNL     1      -0.778   2.671  25.274  0.00  0.00    +0.204 A 
ATOM     13  N   UNL     1      -0.253   2.378  25.839  0.00  0.00    -0.056 NA
ATOM     14  O   UNL     1       0.069   1.677  25.549  0.00  0.00    -0.336 OA
ATOM     15  C   UNL     1      -0.257   1.535  24.805  0.00  0.00    +0.251 A 
ATOM     16  N   UNL     1      -0.780   2.149  24.634  0.00  0.00    -0.190 NA
ENDROOT
BRANCH  12   8
ATOM      6  C   UNL     1      -2.437   4.026  25.695  0.00  0.00    +0.225 A 
ATOM      7  C   UNL     1      -1.992   3.333  25.632  0.00  0.00    +0.061 A 
ATOM      8  C   UNL     1      -1.223   3.363  25.337  0.00  0.00    +0.045 A 
ATOM      9  C   UNL     1      -0.898   4.085  25.104  0.00  0.00    +0.024 A 
ATOM     10  C   UNL     1      -1.342   4.777  25.167  0.00  0.00    +0.102 A 
ATOM     11  N   UNL     1      -2.112   4.747  25.462  0.00  0.00    -0.210 NA
BRANCH   6   5
ATOM      5  O   UNL     1      -3.207   3.995  25.990  0.00  0.00    -0.457 OA
BRANCH   5   4
ATOM      4  C   UNL     1      -3.827   3.757  25.501  0.00  0.00    +0.239 C 
BRANCH   4   3
ATOM      3  C   UNL     1      -4.574   3.613  25.820  0.00  0.00    +0.189 C 
BRANCH   3   2
ATOM      1  C   UNL     1      -5.716   2.803  25.538  0.00  0.00    +0.174 C 
ATOM      2  O   UNL     1      -5.203   3.413  25.326  0.00  0.00    -0.347 OA
ENDBRANCH   3   2
ENDBRANCH   4   3
ENDBRANCH   5   4
ENDBRANCH   6   5
ENDBRANCH  12   8
BRANCH  15  17
ATOM     17  C   UNL     1      -0.088   0.892  24.316  0.00  0.00    +0.138 C 
ATOM     18  C   UNL     1       0.382   0.907  23.639  0.00  0.00    +0.027 C 
ATOM     19  C   UNL     1       0.401   0.145  23.324  0.00  0.00    +0.019 C 
ATOM     20  C   UNL     1      -0.059  -0.342  23.806  0.00  0.00    +0.073 C 
ATOM     21  N   UNL     1      -0.361   0.120  24.419  0.00  0.00    -0.260 NA
BRANCH  21  22
ATOM     22  C   UNL     1      -0.851  -0.144  25.029  0.00  0.00    +0.138 C 
BRANCH  22  23
ATOM     23  C   UNL     1      -1.284  -0.839  24.938  0.00  0.00    +0.139 A 
ATOM     24  C   UNL     1      -1.016  -1.603  25.094  0.00  0.00    +0.037 A 
ATOM     25  C   UNL     1      -1.629  -2.128  24.926  0.00  0.00    +0.038 A 
ATOM     26  C   UNL     1      -2.277  -1.690  24.666  0.00  0.00    +0.156 A 
ATOM     29  O   UNL     1      -2.064  -0.893  24.672  0.00  0.00    -0.458 OA
BRANCH  26  27
ATOM     27  C   UNL     1      -3.008  -1.995  24.438  0.00  0.00    +0.246 C 
ATOM     28  O   UNL     1      -3.293  -2.688  24.784  0.00  0.00    -0.212 OA
ENDBRANCH  26  27
ENDBRANCH  22  23
ENDBRANCH  21  22
ENDBRANCH  15  17
TORSDOF 9
ENDMDL
MODEL 2
REMARK VINA RESULT:      -9.4      1.885      3.539
REMARK  Name = 
REMARK  9 active torsions:
REMARK  status: ('A' for Active; 'I' for Inactive)
REMARK    1  A    between atoms: O_2  and  C_3
REMARK    2  A    between atoms: C_3  and  C_4
REMARK    3  A    between atoms: C_4  and  O_5
REMARK    4  A    between atoms: O_5  and  C_6
REMARK    5  A    between atoms: C_8  and  C_12
REMARK    6  A    between atoms: C_15  and  C_17
REMARK    7  A    between atoms: N_21  and  C_22
REMARK    8  A    between atoms: C_22  and  C_23
REMARK    9  A    between atoms: C_26  and  C_27
REMARK                            x       y       z     vdW  Elec       q    Type
REMARK                         _______ _______ _______ _____ _____    ______ ____
ROOT
ATOM     12  C   UNL     1      -4.421   0.609  25.131  0.00  0.00    +0.204 A 
ATOM     13  N   UNL     1      -4.565   0.203  25.834  0.00  0.00    -0.056 NA
ATOM     14  O   UNL     1      -4.273  -0.563  25.750  0.00  0.00    -0.336 OA
ATOM     15  C   UNL     1      -3.949  -0.631  24.995  0.00  0.00    +0.251 A 
ATOM     16  N   UNL     1      -4.040   0.093  24.612  0.00  0.00    -0.190 NA
ENDROOT
BRANCH  12   8
ATOM      6  C   UNL     1      -4.239   2.723  24.615  0.00  0.00    +0.225 A 
ATOM      7  C   UNL     1      -4.037   1.938  24.772  0.00  0.00    +0.061 A 
ATOM      8  C   UNL     1      -4.623   1.394  24.973  0.00  0.00    +0.045 A 
ATOM      9  C   UNL     1      -5.412   1.634  25.017  0.00  0.00    +0.024 A 
ATOM     10  C   UNL     1      -5.614   2.418  24.859  0.00  0.00    +0.102 A 
ATOM     11  N   UNL     1      -5.026   2.962  24.658  0.00  0.00    -0.210 NA
BRANCH   6   5
ATOM      5  O   UNL     1      -3.652   3.267  24.414  0.00  0.00    -0.457 OA
BRANCH   5   4
ATOM      4  C   UNL     1      -3.238   3.663  25.007  0.00  0.00    +0.239 C 
BRANCH   4   3
ATOM      3  C   UNL     1      -2.625   4.179  24.808  0.00  0.00    +0.189 C 
BRANCH   3   2
ATOM      1  C   UNL     1      -1.467   4.911  25.215  0.00  0.00    +0.174 C 
ATOM      2  O   UNL     1      -2.180   4.540  25.402  0.00  0.00    -0.347 OA
ENDBRANCH   3   2
ENDBRANCH   4   3
ENDBRANCH   5   4
ENDBRANCH   6   5
ENDBRANCH  12   8
BRANCH  15  17
ATOM     17  C   UNL     1      -3.594  -1.306  24.678  0.00  0.00    +0.138 C 
ATOM     18  C   UNL     1      -3.961  -1.865  24.195  0.00  0.00    +0.027 C 
ATOM     19  C   UNL     1      -3.405  -2.444  24.008  0.00  0.00    +0.019 C 
ATOM     20  C   UNL     1      -2.694  -2.244  24.376  0.00  0.00    +0.073 C 
ATOM     21  N   UNL     1      -2.811  -1.541  24.790  0.00  0.00    -0.260 NA
BRANCH  21  22
ATOM     22  C   UNL     1      -2.245  -1.141  25.238  0.00  0.00    +0.138 C 
BRANCH  22  23
ATOM     23  C   UNL     1      -1.469  -1.083  24.964  0.00  0.00    +0.139 A 
ATOM     24  C   UNL     1      -0.848  -1.591  25.153  0.00  0.00    +0.037 A 
ATOM     25  C   UNL     1      -0.174  -1.327  24.758  0.00  0.00    +0.038 A 
ATOM     26  C   UNL     1      -0.378  -0.656  24.324  0.00  0.00    +0.156 A 
ATOM     29  O   UNL     1      -1.179  -0.505  24.451  0.00  0.00    -0.458 OA
BRANCH  26  27
ATOM     27  C   UNL     1       0.129  -0.215  23.847  0.00  0.00    +0.246 C 
ATOM     28  O   UNL     1       0.547  -0.581  23.238  0.00  0.00    -0.212 OA
ENDBRANCH  26  27
ENDBRANCH  22  23
ENDBRANCH  21  22
ENDBRANCH  15  17
TORSDOF 9
ENDMDL
MODEL 3
REMARK VINA RESULT:      -9.3      1.935      5.845
REMARK  Name = 
REMARK  9 active torsions:
REMARK  status: ('A' for Active; 'I' for Inactive)
REMARK    1  A    between atoms: O_2  and  C_3
REMARK    2  A    between atoms: C_3  and  C_4
REMARK    3  A    between atoms: C_4  and  O_5
REMARK    4  A    between atoms: O_5  and  C_6
REMARK    5  A    between atoms: C_8  and  C_12
REMARK    6  A    between atoms: C_15  and  C_17
REMARK    7  A    between atoms: N_21  and  C_22
REMARK    8  A    between atoms: C_22  and  C_23
REMARK    9  A    between atoms: C_26  and  C_27
REMARK                            x       y       z     vdW  Elec       q    Type
REMARK                         _______ _______ _______ _____ _____    ______ ____
ROOT
ATOM     12  C   UNL     1      -3.972  -0.430  24.689  0.00  0.00    +0.204 A 
ATOM     13  N   UNL     1      -4.479  -0.356  24.042  0.00  0.00    -0.056 NA
ATOM     14  O   UNL     1      -4.925   0.330  24.146  0.00  0.00    -0.336 OA
ATOM     15  C   UNL     1      -4.694   0.680  24.857  0.00  0.00    +0.251 A 
ATOM     16  N   UNL     1      -4.105   0.211  25.192  0.00  0.00    -0.190 NA
ENDROOT
BRANCH  12   8
ATOM      6  C   UNL     1      -2.075  -1.479  24.943  0.00  0.00    +0.225 A 
ATOM      7  C   UNL     1      -2.619  -0.871  24.821  0.00  0.00    +0.061 A 
ATOM      8  C   UNL     1      -3.427  -1.037  24.811  0.00  0.00    +0.045 A 
ATOM      9  C   UNL     1      -3.691  -1.812  24.922  0.00  0.00    +0.024 A 
ATOM     10  C   UNL     1      -3.146  -2.419  25.044  0.00  0.00    +0.102 A 
ATOM     11  N   UNL     1      -2.338  -2.252  25.054  0.00  0.00    -0.210 NA
BRANCH   6   5
ATOM      5  O   UNL     1      -1.267  -1.312  24.953  0.00  0.00    -0.457 OA
BRANCH   5   4
ATOM      4  C   UNL     1      -0.880  -1.103  24.254  0.00  0.00    +0.239 C 
BRANCH   4   3
ATOM      3  C   UNL     1      -0.143  -0.736  24.284  0.00  0.00    +0.189 C 
BRANCH   3   2
ATOM      1  C   UNL     1       0.676  -0.030  23.349  0.00  0.00    +0.174 C 
ATOM      2  O   UNL     1       0.347  -0.737  23.619  0.00  0.00    -0.347 OA
ENDBRANCH   3   2
ENDBRANCH   4   3
ENDBRANCH   5   4
ENDBRANCH   6   5
ENDBRANCH  12   8
BRANCH  15  17
ATOM     17  C   UNL     1      -5.000   1.377  25.176  0.00  0.00    +0.138 C 
ATOM     18  C   UNL     1      -5.652   1.436  25.677  0.00  0.00    +0.027 C 
ATOM     19  C   UNL     1      -5.761   2.233  25.860  0.00  0.00    +0.019 C 
ATOM     20  C   UNL     1      -5.176   2.666  25.472  0.00  0.00    +0.073 C 
ATOM     21  N   UNL     1      -4.706   2.137  25.049  0.00  0.00    -0.260 NA
BRANCH  21  22
ATOM     22  C   UNL     1      -4.055   2.334  24.581  0.00  0.00    +0.138 C 
BRANCH  22  23
ATOM     23  C   UNL     1      -3.640   3.032  24.726  0.00  0.00    +0.139 A 
ATOM     24  C   UNL     1      -3.767   3.758  24.356  0.00  0.00    +0.037 A 
ATOM     25  C   UNL     1      -3.230   4.300  24.668  0.00  0.00    +0.038 A 
ATOM     26  C   UNL     1      -2.770   3.910  25.230  0.00  0.00    +0.156 A 
ATOM     29  O   UNL     1      -3.023   3.125  25.267  0.00  0.00    -0.458 OA
BRANCH  26  27
ATOM     27  C   UNL     1      -2.164   4.245  25.678  0.00  0.00    +0.246 C 
ATOM     28  O   UNL     1      -1.703   4.852  25.361  0.00  0.00    -0.212 OA
ENDBRANCH  26  27
ENDBRANCH  22  23
ENDBRANCH  21  22
ENDBRANCH  15  17
TORSDOF 9
ENDMDL
MODEL 4
REMARK VINA RESULT:      -9.2      1.641      3.926
REMARK  Name = 
REMARK  9 active torsions:
REMARK  status: ('A' for Active; 'I' for Inactive)
REMARK    1  A    between atoms: O_2  and  C_3
REMARK    2  A    between atoms: C_3  and  C_4
REMARK    3  A    between atoms: C_4  and  O_5
REMARK    4  A    between atoms: O_5  and  C_6
REMARK    5  A    between atoms: C_8  and  C_12
REMARK    6  A    between atoms: C_15  and  C_17
REMARK    7  A    between atoms: N_21  and  C_22
REMARK    8  A    between atoms: C_22  and  C_23
REMARK    9  A    between atoms: C_26  and  C_27
REMARK                            x       y       z     vdW  Elec       q    Type
REMARK                         _______ _______ _______ _____ _____    ______ ____
ROOT
ATOM     12  C   UNL     1      -3.100   3.595  24.819  0.00  0.00    +0.204 A 
ATOM     13  N   UNL     1      -3.608   3.848  24.221  0.00  0.00    -0.056 NA
ATOM     14  O   UNL     1      -4.307   3.415  24.280  0.00  0.00    -0.336 OA
ATOM     15  C   UNL     1      -4.231   2.894  24.915  0.00  0.00    +0.251 A 
ATOM     16  N   UNL     1      -3.485   3.004  25.248  0.00  0.00    -0.190 NA
ENDROOT
BRANCH  12   8
ATOM      6  C   UNL     1      -0.940   3.646  25.131  0.00  0.00    +0.225 A 
ATOM      7  C   UNL     1      -1.700   3.360  24.987  0.00  0.00    +0.061 A 
ATOM      8  C   UNL     1      -2.340   3.881  24.964  0.00  0.00    +0.045 A 
ATOM      9  C   UNL     1      -2.218   4.689  25.085  0.00  0.00    +0.024 A 
ATOM     10  C   UNL     1      -1.458   4.975  25.229  0.00  0.00    +0.102 A 
ATOM     11  N   UNL     1      -0.819   4.453  25.252  0.00  0.00    -0.210 NA
BRANCH   6   5
ATOM      5  O   UNL     1      -0.301   3.125  25.155  0.00  0.00    -0.457 OA
BRANCH   5   4
ATOM      4  C   UNL     1      -0.149   2.631  24.512  0.00  0.00    +0.239 C 
BRANCH   4   3
ATOM      3  C   UNL     1       0.338   1.971  24.603  0.00  0.00    +0.189 C 
BRANCH   3   2
ATOM      1  C   UNL     1       0.515   0.776  23.841  0.00  0.00    +0.174 C 
ATOM      2  O   UNL     1       0.641   1.586  23.940  0.00  0.00    -0.347 OA
ENDBRANCH   3   2
ENDBRANCH   4   3
ENDBRANCH   5   4
ENDBRANCH   6   5
ENDBRANCH  12   8
BRANCH  15  17
ATOM     17  C   UNL     1      -4.802   2.356  25.171  0.00  0.00    +0.138 C 
ATOM     18  C   UNL     1      -5.457   2.530  25.641  0.00  0.00    +0.027 C 
ATOM     19  C   UNL     1      -5.877   1.832  25.763  0.00  0.00    +0.019 C 
ATOM     20  C   UNL     1      -5.483   1.224  25.367  0.00  0.00    +0.073 C 
ATOM     21  N   UNL     1      -4.818   1.548  25.002  0.00  0.00    -0.260 NA
BRANCH  21  22
ATOM     22  C   UNL     1      -4.266   1.137  24.546  0.00  0.00    +0.138 C 
BRANCH  22  23
ATOM     23  C   UNL     1      -4.173   0.324  24.647  0.00  0.00    +0.139 A 
ATOM     24  C   UNL     1      -4.472  -0.264  24.151  0.00  0.00    +0.037 A 
ATOM     25  C   UNL     1      -4.248  -0.995  24.460  0.00  0.00    +0.038 A 
ATOM     26  C   UNL     1      -3.811  -0.860  25.146  0.00  0.00    +0.156 A 
ATOM     29  O   UNL     1      -3.765  -0.044  25.262  0.00  0.00    -0.458 OA
BRANCH  26  27
ATOM     27  C   UNL     1      -3.479  -1.438  25.631  0.00  0.00    +0.246 C 
ATOM     28  O   UNL     1      -3.451  -2.223  25.378  0.00  0.00    -0.212 OA
ENDBRANCH  26  27
ENDBRANCH  22  23
ENDBRANCH  21  22
ENDBRANCH  15  17
TORSDOF 9
ENDMDL
MODEL 5
REMARK VINA RESULT:      -9.1      0.752      4.781
REMARK  Name = 
REMARK  9 active torsions:
REMARK  status: ('A' for Active; 'I' for Inactive)
REMARK    1  A    between atoms: O_2  and  C_3
REMARK    2  A    between atoms: C_3  and  C_4
REMARK    3  A    between atoms: C_4  and  O_5
REMARK    4  A    between atoms: O_5  and  C_6
REMARK    5  A    between atoms: C_8  and  C_12
REMARK    6  A    between atoms: C_15  and  C_17
REMARK    7  A    between atoms: N_21  and  C_22
REMARK    8  A    between atoms: C_22  and  C_23
REMARK    9  A    between atoms: C_26  and  C_27
REMARK                            x       y       z     vdW  Elec       q    Type
REMARK                         _______ _______ _______ _____ _____    ______ ____
ROOT
ATOM     12  C   UNL     1      -0.428   1.552  24.996  0.00  0.00    +0.204 A 
ATOM     13  N   UNL     1      -0.162   1.745  25.753  0.00  0.00    -0.056 NA
ATOM     14  O   UNL     1      -0.436   2.501  25.933  0.00  0.00    -0.336 OA
ATOM     15  C   UNL     1      -0.872   2.775  25.289  0.00  0.00    +0.251 A 
ATOM     16  N   UNL     1      -0.867   2.189  24.710  0.00  0.00    -0.190 NA
ENDROOT
BRANCH  12   8
ATOM      6  C   UNL     1      -0.482  -0.562  24.454  0.00  0.00    +0.225 A 
ATOM      7  C   UNL     1      -0.630   0.144  24.854  0.00  0.00    +0.061 A 
ATOM      8  C   UNL     1      -0.280   0.845  24.596  0.00  0.00    +0.045 A 
ATOM      9  C   UNL     1       0.217   0.840  23.937  0.00  0.00    +0.024 A 
ATOM     10  C   UNL     1       0.364   0.133  23.537  0.00  0.00    +0.102 A 
ATOM     11  N   UNL     1       0.014  -0.568  23.797  0.00  0.00    -0.210 NA
BRANCH   6   5
ATOM      5  O   UNL     1      -0.833  -1.263  24.714  0.00  0.00    -0.457 OA
BRANCH   5   4
ATOM      4  C   UNL     1      -1.572  -1.486  24.423  0.00  0.00    +0.239 C 
BRANCH   4   3
ATOM      3  C   UNL     1      -1.953  -2.150  24.730  0.00  0.00    +0.189 C 
BRANCH   3   2
ATOM      1  C   UNL     1      -3.293  -2.647  24.701  0.00  0.00    +0.174 C 
ATOM      2  O   UNL     1      -2.578  -2.496  24.317  0.00  0.00    -0.347 OA
ENDBRANCH   3   2
ENDBRANCH   4   3
ENDBRANCH   5   4
ENDBRANCH   6   5
ENDBRANCH  12   8
BRANCH  15  17
ATOM     17  C   UNL     1      -1.248   3.508  25.234  0.00  0.00    +0.138 C 
ATOM     18  C   UNL     1      -0.876   4.237  25.128  0.00  0.00    +0.027 C 
ATOM     19  C   UNL     1      -1.460   4.819  25.104  0.00  0.00    +0.019 C 
ATOM     20  C   UNL     1      -2.193   4.450  25.194  0.00  0.00    +0.073 C 
ATOM     21  N   UNL     1      -2.061   3.640  25.275  0.00  0.00    -0.260 NA
BRANCH  21  22
ATOM     22  C   UNL     1      -2.642   3.063  25.378  0.00  0.00    +0.138 C 
BRANCH  22  23
ATOM     23  C   UNL     1      -3.429   3.235  25.202  0.00  0.00    +0.139 A 
ATOM     24  C   UNL     1      -3.775   3.220  24.453  0.00  0.00    +0.037 A 
ATOM     25  C   UNL     1      -4.568   3.428  24.535  0.00  0.00    +0.038 A 
ATOM     26  C   UNL     1      -4.715   3.572  25.333  0.00  0.00    +0.156 A 
ATOM     29  O   UNL     1      -4.010   3.453  25.747  0.00  0.00    -0.458 OA
BRANCH  26  27
ATOM     27  C   UNL     1      -5.437   3.796  25.661  0.00  0.00    +0.246 C 
ATOM     28  O   UNL     1      -5.914   3.234  26.032  0.00  0.00    -0.212 OA
ENDBRANCH  26  27
ENDBRANCH  22  23
ENDBRANCH  21  22
ENDBRANCH  15  17
TORSDOF 9
ENDMDL
MODEL 6
REMARK VINA RESULT:      -8.9      1.600      4.163
REMARK  Name = 
REMARK  9 active torsions:
REMARK  status: ('A' for Active; 'I' for Inactive)
REMARK    1  A    between atoms: O_2  and  C_3
REMARK    2  A    between atoms: C_3  and  C_4
REMARK    3  A    between atoms: C_4  and  O_5
REMARK    4  A    between atoms: O_5  and  C_6
REMARK    5  A    between atoms: C_8  and  C_12
REMARK    6  A    between atoms: C_15  and  C_17
REMARK    7  A    between atoms: N_21  and  C_22
REMARK    8  A    between atoms: C_22  and  C_23
REMARK    9  A    between atoms: C_26  and  C_27
REMARK                            x       y       z     vdW  Elec       q    Type
REMARK                         _______ _______ _______ _____ _____    ______ ____
ROOT
ATOM     12  C   UNL     1      -3.953   3.339  25.658  0.00  0.00    +0.204 A 
ATOM     13  N   UNL     1      -3.903   3.782  26.351  0.00  0.00    -0.056 NA
ATOM     14  O   UNL     1      -3.188   4.193  26.340  0.00  0.00    -0.336 OA
ATOM     15  C   UNL     1      -2.796   4.004  25.639  0.00  0.00    +0.251 A 
ATOM     16  N   UNL     1      -3.268   3.476  25.217  0.00  0.00    -0.190 NA
ENDROOT
BRANCH  12   8
ATOM      6  C   UNL     1      -5.050   1.631  24.853  0.00  0.00    +0.225 A 
ATOM      7  C   UNL     1      -4.425   2.125  25.069  0.00  0.00    +0.061 A 
ATOM      8  C   UNL     1      -4.578   2.845  25.442  0.00  0.00    +0.045 A 
ATOM      9  C   UNL     1      -5.356   3.071  25.599  0.00  0.00    +0.024 A 
ATOM     10  C   UNL     1      -5.981   2.577  25.383  0.00  0.00    +0.102 A 
ATOM     11  N   UNL     1      -5.827   1.857  25.010  0.00  0.00    -0.210 NA
BRANCH   6   5
ATOM      5  O   UNL     1      -4.896   0.912  24.480  0.00  0.00    -0.457 OA
BRANCH   5   4
ATOM      4  C   UNL     1      -4.516   0.306  24.893  0.00  0.00    +0.239 C 
BRANCH   4   3
ATOM      3  C   UNL     1      -4.311  -0.392  24.506  0.00  0.00    +0.189 C 
BRANCH   3   2
ATOM      1  C   UNL     1      -3.765  -1.711  24.563  0.00  0.00    +0.174 C 
ATOM      2  O   UNL     1      -4.099  -1.060  24.943  0.00  0.00    -0.347 OA
ENDBRANCH   3   2
ENDBRANCH   4   3
ENDBRANCH   5   4
ENDBRANCH   6   5
ENDBRANCH  12   8
BRANCH  15  17
ATOM     17  C   UNL     1      -2.060   4.293  25.402  0.00  0.00    +0.138 C 
ATOM     18  C   UNL     1      -1.914   5.032  25.068  0.00  0.00    +0.027 C 
ATOM     19  C   UNL     1      -1.105   5.089  24.917  0.00  0.00    +0.019 C 
ATOM     20  C   UNL     1      -0.751   4.383  25.158  0.00  0.00    +0.073 C 
ATOM     21  N   UNL     1      -1.341   3.891  25.458  0.00  0.00    -0.260 NA
BRANCH  21  22
ATOM     22  C   UNL     1      -1.232   3.131  25.760  0.00  0.00    +0.138 C 
BRANCH  22  23
ATOM     23  C   UNL     1      -0.676   2.628  25.418  0.00  0.00    +0.139 A 
ATOM     24  C   UNL     1       0.080   2.469  25.708  0.00  0.00    +0.037 A 
ATOM     25  C   UNL     1       0.444   1.938  25.194  0.00  0.00    +0.038 A 
ATOM     26  C   UNL     1      -0.085   1.768  24.585  0.00  0.00    +0.156 A 
ATOM     29  O   UNL     1      -0.778   2.194  24.723  0.00  0.00    -0.458 OA
BRANCH  26  27
ATOM     27  C   UNL     1       0.054   1.261  23.950  0.00  0.00    +0.246 C 
ATOM     28  O   UNL     1      -0.057   0.448  24.038  0.00  0.00    -0.212 OA
ENDBRANCH  26  27
ENDBRANCH  22  23
ENDBRANCH  21  22
ENDBRANCH  15  17
TORSDOF 9
ENDMDL
MODEL 7
REMARK VINA RESULT:      -8.6      1.599      5.360
REMARK  Name = 
REMARK  9 active torsions:
REMARK  status: ('A' for Active; 'I' for Inactive)
REMARK    1  A    between atoms: O_2  and  C_3
REMARK    2  A    between atoms: C_3  and  C_4
REMARK    3  A    between atoms: C_4  and  O_5
REMARK    4  A    between atoms: O_5  and  C_6
REMARK    5  A    between atoms: C_8  and  C_12
REMARK    6  A    between atoms: C_15  and  C_17
REMARK    7  A    between atoms: N_21  and  C_22
REMARK    8  A    between atoms: C_22  and  C_23
REMARK    9  A    between atoms: C_26  and  C_27
REMARK                            x       y       z     vdW  Elec       q    Type
REMARK                         _______ _______ _______ _____ _____    ______ ____
ROOT
ATOM     12  C   UNL     1      -0.510   1.307  24.966  0.00  0.00    +0.204 A 
ATOM     13  N   UNL     1      -0.380   1.433  25.771  0.00  0.00    -0.056 NA
ATOM     14  O   UNL     1      -0.678   2.177  25.964  0.00  0.00    -0.336 OA
ATOM     15  C   UNL     1      -0.992   2.511  25.279  0.00  0.00    +0.251 A 
ATOM     16  N   UNL     1      -0.889   1.974  24.662  0.00  0.00    -0.190 NA
ENDROOT
BRANCH  12   8
ATOM      6  C   UNL     1       0.462   0.013  23.501  0.00  0.00    +0.225 A 
ATOM      7  C   UNL     1       0.251   0.687  23.927  0.00  0.00    +0.061 A 
ATOM      8  C   UNL     1      -0.299   0.633  24.540  0.00  0.00    +0.045 A 
ATOM      9  C   UNL     1      -0.637  -0.097  24.727  0.00  0.00    +0.024 A 
ATOM     10  C   UNL     1      -0.426  -0.771  24.301  0.00  0.00    +0.102 A 
ATOM     11  N   UNL     1       0.124  -0.715  23.688  0.00  0.00    -0.210 NA
BRANCH   6   5
ATOM      5  O   UNL     1       1.012   0.069  22.888  0.00  0.00    -0.457 OA
BRANCH   5   4
ATOM      4  C   UNL     1       1.818   0.014  23.052  0.00  0.00    +0.239 C 
BRANCH   4   3
ATOM      3  C   UNL     1       2.372   0.182  22.463  0.00  0.00    +0.189 C 
BRANCH   3   2
ATOM      1  C   UNL     1       3.705   0.687  22.551  0.00  0.00    +0.174 C 
ATOM      2  O   UNL     1       3.175   0.057  22.604  0.00  0.00    -0.347 OA
ENDBRANCH   3   2
ENDBRANCH   4   3
ENDBRANCH   5   4
ENDBRANCH   6   5
ENDBRANCH  12   8
BRANCH  15  17
ATOM     17  C   UNL     1      -1.348   3.254  25.221  0.00  0.00    +0.138 C 
ATOM     18  C   UNL     1      -0.961   3.981  25.253  0.00  0.00    +0.027 C 
ATOM     19  C   UNL     1      -1.527   4.575  25.172  0.00  0.00    +0.019 C 
ATOM     20  C   UNL     1      -2.265   4.215  25.091  0.00  0.00    +0.073 C 
ATOM     21  N   UNL     1      -2.154   3.398  25.121  0.00  0.00    -0.260 NA
BRANCH  21  22
ATOM     22  C   UNL     1      -2.746   2.826  25.061  0.00  0.00    +0.138 C 
BRANCH  22  23
ATOM     23  C   UNL     1      -3.537   3.055  25.011  0.00  0.00    +0.139 A 
ATOM     24  C   UNL     1      -3.954   3.211  24.317  0.00  0.00    +0.037 A 
ATOM     25  C   UNL     1      -4.724   3.421  24.524  0.00  0.00    +0.038 A 
ATOM     26  C   UNL     1      -4.784   3.395  25.346  0.00  0.00    +0.156 A 
ATOM     29  O   UNL     1      -4.049   3.168  25.648  0.00  0.00    -0.458 OA
BRANCH  26  27
ATOM     27  C   UNL     1      -5.458   3.565  25.789  0.00  0.00    +0.246 C 
ATOM     28  O   UNL     1      -5.862   2.958  26.176  0.00  0.00    -0.212 OA
ENDBRANCH  26  27
ENDBRANCH  22  23
ENDBRANCH  21  22
ENDBRANCH  15  17
TORSDOF 9
ENDMDL
