MODEL 1
REMARK VINA RESULT:     -15.7      0.000      0.000
REMARK  Name = 
REMARK  3 active torsions:
REMARK  status: ('A' for Active; 'I' for Inactive)
REMARK    1  A    between atoms: C_5  and  S_8
REMARK    2  A    between atoms: S_8  and  N_11
REMARK    3  A    between atoms: C_20  and  C_25
REMARK                            x       y       z     vdW  Elec       q    Type
REMARK                         _______ _______ _______ _____ _____    ______ ____
ROOT
ATOM     11  N   UNL     1      -2.916   2.482  24.671  0.00  0.00    -0.155 NA
ATOM     12  C   UNL     1      -2.980   3.315  24.657  0.00  0.00    +0.098 C 
ATOM     13  C   UNL     1      -3.956   3.407  24.784  0.00  0.00    +0.041 C 
ATOM     14  C   UNL     1      -4.727   3.650  24.881  0.00  0.00    +0.011 C 
ATOM     15  C   UNL     1      -4.374   3.045  24.851  0.00  0.00    +0.056 C 
ATOM     16  C   UNL     1      -3.430   2.972  24.726  0.00  0.00    +0.102 C 
ATOM     17  C   UNL     1      -4.498   2.135  24.893  0.00  0.00    +0.041 A 
ATOM     18  C   UNL     1      -5.095   1.574  24.989  0.00  0.00    +0.013 A 
ATOM     19  C   UNL     1      -4.909   0.770  24.987  0.00  0.00    +0.006 A 
ATOM     20  C   UNL     1      -4.127   0.528  24.889  0.00  0.00    +0.056 A 
ATOM     21  C   UNL     1      -3.530   1.089  24.793  0.00  0.00    +0.261 A 
ATOM     22  O   UNL     1      -2.747   0.846  24.695  0.00  0.00    -0.267 OA
ATOM     23  N   UNL     1      -3.716   1.892  24.795  0.00  0.00    -0.299 N 
ATOM     24  C   UNL     1      -4.076   2.456  24.827  0.00  0.00    +0.110 C 
ENDROOT
BRANCH  20  25
ATOM     25  C   UNL     1      -3.942  -0.276  24.887  0.00  0.00    +0.005 A 
ATOM     26  C   UNL     1      -3.964  -0.702  24.181  0.00  0.00    +0.001 A 
ATOM     27  C   UNL     1      -3.780  -1.506  24.178  0.00  0.00    +0.011 A 
ATOM     28  C   UNL     1      -3.572  -1.884  24.881  0.00  0.00    +0.058 A 
ATOM     29 CL   UNL     1      -3.387  -2.689  24.879  0.00  0.00    -0.082 Cl
ATOM     30  C   UNL     1      -3.550  -1.459  25.588  0.00  0.00    +0.011 A 
ATOM     31  C   UNL     1      -3.735  -0.654  25.590  0.00  0.00    +0.001 A 
ENDBRANCH  20  25
BRANCH  11   8
ATOM      8  S   UNL     1      -2.562   1.737  24.645  0.00  0.00    +0.063 S 
ATOM      9  O   UNL     1      -2.684   1.708  23.829  0.00  0.00    -0.153 OA
ATOM     10  O   UNL     1      -2.440   1.766  25.461  0.00  0.00    -0.153 OA
BRANCH   8   5
ATOM      1  F   UNL     1      -1.146  -1.243  24.541  0.00  0.00    -0.204 F 
ATOM      2  C   UNL     1      -1.500  -0.497  24.567  0.00  0.00    +0.140 A 
ATOM      3  C   UNL     1      -1.579  -0.104  25.287  0.00  0.00    +0.031 A 
ATOM      4  C   UNL     1      -1.933   0.641  25.313  0.00  0.00    +0.022 A 
ATOM      5  C   UNL     1      -2.208   0.992  24.619  0.00  0.00    +0.122 A 
ATOM      6  C   UNL     1      -2.129   0.598  23.899  0.00  0.00    +0.022 A 
ATOM      7  C   UNL     1      -1.775  -0.147  23.872  0.00  0.00    +0.031 A 
ENDBRANCH   8   5
ENDBRANCH  11   8
TORSDOF 3
ENDMDL
MODEL 2
REMARK VINA RESULT:     -15.3      1.142      2.221
REMARK  Name = 
REMARK  3 active torsions:
REMARK  status: ('A' for Active; 'I' for Inactive)
REMARK    1  A    between atoms: C_5  and  S_8
REMARK    2  A    between atoms: S_8  and  N_11
REMARK    3  A    between atoms: C_20  and  C_25
REMARK                            x       y       z     vdW  Elec       q    Type
REMARK                         _______ _______ _______ _____ _____    ______ ____
ROOT
ATOM     11  N   UNL     1      -4.640   1.152  24.732  0.00  0.00    -0.155 NA
ATOM     12  C   UNL     1      -5.221   1.746  24.652  0.00  0.00    +0.098 C 
ATOM     13  C   UNL     1      -4.641   2.546  24.649  0.00  0.00    +0.041 C 
ATOM     14  C   UNL     1      -4.310   3.290  24.630  0.00  0.00    +0.011 C 
ATOM     15  C   UNL     1      -4.091   2.626  24.686  0.00  0.00    +0.056 C 
ATOM     16  C   UNL     1      -4.664   1.862  24.688  0.00  0.00    +0.102 C 
ATOM     17  C   UNL     1      -3.326   2.124  24.775  0.00  0.00    +0.041 A 
ATOM     18  C   UNL     1      -2.507   2.209  24.832  0.00  0.00    +0.013 A 
ATOM     19  C   UNL     1      -2.028   1.542  24.909  0.00  0.00    +0.006 A 
ATOM     20  C   UNL     1      -2.367   0.790  24.927  0.00  0.00    +0.056 A 
ATOM     21  C   UNL     1      -3.186   0.705  24.870  0.00  0.00    +0.261 A 
ATOM     22  O   UNL     1      -3.525  -0.047  24.889  0.00  0.00    -0.267 OA
ATOM     23  N   UNL     1      -3.665   1.372  24.793  0.00  0.00    -0.299 N 
ATOM     24  C   UNL     1      -3.848   2.014  24.741  0.00  0.00    +0.110 C 
ENDROOT
BRANCH  20  25
ATOM     25  C   UNL     1      -1.888   0.124  25.004  0.00  0.00    +0.005 A 
ATOM     26  C   UNL     1      -1.703  -0.168  25.754  0.00  0.00    +0.001 A 
ATOM     27  C   UNL     1      -1.223  -0.834  25.831  0.00  0.00    +0.011 A 
ATOM     28  C   UNL     1      -0.928  -1.210  25.159  0.00  0.00    +0.058 A 
ATOM     29 CL   UNL     1      -0.447  -1.877  25.236  0.00  0.00    -0.082 Cl
ATOM     30  C   UNL     1      -1.112  -0.919  24.409  0.00  0.00    +0.011 A 
ATOM     31  C   UNL     1      -1.592  -0.252  24.331  0.00  0.00    +0.001 A 
ENDBRANCH  20  25
BRANCH  11   8
ATOM      8  S   UNL     1      -4.317   0.396  24.802  0.00  0.00    +0.063 S 
ATOM      9  O   UNL     1      -4.227   0.358  23.982  0.00  0.00    -0.153 OA
ATOM     10  O   UNL     1      -4.406   0.433  25.621  0.00  0.00    -0.153 OA
BRANCH   8   5
ATOM      1  F   UNL     1      -3.024  -2.628  25.080  0.00  0.00    -0.204 F 
ATOM      2  C   UNL     1      -3.348  -1.872  25.011  0.00  0.00    +0.140 A 
ATOM      3  C   UNL     1      -3.478  -1.547  24.264  0.00  0.00    +0.031 A 
ATOM      4  C   UNL     1      -3.801  -0.790  24.194  0.00  0.00    +0.022 A 
ATOM      5  C   UNL     1      -3.993  -0.361  24.871  0.00  0.00    +0.122 A 
ATOM      6  C   UNL     1      -3.863  -0.686  25.618  0.00  0.00    +0.022 A 
ATOM      7  C   UNL     1      -3.540  -1.442  25.688  0.00  0.00    +0.031 A 
ENDBRANCH   8   5
ENDBRANCH  11   8
TORSDOF 3
ENDMDL
MODEL 3
REMARK VINA RESULT:     -15.2      2.053      3.834
REMARK  Name = 
REMARK  3 active torsions:
REMARK  status: ('A' for Active; 'I' for Inactive)
REMARK    1  A    between atoms: C_5  and  S_8
REMARK    2  A    between atoms: S_8  and  N_11
REMARK    3  A    between atoms: C_20  and  C_25
REMARK                            x       y       z     vdW  Elec       q    Type
REMARK                         _______ _______ _______ _____ _____    ______ ____
ROOT
ATOM     11  N   UNL     1      -3.986   0.120  24.491  0.00  0.00    -0.155 NA
ATOM     12  C   UNL     1      -4.330  -0.640  24.455  0.00  0.00    +0.098 C 
ATOM     13  C   UNL     1      -3.574  -1.180  24.794  0.00  0.00    +0.041 C 
ATOM     14  C   UNL     1      -3.057  -1.755  25.050  0.00  0.00    +0.011 C 
ATOM     15  C   UNL     1      -3.058  -1.058  24.967  0.00  0.00    +0.056 C 
ATOM     16  C   UNL     1      -3.797  -0.551  24.639  0.00  0.00    +0.102 C 
ATOM     17  C   UNL     1      -2.523  -0.318  25.075  0.00  0.00    +0.041 A 
ATOM     18  C   UNL     1      -1.766  -0.106  25.325  0.00  0.00    +0.013 A 
ATOM     19  C   UNL     1      -1.536   0.686  25.316  0.00  0.00    +0.006 A 
ATOM     20  C   UNL     1      -2.062   1.266  25.056  0.00  0.00    +0.056 A 
ATOM     21  C   UNL     1      -2.819   1.054  24.806  0.00  0.00    +0.261 A 
ATOM     22  O   UNL     1      -3.345   1.634  24.546  0.00  0.00    -0.267 OA
ATOM     23  N   UNL     1      -3.049   0.262  24.815  0.00  0.00    -0.299 N 
ATOM     24  C   UNL     1      -3.022  -0.401  24.903  0.00  0.00    +0.110 C 
ENDROOT
BRANCH  20  25
ATOM     25  C   UNL     1      -1.831   2.057  25.047  0.00  0.00    +0.005 A 
ATOM     26  C   UNL     1      -1.466   2.372  24.377  0.00  0.00    +0.001 A 
ATOM     27  C   UNL     1      -1.235   3.164  24.367  0.00  0.00    +0.011 A 
ATOM     28  C   UNL     1      -1.368   3.641  25.027  0.00  0.00    +0.058 A 
ATOM     29 CL   UNL     1      -1.136   4.433  25.018  0.00  0.00    -0.082 Cl
ATOM     30  C   UNL     1      -1.732   3.326  25.698  0.00  0.00    +0.011 A 
ATOM     31  C   UNL     1      -1.964   2.534  25.707  0.00  0.00    +0.001 A 
ENDBRANCH  20  25
BRANCH  11   8
ATOM      8  S   UNL     1      -3.921   0.940  24.418  0.00  0.00    +0.063 S 
ATOM      9  O   UNL     1      -3.619   0.848  23.655  0.00  0.00    -0.153 OA
ATOM     10  O   UNL     1      -4.223   1.031  25.181  0.00  0.00    -0.153 OA
BRANCH   8   5
ATOM      1  F   UNL     1      -3.664   4.217  24.127  0.00  0.00    -0.204 F 
ATOM      2  C   UNL     1      -3.728   3.397  24.200  0.00  0.00    +0.140 A 
ATOM      3  C   UNL     1      -4.007   3.067  24.902  0.00  0.00    +0.031 A 
ATOM      4  C   UNL     1      -4.071   2.247  24.975  0.00  0.00    +0.022 A 
ATOM      5  C   UNL     1      -3.857   1.759  24.345  0.00  0.00    +0.122 A 
ATOM      6  C   UNL     1      -3.578   2.090  23.643  0.00  0.00    +0.022 A 
ATOM      7  C   UNL     1      -3.514   2.910  23.570  0.00  0.00    +0.031 A 
ENDBRANCH   8   5
ENDBRANCH  11   8
TORSDOF 3
ENDMDL
MODEL 4
REMARK VINA RESULT:     -15.2      1.886      3.584
REMARK  Name = 
REMARK  3 active torsions:
REMARK  status: ('A' for Active; 'I' for Inactive)
REMARK    1  A    between atoms: C_5  and  S_8
REMARK    2  A    between atoms: S_8  and  N_11
REMARK    3  A    between atoms: C_20  and  C_25
REMARK                            x       y       z     vdW  Elec       q    Type
REMARK                         _______ _______ _______ _____ _____    ______ ____
ROOT
ATOM     11  N   UNL     1      -2.019  -1.372  24.790  0.00  0.00    -0.155 NA
ATOM     12  C   UNL     1      -1.901  -2.195  24.870  0.00  0.00    +0.098 C 
ATOM     13  C   UNL     1      -2.814  -2.513  24.668  0.00  0.00    +0.041 C 
ATOM     14  C   UNL     1      -3.500  -2.930  24.527  0.00  0.00    +0.011 C 
ATOM     15  C   UNL     1      -3.293  -2.259  24.536  0.00  0.00    +0.056 C 
ATOM     16  C   UNL     1      -2.405  -1.967  24.733  0.00  0.00    +0.102 C 
ATOM     17  C   UNL     1      -3.608  -1.406  24.406  0.00  0.00    +0.041 A 
ATOM     18  C   UNL     1      -4.300  -1.001  24.212  0.00  0.00    +0.013 A 
ATOM     19  C   UNL     1      -4.295  -0.178  24.161  0.00  0.00    +0.006 A 
ATOM     20  C   UNL     1      -3.599   0.241  24.304  0.00  0.00    +0.056 A 
ATOM     21  C   UNL     1      -2.907  -0.164  24.498  0.00  0.00    +0.261 A 
ATOM     22  O   UNL     1      -2.210   0.255  24.641  0.00  0.00    -0.267 OA
ATOM     23  N   UNL     1      -2.911  -0.987  24.549  0.00  0.00    -0.299 N 
ATOM     24  C   UNL     1      -3.134  -1.618  24.534  0.00  0.00    +0.110 C 
ENDROOT
BRANCH  20  25
ATOM     25  C   UNL     1      -3.595   1.064  24.254  0.00  0.00    +0.005 A 
ATOM     26  C   UNL     1      -3.780   1.518  24.917  0.00  0.00    +0.001 A 
ATOM     27  C   UNL     1      -3.777   2.342  24.867  0.00  0.00    +0.011 A 
ATOM     28  C   UNL     1      -3.589   2.711  24.154  0.00  0.00    +0.058 A 
ATOM     29 CL   UNL     1      -3.585   3.535  24.104  0.00  0.00    -0.082 Cl
ATOM     30  C   UNL     1      -3.404   2.257  23.490  0.00  0.00    +0.011 A 
ATOM     31  C   UNL     1      -3.407   1.433  23.540  0.00  0.00    +0.001 A 
ENDBRANCH  20  25
BRANCH  11   8
ATOM      8  S   UNL     1      -1.841  -0.566  24.783  0.00  0.00    +0.063 S 
ATOM      9  O   UNL     1      -2.045  -0.514  25.581  0.00  0.00    -0.153 OA
ATOM     10  O   UNL     1      -1.637  -0.618  23.985  0.00  0.00    -0.153 OA
BRANCH   8   5
ATOM      1  F   UNL     1      -1.129   2.656  24.754  0.00  0.00    -0.204 F 
ATOM      2  C   UNL     1      -1.307   1.850  24.761  0.00  0.00    +0.140 A 
ATOM      3  C   UNL     1      -1.561   1.491  25.458  0.00  0.00    +0.031 A 
ATOM      4  C   UNL     1      -1.739   0.685  25.466  0.00  0.00    +0.022 A 
ATOM      5  C   UNL     1      -1.663   0.240  24.776  0.00  0.00    +0.122 A 
ATOM      6  C   UNL     1      -1.409   0.600  24.078  0.00  0.00    +0.022 A 
ATOM      7  C   UNL     1      -1.231   1.406  24.071  0.00  0.00    +0.031 A 
ENDBRANCH   8   5
ENDBRANCH  11   8
TORSDOF 3
ENDMDL
MODEL 5
REMARK VINA RESULT:     -15.0      2.211      3.283
REMARK  Name = 
REMARK  3 active torsions:
REMARK  status: ('A' for Active; 'I' for Inactive)
REMARK    1  A    between atoms: C_5  and  S_8
REMARK    2  A    between atoms: S_8  and  N_11
REMARK    3  A    between atoms: C_20  and  C_25
REMARK                            x       y       z     vdW  Elec       q    Type
REMARK                         _______ _______ _______ _____ _____    ______ ____
ROOT
ATOM     11  N   UNL     1      -4.767   3.249  25.405  0.00  0.00    -0.155 NA
ATOM     12  C   UNL     1      -5.593   3.278  25.523  0.00  0.00    +0.098 C 
ATOM     13  C   UNL     1      -5.831   2.356  25.260  0.00  0.00    +0.041 C 
ATOM     14  C   UNL     1      -6.185   1.645  25.080  0.00  0.00    +0.011 C 
ATOM     15  C   UNL     1      -5.538   1.916  25.082  0.00  0.00    +0.056 C 
ATOM     16  C   UNL     1      -5.324   2.811  25.339  0.00  0.00    +0.102 C 
ATOM     17  C   UNL     1      -4.664   1.698  24.898  0.00  0.00    +0.041 A 
ATOM     18  C   UNL     1      -4.204   1.066  24.637  0.00  0.00    +0.013 A 
ATOM     19  C   UNL     1      -3.387   1.155  24.559  0.00  0.00    +0.006 A 
ATOM     20  C   UNL     1      -3.032   1.877  24.742  0.00  0.00    +0.056 A 
ATOM     21  C   UNL     1      -3.492   2.509  25.003  0.00  0.00    +0.261 A 
ATOM     22  O   UNL     1      -3.137   3.231  25.186  0.00  0.00    -0.267 OA
ATOM     23  N   UNL     1      -4.309   2.419  25.081  0.00  0.00    -0.299 N 
ATOM     24  C   UNL     1      -4.916   2.137  25.071  0.00  0.00    +0.110 C 
ENDROOT
BRANCH  20  25
ATOM     25  C   UNL     1      -2.216   1.965  24.663  0.00  0.00    +0.005 A 
ATOM     26  C   UNL     1      -1.719   1.792  25.299  0.00  0.00    +0.001 A 
ATOM     27  C   UNL     1      -0.903   1.881  25.222  0.00  0.00    +0.011 A 
ATOM     28  C   UNL     1      -0.583   2.142  24.508  0.00  0.00    +0.058 A 
ATOM     29 CL   UNL     1       0.235   2.230  24.430  0.00  0.00    -0.082 Cl
ATOM     30  C   UNL     1      -1.078   2.315  23.871  0.00  0.00    +0.011 A 
ATOM     31  C   UNL     1      -1.896   2.227  23.949  0.00  0.00    +0.001 A 
ENDBRANCH  20  25
BRANCH  11   8
ATOM      8  S   UNL     1      -3.983   3.506  25.385  0.00  0.00    +0.063 S 
ATOM      9  O   UNL     1      -4.081   3.743  24.600  0.00  0.00    -0.153 OA
ATOM     10  O   UNL     1      -3.884   3.269  26.169  0.00  0.00    -0.153 OA
BRANCH   8   5
ATOM      1  F   UNL     1      -0.847   4.532  25.302  0.00  0.00    -0.204 F 
ATOM      2  C   UNL     1      -1.631   4.276  25.322  0.00  0.00    +0.140 A 
ATOM      3  C   UNL     1      -1.935   3.934  26.009  0.00  0.00    +0.031 A 
ATOM      4  C   UNL     1      -2.719   3.678  26.030  0.00  0.00    +0.022 A 
ATOM      5  C   UNL     1      -3.198   3.763  25.364  0.00  0.00    +0.122 A 
ATOM      6  C   UNL     1      -2.894   4.104  24.677  0.00  0.00    +0.022 A 
ATOM      7  C   UNL     1      -2.110   4.361  24.657  0.00  0.00    +0.031 A 
ENDBRANCH   8   5
ENDBRANCH  11   8
TORSDOF 3
ENDMDL
