MODEL 1
REMARK VINA RESULT:     -13.1      0.000      0.000
REMARK  Name = 
REMARK  5 active torsions:
REMARK  status: ('A' for Active; 'I' for Inactive)
REMARK    1  A    between atoms: C_6  and  N_7
REMARK    2  A    between atoms: N_10  and  C_11
REMARK    3  A    between atoms: C_16  and  C_17
REMARK    4  A    between atoms: C_17  and  C_18
REMARK    5  A    between atoms: C_18  and  C_19
REMARK                            x       y       z     vdW  Elec       q    Type
REMARK                         _______ _______ _______ _____ _____    ______ ____
ROOT
ATOM     11  C   UNL     1      -0.980   0.599  25.301  0.00  0.00    +0.115 C 
ATOM     12  C   UNL     1      -0.329   0.813  24.842  0.00  0.00    +0.049 C 
ATOM     13  C   UNL     1      -0.320   1.635  24.782  0.00  0.00    +0.138 C 
ATOM     14  N   UNL     1      -0.965   1.930  25.203  0.00  0.00    -0.265 NA
ATOM     15  C   UNL     1      -1.374   1.289  25.524  0.00  0.00    +0.094 C 
ATOM     16  C   UNL     1      -1.097   2.743  25.240  0.00  0.00    +0.080 C 
ATOM     27  C   UNL     1      -0.584   3.262  24.856  0.00  0.00    +0.131 C 
ATOM     28  N   UNL     1       0.061   2.968  24.435  0.00  0.00    -0.203 NA
ATOM     29  C   UNL     1       0.194   2.155  24.398  0.00  0.00    +0.256 C 
ATOM     30  O   UNL     1       0.840   1.861  23.976  0.00  0.00    -0.272 OA
ENDROOT
BRANCH  11  10
ATOM      7  N   UNL     1      -2.045  -1.307  25.307  0.00  0.00    -0.159 NA
ATOM      8  C   UNL     1      -1.825  -0.538  25.107  0.00  0.00    +0.344 C 
ATOM      9  O   UNL     1      -2.230  -0.135  24.511  0.00  0.00    -0.249 OA
ATOM     10  N   UNL     1      -1.200  -0.171  25.501  0.00  0.00    -0.187 NA
BRANCH   7   6
ATOM      1  F   UNL     1      -4.542  -2.774  23.725  0.00  0.00    -0.204 F 
ATOM      2  C   UNL     1      -3.918  -2.407  24.121  0.00  0.00    +0.142 A 
ATOM      3  C   UNL     1      -3.186  -2.783  24.174  0.00  0.00    +0.061 A 
ATOM      4  C   UNL     1      -2.562  -2.416  24.569  0.00  0.00    +0.158 A 
ATOM      5  F   UNL     1      -1.829  -2.793  24.622  0.00  0.00    -0.203 F 
ATOM      6  C   UNL     1      -2.670  -1.673  24.912  0.00  0.00    +0.102 A 
ATOM     31  C   UNL     1      -3.401  -1.298  24.859  0.00  0.00    +0.021 A 
ATOM     32  C   UNL     1      -4.026  -1.664  24.464  0.00  0.00    +0.031 A 
ENDBRANCH   7   6
ENDBRANCH  11  10
BRANCH  16  17
ATOM     17  C   UNL     1      -1.742   3.038  25.661  0.00  0.00    +0.027 C 
BRANCH  17  18
ATOM     18  C   UNL     1      -2.396   3.338  25.258  0.00  0.00    +0.087 C 
BRANCH  18  19
ATOM     19  C   UNL     1      -3.035   3.647  25.679  0.00  0.00    +0.226 C 
ATOM     20  O   UNL     1      -2.902   4.146  26.322  0.00  0.00    -0.275 OA
ATOM     21  N   UNL     1      -3.806   3.456  25.458  0.00  0.00    -0.280 N 
ATOM     22  C   UNL     1      -4.444   3.765  25.879  0.00  0.00    +0.093 C 
ATOM     23  C   UNL     1      -5.216   3.574  25.657  0.00  0.00    +0.022 C 
ATOM     24  C   UNL     1      -5.348   3.074  25.014  0.00  0.00    +0.004 C 
ATOM     25  C   UNL     1      -4.710   2.765  24.593  0.00  0.00    +0.022 C 
ATOM     26  C   UNL     1      -3.939   2.956  24.815  0.00  0.00    +0.093 C 
ENDBRANCH  18  19
ENDBRANCH  17  18
ENDBRANCH  16  17
TORSDOF 5
ENDMDL
MODEL 2
REMARK VINA RESULT:     -13.0      1.561      3.588
REMARK  Name = 
REMARK  5 active torsions:
REMARK  status: ('A' for Active; 'I' for Inactive)
REMARK    1  A    between atoms: C_6  and  N_7
REMARK    2  A    between atoms: N_10  and  C_11
REMARK    3  A    between atoms: C_16  and  C_17
REMARK    4  A    between atoms: C_17  and  C_18
REMARK    5  A    between atoms: C_18  and  C_19
REMARK                            x       y       z     vdW  Elec       q    Type
REMARK                         _______ _______ _______ _____ _____    ______ ____
ROOT
ATOM     11  C   UNL     1      -4.750   1.419  24.623  0.00  0.00    +0.115 C 
ATOM     12  C   UNL     1      -5.349   1.679  25.127  0.00  0.00    +0.049 C 
ATOM     13  C   UNL     1      -5.122   2.408  25.437  0.00  0.00    +0.138 C 
ATOM     14  N   UNL     1      -4.383   2.599  25.125  0.00  0.00    -0.265 NA
ATOM     15  C   UNL     1      -4.153   1.988  24.622  0.00  0.00    +0.094 C 
ATOM     16  C   UNL     1      -4.015   3.306  25.340  0.00  0.00    +0.080 C 
ATOM     27  C   UNL     1      -4.385   3.821  25.867  0.00  0.00    +0.131 C 
ATOM     28  N   UNL     1      -5.125   3.630  26.179  0.00  0.00    -0.203 NA
ATOM     29  C   UNL     1      -5.494   2.924  25.965  0.00  0.00    +0.256 C 
ATOM     30  O   UNL     1      -6.233   2.733  26.277  0.00  0.00    -0.272 OA
ENDROOT
BRANCH  11  10
ATOM      7  N   UNL     1      -4.401  -0.669  24.088  0.00  0.00    -0.159 NA
ATOM      8  C   UNL     1      -4.403   0.037  24.516  0.00  0.00    +0.344 C 
ATOM      9  O   UNL     1      -4.058   0.066  25.266  0.00  0.00    -0.249 OA
ATOM     10  N   UNL     1      -4.749   0.713  24.195  0.00  0.00    -0.187 NA
BRANCH   7   6
ATOM      1  F   UNL     1      -3.016  -3.375  25.373  0.00  0.00    -0.204 F 
ATOM      2  C   UNL     1      -3.362  -2.698  25.052  0.00  0.00    +0.142 A 
ATOM      3  C   UNL     1      -3.736  -2.735  24.317  0.00  0.00    +0.061 A 
ATOM      4  C   UNL     1      -4.082  -2.058  23.996  0.00  0.00    +0.158 A 
ATOM      5  F   UNL     1      -4.456  -2.095  23.261  0.00  0.00    -0.203 F 
ATOM      6  C   UNL     1      -4.055  -1.345  24.410  0.00  0.00    +0.102 A 
ATOM     31  C   UNL     1      -3.681  -1.308  25.144  0.00  0.00    +0.021 A 
ATOM     32  C   UNL     1      -3.334  -1.985  25.465  0.00  0.00    +0.031 A 
ENDBRANCH   7   6
ENDBRANCH  11  10
BRANCH  16  17
ATOM     17  C   UNL     1      -3.275   3.497  25.028  0.00  0.00    +0.027 C 
BRANCH  17  18
ATOM     18  C   UNL     1      -2.618   3.548  25.524  0.00  0.00    +0.087 C 
BRANCH  18  19
ATOM     19  C   UNL     1      -1.888   3.784  25.220  0.00  0.00    +0.226 C 
ATOM     20  O   UNL     1      -1.849   4.403  24.678  0.00  0.00    -0.275 OA
ATOM     21  N   UNL     1      -1.199   3.399  25.459  0.00  0.00    -0.280 N 
ATOM     22  C   UNL     1      -0.470   3.635  25.155  0.00  0.00    +0.093 C 
ATOM     23  C   UNL     1       0.221   3.250  25.393  0.00  0.00    +0.022 C 
ATOM     24  C   UNL     1       0.180   2.630  25.935  0.00  0.00    +0.004 C 
ATOM     25  C   UNL     1      -0.550   2.394  26.239  0.00  0.00    +0.022 C 
ATOM     26  C   UNL     1      -1.239   2.778  26.001  0.00  0.00    +0.093 C 
ENDBRANCH  18  19
ENDBRANCH  17  18
ENDBRANCH  16  17
TORSDOF 5
ENDMDL
MODEL 3
REMARK VINA RESULT:     -12.1      0.879      1.155
REMARK  Name = 
REMARK  5 active torsions:
REMARK  status: ('A' for Active; 'I' for Inactive)
REMARK    1  A    between atoms: C_6  and  N_7
REMARK    2  A    between atoms: N_10  and  C_11
REMARK    3  A    between atoms: C_16  and  C_17
REMARK    4  A    between atoms: C_17  and  C_18
REMARK    5  A    between atoms: C_18  and  C_19
REMARK                            x       y       z     vdW  Elec       q    Type
REMARK                         _______ _______ _______ _____ _____    ______ ____
ROOT
ATOM     11  C   UNL     1      -0.852   1.594  25.512  0.00  0.00    +0.115 C 
ATOM     12  C   UNL     1      -0.317   1.999  25.032  0.00  0.00    +0.049 C 
ATOM     13  C   UNL     1      -0.602   2.764  24.922  0.00  0.00    +0.138 C 
ATOM     14  N   UNL     1      -1.314   2.833  25.333  0.00  0.00    -0.265 NA
ATOM     15  C   UNL     1      -1.469   2.110  25.698  0.00  0.00    +0.094 C 
ATOM     16  C   UNL     1      -1.729   3.546  25.322  0.00  0.00    +0.080 C 
ATOM     27  C   UNL     1      -1.433   4.189  24.900  0.00  0.00    +0.131 C 
ATOM     28  N   UNL     1      -0.722   4.121  24.489  0.00  0.00    -0.203 NA
ATOM     29  C   UNL     1      -0.306   3.408  24.499  0.00  0.00    +0.256 C 
ATOM     30  O   UNL     1       0.406   3.340  24.088  0.00  0.00    -0.272 OA
ENDROOT
BRANCH  11  10
ATOM      7  N   UNL     1      -1.172  -0.561  25.659  0.00  0.00    -0.159 NA
ATOM      8  C   UNL     1      -1.240   0.222  25.409  0.00  0.00    +0.344 C 
ATOM      9  O   UNL     1      -1.767   0.418  24.804  0.00  0.00    -0.249 OA
ATOM     10  N   UNL     1      -0.783   0.811  25.762  0.00  0.00    -0.187 NA
BRANCH   7   6
ATOM      1  F   UNL     1      -3.002  -2.912  24.240  0.00  0.00    -0.204 F 
ATOM      2  C   UNL     1      -2.545  -2.324  24.595  0.00  0.00    +0.142 A 
ATOM      3  C   UNL     1      -1.721  -2.384  24.592  0.00  0.00    +0.061 A 
ATOM      4  C   UNL     1      -1.264  -1.796  24.947  0.00  0.00    +0.158 A 
ATOM      5  F   UNL     1      -0.441  -1.856  24.944  0.00  0.00    -0.203 F 
ATOM      6  C   UNL     1      -1.630  -1.148  25.304  0.00  0.00    +0.102 A 
ATOM     31  C   UNL     1      -2.452  -1.089  25.307  0.00  0.00    +0.021 A 
ATOM     32  C   UNL     1      -2.910  -1.676  24.952  0.00  0.00    +0.031 A 
ENDBRANCH   7   6
ENDBRANCH  11  10
BRANCH  16  17
ATOM     17  C   UNL     1      -2.441   3.615  25.734  0.00  0.00    +0.027 C 
BRANCH  17  18
ATOM     18  C   UNL     1      -3.156   3.617  25.323  0.00  0.00    +0.087 C 
BRANCH  18  19
ATOM     19  C   UNL     1      -3.870   3.631  25.737  0.00  0.00    +0.226 C 
ATOM     20  O   UNL     1      -3.953   4.116  26.399  0.00  0.00    -0.275 OA
ATOM     21  N   UNL     1      -4.500   3.161  25.489  0.00  0.00    -0.280 N 
ATOM     22  C   UNL     1      -5.213   3.175  25.903  0.00  0.00    +0.093 C 
ATOM     23  C   UNL     1      -5.844   2.704  25.655  0.00  0.00    +0.022 C 
ATOM     24  C   UNL     1      -5.761   2.220  24.992  0.00  0.00    +0.004 C 
ATOM     25  C   UNL     1      -5.047   2.206  24.578  0.00  0.00    +0.022 C 
ATOM     26  C   UNL     1      -4.418   2.676  24.827  0.00  0.00    +0.093 C 
ENDBRANCH  18  19
ENDBRANCH  17  18
ENDBRANCH  16  17
TORSDOF 5
ENDMDL
MODEL 4
REMARK VINA RESULT:     -12.1      2.081      4.850
REMARK  Name = 
REMARK  5 active torsions:
REMARK  status: ('A' for Active; 'I' for Inactive)
REMARK    1  A    between atoms: C_6  and  N_7
REMARK    2  A    between atoms: N_10  and  C_11
REMARK    3  A    between atoms: C_16  and  C_17
REMARK    4  A    between atoms: C_17  and  C_18
REMARK    5  A    between atoms: C_18  and  C_19
REMARK                            x       y       z     vdW  Elec       q    Type
REMARK                         _______ _______ _______ _____ _____    ______ ____
ROOT
ATOM     11  C   UNL     1      -3.934  -0.478  24.446  0.00  0.00    +0.115 C 
ATOM     12  C   UNL     1      -3.962  -1.244  24.752  0.00  0.00    +0.049 C 
ATOM     13  C   UNL     1      -3.191  -1.537  24.775  0.00  0.00    +0.138 C 
ATOM     14  N   UNL     1      -2.687  -0.953  24.484  0.00  0.00    -0.265 NA
ATOM     15  C   UNL     1      -3.146  -0.298  24.280  0.00  0.00    +0.094 C 
ATOM     16  C   UNL     1      -1.875  -1.093  24.441  0.00  0.00    +0.080 C 
ATOM     27  C   UNL     1      -1.567  -1.816  24.690  0.00  0.00    +0.131 C 
ATOM     28  N   UNL     1      -2.072  -2.400  24.982  0.00  0.00    -0.203 NA
ATOM     29  C   UNL     1      -2.884  -2.262  25.024  0.00  0.00    +0.256 C 
ATOM     30  O   UNL     1      -3.388  -2.846  25.316  0.00  0.00    -0.272 OA
ENDROOT
BRANCH  11  10
ATOM      7  N   UNL     1      -5.234   1.273  24.541  0.00  0.00    -0.159 NA
ATOM      8  C   UNL     1      -4.587   0.774  24.660  0.00  0.00    +0.344 C 
ATOM      9  O   UNL     1      -3.946   1.030  25.114  0.00  0.00    -0.249 OA
ATOM     10  N   UNL     1      -4.580   0.020  24.327  0.00  0.00    -0.187 NA
BRANCH   7   6
ATOM      1  F   UNL     1      -5.259   4.290  25.879  0.00  0.00    -0.204 F 
ATOM      2  C   UNL     1      -5.252   3.536  25.544  0.00  0.00    +0.142 A 
ATOM      3  C   UNL     1      -5.859   3.003  25.716  0.00  0.00    +0.061 A 
ATOM      4  C   UNL     1      -5.852   2.249  25.381  0.00  0.00    +0.158 A 
ATOM      5  F   UNL     1      -6.459   1.717  25.553  0.00  0.00    -0.203 F 
ATOM      6  C   UNL     1      -5.239   2.027  24.875  0.00  0.00    +0.102 A 
ATOM     31  C   UNL     1      -4.633   2.559  24.704  0.00  0.00    +0.021 A 
ATOM     32  C   UNL     1      -4.639   3.314  25.038  0.00  0.00    +0.031 A 
ENDBRANCH   7   6
ENDBRANCH  11  10
BRANCH  16  17
ATOM     17  C   UNL     1      -1.371  -0.509  24.150  0.00  0.00    +0.027 C 
BRANCH  17  18
ATOM     18  C   UNL     1      -0.866  -0.105  24.663  0.00  0.00    +0.087 C 
BRANCH  18  19
ATOM     19  C   UNL     1      -0.378   0.495  24.375  0.00  0.00    +0.226 C 
ATOM     20  O   UNL     1      -0.010   0.411  23.642  0.00  0.00    -0.275 OA
ATOM     21  N   UNL     1      -0.259   1.178  24.821  0.00  0.00    -0.280 N 
ATOM     22  C   UNL     1       0.229   1.778  24.533  0.00  0.00    +0.093 C 
ATOM     23  C   UNL     1       0.349   2.462  24.979  0.00  0.00    +0.022 C 
ATOM     24  C   UNL     1      -0.020   2.545  25.713  0.00  0.00    +0.004 C 
ATOM     25  C   UNL     1      -0.508   1.946  26.000  0.00  0.00    +0.022 C 
ATOM     26  C   UNL     1      -0.627   1.262  25.555  0.00  0.00    +0.093 C 
ENDBRANCH  18  19
ENDBRANCH  17  18
ENDBRANCH  16  17
TORSDOF 5
ENDMDL
MODEL 5
REMARK VINA RESULT:     -12.0      2.849      5.904
REMARK  Name = 
REMARK  5 active torsions:
REMARK  status: ('A' for Active; 'I' for Inactive)
REMARK    1  A    between atoms: C_6  and  N_7
REMARK    2  A    between atoms: N_10  and  C_11
REMARK    3  A    between atoms: C_16  and  C_17
REMARK    4  A    between atoms: C_17  and  C_18
REMARK    5  A    between atoms: C_18  and  C_19
REMARK                            x       y       z     vdW  Elec       q    Type
REMARK                         _______ _______ _______ _____ _____    ______ ____
ROOT
ATOM     11  C   UNL     1      -4.133   3.044  25.717  0.00  0.00    +0.115 C 
ATOM     12  C   UNL     1      -4.911   3.165  25.470  0.00  0.00    +0.049 C 
ATOM     13  C   UNL     1      -5.228   2.434  25.260  0.00  0.00    +0.138 C 
ATOM     14  N   UNL     1      -4.647   1.860  25.376  0.00  0.00    -0.265 NA
ATOM     15  C   UNL     1      -3.970   2.237  25.658  0.00  0.00    +0.094 C 
ATOM     16  C   UNL     1      -4.810   1.069  25.209  0.00  0.00    +0.080 C 
ATOM     27  C   UNL     1      -5.553   0.851  24.926  0.00  0.00    +0.131 C 
ATOM     28  N   UNL     1      -6.135   1.424  24.810  0.00  0.00    -0.203 NA
ATOM     29  C   UNL     1      -5.973   2.216  24.977  0.00  0.00    +0.256 C 
ATOM     30  O   UNL     1      -6.554   2.790  24.860  0.00  0.00    -0.272 OA
ENDROOT
BRANCH  11  10
ATOM      7  N   UNL     1      -2.413   4.386  25.794  0.00  0.00    -0.159 NA
ATOM      8  C   UNL     1      -2.937   3.803  25.534  0.00  0.00    +0.344 C 
ATOM      9  O   UNL     1      -2.786   3.396  24.832  0.00  0.00    -0.249 OA
ATOM     10  N   UNL     1      -3.610   3.626  25.976  0.00  0.00    -0.187 NA
BRANCH   7   6
ATOM      1  F   UNL     1       0.280   5.092  24.022  0.00  0.00    -0.204 F 
ATOM      2  C   UNL     1      -0.393   4.915  24.465  0.00  0.00    +0.142 A 
ATOM      3  C   UNL     1      -0.896   5.522  24.711  0.00  0.00    +0.061 A 
ATOM      4  C   UNL     1      -1.569   5.345  25.154  0.00  0.00    +0.158 A 
ATOM      5  F   UNL     1      -2.072   5.952  25.401  0.00  0.00    -0.203 F 
ATOM      6  C   UNL     1      -1.740   4.562  25.351  0.00  0.00    +0.102 A 
ATOM     31  C   UNL     1      -1.238   3.956  25.104  0.00  0.00    +0.021 A 
ATOM     32  C   UNL     1      -0.564   4.132  24.661  0.00  0.00    +0.031 A 
ENDBRANCH   7   6
ENDBRANCH  11  10
BRANCH  16  17
ATOM     17  C   UNL     1      -4.229   0.495  25.325  0.00  0.00    +0.027 C 
BRANCH  17  18
ATOM     18  C   UNL     1      -4.304  -0.247  24.973  0.00  0.00    +0.087 C 
BRANCH  18  19
ATOM     19  C   UNL     1      -3.828  -0.873  25.222  0.00  0.00    +0.226 C 
ATOM     20  O   UNL     1      -3.373  -0.798  25.905  0.00  0.00    -0.275 OA
ATOM     21  N   UNL     1      -3.807  -1.573  24.787  0.00  0.00    -0.280 N 
ATOM     22  C   UNL     1      -3.331  -2.199  25.036  0.00  0.00    +0.093 C 
ATOM     23  C   UNL     1      -3.310  -2.900  24.601  0.00  0.00    +0.022 C 
ATOM     24  C   UNL     1      -3.765  -2.975  23.917  0.00  0.00    +0.004 C 
ATOM     25  C   UNL     1      -4.242  -2.349  23.668  0.00  0.00    +0.022 C 
ATOM     26  C   UNL     1      -4.262  -1.649  24.103  0.00  0.00    +0.093 C 
ENDBRANCH  18  19
ENDBRANCH  17  18
ENDBRANCH  16  17
TORSDOF 5
ENDMDL
MODEL 6
REMARK VINA RESULT:     -11.8      2.126      4.733
REMARK  Name = 
REMARK  5 active torsions:
REMARK  status: ('A' for Active; 'I' for Inactive)
REMARK    1  A    between atoms: C_6  and  N_7
REMARK    2  A    between atoms: N_10  and  C_11
REMARK    3  A    between atoms: C_16  and  C_17
REMARK    4  A    between atoms: C_17  and  C_18
REMARK    5  A    between atoms: C_18  and  C_19
REMARK                            x       y       z     vdW  Elec       q    Type
REMARK                         _______ _______ _______ _____ _____    ______ ____
ROOT
ATOM     11  C   UNL     1      -0.632   1.747  24.955  0.00  0.00    +0.115 C 
ATOM     12  C   UNL     1      -0.009   1.756  24.414  0.00  0.00    +0.049 C 
ATOM     13  C   UNL     1       0.116   0.982  24.158  0.00  0.00    +0.138 C 
ATOM     14  N   UNL     1      -0.429   0.495  24.540  0.00  0.00    -0.265 NA
ATOM     15  C   UNL     1      -0.892   0.967  25.032  0.00  0.00    +0.094 C 
ATOM     16  C   UNL     1      -0.433  -0.316  24.389  0.00  0.00    +0.080 C 
ATOM     27  C   UNL     1       0.107  -0.640  23.858  0.00  0.00    +0.131 C 
ATOM     28  N   UNL     1       0.653  -0.153  23.476  0.00  0.00    -0.203 NA
ATOM     29  C   UNL     1       0.658   0.658  23.625  0.00  0.00    +0.256 C 
ATOM     30  O   UNL     1       1.203   1.145  23.243  0.00  0.00    -0.272 OA
ENDROOT
BRANCH  11  10
ATOM      7  N   UNL     1      -2.034   3.285  25.614  0.00  0.00    -0.159 NA
ATOM      8  C   UNL     1      -1.724   2.630  25.220  0.00  0.00    +0.344 C 
ATOM      9  O   UNL     1      -2.198   2.201  24.697  0.00  0.00    -0.249 OA
ATOM     10  N   UNL     1      -0.942   2.402  25.349  0.00  0.00    -0.187 NA
BRANCH   7   6
ATOM      1  F   UNL     1      -5.165   4.191  25.101  0.00  0.00    -0.204 F 
ATOM      2  C   UNL     1      -4.383   3.964  25.228  0.00  0.00    +0.142 A 
ATOM      3  C   UNL     1      -4.056   4.020  25.985  0.00  0.00    +0.061 A 
ATOM      4  C   UNL     1      -3.273   3.793  26.112  0.00  0.00    +0.158 A 
ATOM      5  F   UNL     1      -2.946   3.848  26.869  0.00  0.00    -0.203 F 
ATOM      6  C   UNL     1      -2.817   3.511  25.485  0.00  0.00    +0.102 A 
ATOM     31  C   UNL     1      -3.143   3.456  24.730  0.00  0.00    +0.021 A 
ATOM     32  C   UNL     1      -3.926   3.683  24.601  0.00  0.00    +0.031 A 
ENDBRANCH   7   6
ENDBRANCH  11  10
BRANCH  16  17
ATOM     17  C   UNL     1      -0.978  -0.804  24.771  0.00  0.00    +0.027 C 
BRANCH  17  18
ATOM     18  C   UNL     1      -1.558  -1.196  24.335  0.00  0.00    +0.087 C 
BRANCH  18  19
ATOM     19  C   UNL     1      -1.934  -1.859  24.651  0.00  0.00    +0.226 C 
ATOM     20  O   UNL     1      -1.523  -2.366  25.154  0.00  0.00    -0.275 OA
ATOM     21  N   UNL     1      -2.722  -2.014  24.463  0.00  0.00    -0.280 N 
ATOM     22  C   UNL     1      -3.098  -2.677  24.778  0.00  0.00    +0.093 C 
ATOM     23  C   UNL     1      -3.887  -2.833  24.590  0.00  0.00    +0.022 C 
ATOM     24  C   UNL     1      -4.298  -2.325  24.087  0.00  0.00    +0.004 C 
ATOM     25  C   UNL     1      -3.922  -1.662  23.771  0.00  0.00    +0.022 C 
ATOM     26  C   UNL     1      -3.134  -1.507  23.959  0.00  0.00    +0.093 C 
ENDBRANCH  18  19
ENDBRANCH  17  18
ENDBRANCH  16  17
TORSDOF 5
ENDMDL
MODEL 7
REMARK VINA RESULT:     -11.4      1.950      4.465
REMARK  Name = 
REMARK  5 active torsions:
REMARK  status: ('A' for Active; 'I' for Inactive)
REMARK    1  A    between atoms: C_6  and  N_7
REMARK    2  A    between atoms: N_10  and  C_11
REMARK    3  A    between atoms: C_16  and  C_17
REMARK    4  A    between atoms: C_17  and  C_18
REMARK    5  A    between atoms: C_18  and  C_19
REMARK                            x       y       z     vdW  Elec       q    Type
REMARK                         _______ _______ _______ _____ _____    ______ ____
ROOT
ATOM     11  C   UNL     1      -2.040   2.827  24.527  0.00  0.00    +0.115 C 
ATOM     12  C   UNL     1      -1.464   3.244  24.944  0.00  0.00    +0.049 C 
ATOM     13  C   UNL     1      -0.806   2.755  25.029  0.00  0.00    +0.138 C 
ATOM     14  N   UNL     1      -0.975   2.034  24.664  0.00  0.00    -0.265 NA
ATOM     15  C   UNL     1      -1.738   2.078  24.354  0.00  0.00    +0.094 C 
ATOM     16  C   UNL     1      -0.412   1.431  24.662  0.00  0.00    +0.080 C 
ATOM     27  C   UNL     1       0.320   1.548  25.024  0.00  0.00    +0.131 C 
ATOM     28  N   UNL     1       0.489   2.269  25.389  0.00  0.00    -0.203 NA
ATOM     29  C   UNL     1      -0.074   2.872  25.392  0.00  0.00    +0.256 C 
ATOM     30  O   UNL     1       0.095   3.593  25.756  0.00  0.00    -0.272 OA
ENDROOT
BRANCH  11  10
ATOM      7  N   UNL     1      -4.208   3.080  24.477  0.00  0.00    -0.159 NA
ATOM      8  C   UNL     1      -3.461   2.800  24.685  0.00  0.00    +0.344 C 
ATOM      9  O   UNL     1      -3.385   2.211  25.259  0.00  0.00    -0.249 OA
ATOM     10  N   UNL     1      -2.788   3.107  24.320  0.00  0.00    -0.187 NA
BRANCH   7   6
ATOM      1  F   UNL     1      -6.897   1.850  25.943  0.00  0.00    -0.204 F 
ATOM      2  C   UNL     1      -6.225   2.157  25.576  0.00  0.00    +0.142 A 
ATOM      3  C   UNL     1      -6.009   2.944  25.702  0.00  0.00    +0.061 A 
ATOM      4  C   UNL     1      -5.337   3.251  25.336  0.00  0.00    +0.158 A 
ATOM      5  F   UNL     1      -5.122   4.038  25.462  0.00  0.00    -0.203 F 
ATOM      6  C   UNL     1      -4.880   2.772  24.843  0.00  0.00    +0.102 A 
ATOM     31  C   UNL     1      -5.095   1.986  24.717  0.00  0.00    +0.021 A 
ATOM     32  C   UNL     1      -5.768   1.678  25.083  0.00  0.00    +0.031 A 
ENDBRANCH   7   6
ENDBRANCH  11  10
BRANCH  16  17
ATOM     17  C   UNL     1      -0.581   0.711  24.298  0.00  0.00    +0.027 C 
BRANCH  17  18
ATOM     18  C   UNL     1      -0.748   0.045  24.756  0.00  0.00    +0.087 C 
BRANCH  18  19
ATOM     19  C   UNL     1      -0.778  -0.701  24.405  0.00  0.00    +0.226 C 
ATOM     20  O   UNL     1      -0.204  -0.921  23.856  0.00  0.00    -0.275 OA
ATOM     21  N   UNL     1      -1.382  -1.225  24.603  0.00  0.00    -0.280 N 
ATOM     22  C   UNL     1      -1.412  -1.971  24.252  0.00  0.00    +0.093 C 
ATOM     23  C   UNL     1      -2.017  -2.497  24.451  0.00  0.00    +0.022 C 
ATOM     24  C   UNL     1      -2.591  -2.276  25.000  0.00  0.00    +0.004 C 
ATOM     25  C   UNL     1      -2.561  -1.530  25.351  0.00  0.00    +0.022 C 
ATOM     26  C   UNL     1      -1.957  -1.005  25.152  0.00  0.00    +0.093 C 
ENDBRANCH  18  19
ENDBRANCH  17  18
ENDBRANCH  16  17
TORSDOF 5
ENDMDL
