MODEL 1
REMARK VINA RESULT:     -10.7      0.000      0.000
REMARK  Name = 
REMARK  6 active torsions:
REMARK  status: ('A' for Active; 'I' for Inactive)
REMARK    1  A    between atoms: C_2  and  C_5
REMARK    2  A    between atoms: C_7  and  C_8
REMARK    3  A    between atoms: C_8  and  C_9
REMARK    4  A    between atoms: C_9  and  N_13
REMARK    5  A    between atoms: N_13  and  C_14
REMARK    6  A    between atoms: C_14  and  C_15
REMARK                            x       y       z     vdW  Elec       q    Type
REMARK                         _______ _______ _______ _____ _____    ______ ____
ROOT
ATOM      9  C   UNL     1      -4.721   2.112  24.997  0.00  0.00    +0.119 C 
ATOM     10  C   UNL     1      -5.357   1.772  25.400  0.00  0.00    +0.161 C 
ATOM     11  O   UNL     1      -5.764   2.489  25.361  0.00  0.00    -0.351 OA
ATOM     12  C   UNL     1      -5.129   2.828  24.959  0.00  0.00    +0.161 C 
ENDROOT
BRANCH   9   8
ATOM      8  C   UNL     1      -4.086   2.451  24.595  0.00  0.00    +0.070 C 
BRANCH   8   7
ATOM      5  C   UNL     1      -2.434   3.582  25.335  0.00  0.00    +0.153 A 
ATOM      6  C   UNL     1      -2.770   3.082  24.772  0.00  0.00    +0.054 A 
ATOM      7  C   UNL     1      -3.548   2.927  25.000  0.00  0.00    +0.102 A 
ATOM     21  N   UNL     1      -3.692   3.330  25.704  0.00  0.00    -0.082 NA
ATOM     22  O   UNL     1      -3.004   3.735  25.912  0.00  0.00    -0.358 OA
BRANCH   5   2
ATOM      1  C   UNL     1      -0.894   4.172  25.314  0.00  0.00    +0.008 C 
ATOM      2  C   UNL     1      -1.664   3.876  25.325  0.00  0.00    +0.054 C 
ATOM      3  C   UNL     1      -1.379   3.142  25.570  0.00  0.00    +0.008 C 
ATOM      4  C   UNL     1      -1.949   4.611  25.080  0.00  0.00    +0.008 C 
ENDBRANCH   5   2
ENDBRANCH   8   7
ENDBRANCH   9   8
BRANCH   9  13
ATOM     13  N   UNL     1      -4.314   1.395  25.036  0.00  0.00    -0.215 NA
BRANCH  13  14
ATOM     14  C   UNL     1      -4.711   0.688  24.884  0.00  0.00    +0.089 C 
BRANCH  14  15
ATOM     15  C   UNL     1      -4.290  -0.021  24.848  0.00  0.00    +0.017 C 
ATOM     16  C   UNL     1      -4.199  -0.409  24.125  0.00  0.00    +0.001 C 
ATOM     17  C   UNL     1      -3.778  -1.117  24.087  0.00  0.00    +0.000 C 
ATOM     18  C   UNL     1      -3.448  -1.438  24.772  0.00  0.00    +0.000 C 
ATOM     19  C   UNL     1      -3.540  -1.050  25.495  0.00  0.00    +0.000 C 
ATOM     20  C   UNL     1      -3.961  -0.341  25.532  0.00  0.00    +0.001 C 
ENDBRANCH  14  15
ENDBRANCH  13  14
ENDBRANCH   9  13
TORSDOF 6
ENDMDL
MODEL 2
REMARK VINA RESULT:     -10.4      0.924      4.100
REMARK  Name = 
REMARK  6 active torsions:
REMARK  status: ('A' for Active; 'I' for Inactive)
REMARK    1  A    between atoms: C_2  and  C_5
REMARK    2  A    between atoms: C_7  and  C_8
REMARK    3  A    between atoms: C_8  and  C_9
REMARK    4  A    between atoms: C_9  and  N_13
REMARK    5  A    between atoms: N_13  and  C_14
REMARK    6  A    between atoms: C_14  and  C_15
REMARK                            x       y       z     vdW  Elec       q    Type
REMARK                         _______ _______ _______ _____ _____    ______ ____
ROOT
ATOM      9  C   UNL     1      -4.708   2.026  24.923  0.00  0.00    +0.119 C 
ATOM     10  C   UNL     1      -5.044   2.617  25.391  0.00  0.00    +0.161 C 
ATOM     11  O   UNL     1      -5.796   2.325  25.219  0.00  0.00    -0.351 OA
ATOM     12  C   UNL     1      -5.461   1.734  24.752  0.00  0.00    +0.161 C 
ENDROOT
BRANCH   9   8
ATOM      8  C   UNL     1      -4.372   1.436  24.455  0.00  0.00    +0.070 C 
BRANCH   8   7
ATOM      5  C   UNL     1      -3.998  -0.628  24.853  0.00  0.00    +0.153 A 
ATOM      6  C   UNL     1      -3.986   0.021  24.345  0.00  0.00    +0.054 A 
ATOM      7  C   UNL     1      -4.285   0.672  24.754  0.00  0.00    +0.102 A 
ATOM     21  N   UNL     1      -4.482   0.425  25.516  0.00  0.00    -0.082 NA
ATOM     22  O   UNL     1      -4.305  -0.379  25.577  0.00  0.00    -0.358 OA
BRANCH   5   2
ATOM      1  C   UNL     1      -3.496  -2.157  24.488  0.00  0.00    +0.008 C 
ATOM      2  C   UNL     1      -3.747  -1.392  24.670  0.00  0.00    +0.054 C 
ATOM      3  C   UNL     1      -4.251  -1.402  24.017  0.00  0.00    +0.008 C 
ATOM      4  C   UNL     1      -3.244  -1.382  25.323  0.00  0.00    +0.008 C 
ENDBRANCH   5   2
ENDBRANCH   8   7
ENDBRANCH   9   8
BRANCH   9  13
ATOM     13  N   UNL     1      -3.956   2.319  25.095  0.00  0.00    -0.215 NA
BRANCH  13  14
ATOM     14  C   UNL     1      -3.776   3.109  24.938  0.00  0.00    +0.089 C 
BRANCH  14  15
ATOM     15  C   UNL     1      -3.021   3.399  25.101  0.00  0.00    +0.017 C 
ATOM     16  C   UNL     1      -2.875   3.787  25.815  0.00  0.00    +0.001 C 
ATOM     17  C   UNL     1      -2.120   4.078  25.980  0.00  0.00    +0.000 C 
ATOM     18  C   UNL     1      -1.512   3.981  25.430  0.00  0.00    +0.000 C 
ATOM     19  C   UNL     1      -1.658   3.593  24.717  0.00  0.00    +0.000 C 
ATOM     20  C   UNL     1      -2.413   3.302  24.553  0.00  0.00    +0.001 C 
ENDBRANCH  14  15
ENDBRANCH  13  14
ENDBRANCH   9  13
TORSDOF 6
ENDMDL
