MODEL 1
REMARK VINA RESULT:     -12.2      0.000      0.000
REMARK  Name = 
REMARK  6 active torsions:
REMARK  status: ('A' for Active; 'I' for Inactive)
REMARK    1  A    between atoms: C_5  and  S_8
REMARK    2  A    between atoms: S_8  and  N_11
REMARK    3  A    between atoms: N_11  and  C_12
REMARK    4  A    between atoms: C_12  and  C_13
REMARK    5  A    between atoms: C_20  and  C_21
REMARK    6  A    between atoms: C_21  and  N_22
REMARK                            x       y       z     vdW  Elec       q    Type
REMARK                         _______ _______ _______ _____ _____    ______ ____
ROOT
ATOM     13  C   UNL     1      -4.499   2.705  24.816  0.00  0.00    +0.077 C 
ATOM     14  C   UNL     1      -5.193   2.403  24.993  0.00  0.00    +0.018 C 
ATOM     15  C   UNL     1      -5.363   1.613  25.045  0.00  0.00    +0.005 C 
ATOM     16  C   UNL     1      -6.221   1.469  25.262  0.00  0.00    +0.017 C 
ATOM     17  C   UNL     1      -5.694   1.831  25.126  0.00  0.00    +0.072 C 
ATOM     18  N   UNL     1      -4.680   1.903  24.870  0.00  0.00    -0.272 NA
ATOM     19  C   UNL     1      -4.173   1.153  24.752  0.00  0.00    +0.073 C 
ATOM     20  C   UNL     1      -4.869   0.896  24.930  0.00  0.00    +0.032 C 
ENDROOT
BRANCH  13  12
ATOM     12  C   UNL     1      -3.984   3.336  24.679  0.00  0.00    +0.131 C 
BRANCH  12  11
ATOM     11  N   UNL     1      -3.593   3.694  25.312  0.00  0.00    -0.076 NA
BRANCH  11   8
ATOM      8  S   UNL     1      -2.851   4.034  25.199  0.00  0.00    +0.077 S 
ATOM      9  O   UNL     1      -3.057   4.228  24.424  0.00  0.00    -0.152 OA
ATOM     10  O   UNL     1      -2.644   3.840  25.974  0.00  0.00    -0.152 OA
BRANCH   8   5
ATOM      1  C   UNL     1       0.123   5.393  24.748  0.00  0.00    +0.031 C 
ATOM      2  C   UNL     1      -0.621   5.053  24.861  0.00  0.00    -0.022 A 
ATOM      3  C   UNL     1      -1.277   5.534  24.999  0.00  0.00    -0.003 A 
ATOM      4  C   UNL     1      -2.021   5.194  25.112  0.00  0.00    +0.020 A 
ATOM      5  C   UNL     1      -2.108   4.374  25.086  0.00  0.00    +0.124 A 
ATOM      6  C   UNL     1      -1.451   3.893  24.948  0.00  0.00    +0.020 A 
ATOM      7  C   UNL     1      -0.707   4.234  24.835  0.00  0.00    -0.003 A 
ENDBRANCH   8   5
ENDBRANCH  11   8
ENDBRANCH  12  11
ENDBRANCH  13  12
BRANCH  20  21
ATOM     21  C   UNL     1      -5.108   0.109  24.999  0.00  0.00    +0.074 C 
BRANCH  21  22
ATOM     22  N   UNL     1      -4.545  -0.492  25.018  0.00  0.00    -0.269 NA
ATOM     23  C   UNL     1      -3.996  -0.525  25.633  0.00  0.00    +0.077 C 
ATOM     24  C   UNL     1      -3.432  -1.127  25.652  0.00  0.00    +0.043 C 
ATOM     25  C   UNL     1      -3.417  -1.698  25.055  0.00  0.00    -0.023 A 
ATOM     26  C   UNL     1      -3.967  -1.665  24.440  0.00  0.00    -0.010 A 
ATOM     27  C   UNL     1      -4.531  -1.063  24.421  0.00  0.00    +0.099 C 
ATOM     28  C   UNL     1      -3.952  -2.235  23.844  0.00  0.00    -0.003 A 
ATOM     29  C   UNL     1      -3.388  -2.838  23.862  0.00  0.00    -0.000 A 
ATOM     30  C   UNL     1      -2.840  -2.870  24.478  0.00  0.00    -0.000 A 
ATOM     31  C   UNL     1      -2.854  -2.300  25.074  0.00  0.00    -0.004 A 
ENDBRANCH  21  22
ENDBRANCH  20  21
TORSDOF 6
ENDMDL
MODEL 2
REMARK VINA RESULT:     -11.8      1.723      5.487
REMARK  Name = 
REMARK  6 active torsions:
REMARK  status: ('A' for Active; 'I' for Inactive)
REMARK    1  A    between atoms: C_5  and  S_8
REMARK    2  A    between atoms: S_8  and  N_11
REMARK    3  A    between atoms: N_11  and  C_12
REMARK    4  A    between atoms: C_12  and  C_13
REMARK    5  A    between atoms: C_20  and  C_21
REMARK    6  A    between atoms: C_21  and  N_22
REMARK                            x       y       z     vdW  Elec       q    Type
REMARK                         _______ _______ _______ _____ _____    ______ ____
ROOT
ATOM     13  C   UNL     1      -4.858   1.048  24.842  0.00  0.00    +0.077 C 
ATOM     14  C   UNL     1      -5.339   1.589  25.128  0.00  0.00    +0.018 C 
ATOM     15  C   UNL     1      -5.147   2.365  25.262  0.00  0.00    +0.005 C 
ATOM     16  C   UNL     1      -5.841   2.827  25.595  0.00  0.00    +0.017 C 
ATOM     17  C   UNL     1      -5.533   2.298  25.366  0.00  0.00    +0.072 C 
ATOM     18  N   UNL     1      -4.672   1.839  24.982  0.00  0.00    -0.272 NA
ATOM     19  C   UNL     1      -3.903   2.316  24.860  0.00  0.00    +0.073 C 
ATOM     20  C   UNL     1      -4.405   2.817  25.143  0.00  0.00    +0.032 C 
ENDROOT
BRANCH  13  12
ATOM     12  C   UNL     1      -4.678   0.282  24.594  0.00  0.00    +0.131 C 
BRANCH  12  11
ATOM     11  N   UNL     1      -4.513  -0.304  25.152  0.00  0.00    -0.076 NA
BRANCH  11   8
ATOM      8  S   UNL     1      -3.976  -0.903  24.974  0.00  0.00    +0.077 S 
ATOM      9  O   UNL     1      -3.694  -0.882  25.749  0.00  0.00    -0.152 OA
ATOM     10  O   UNL     1      -4.258  -0.925  24.198  0.00  0.00    -0.152 OA
BRANCH   8   5
ATOM      1  C   UNL     1      -1.824  -3.301  24.258  0.00  0.00    +0.031 C 
ATOM      2  C   UNL     1      -2.363  -2.701  24.437  0.00  0.00    -0.022 A 
ATOM      3  C   UNL     1      -3.173  -2.845  24.381  0.00  0.00    -0.003 A 
ATOM      4  C   UNL     1      -3.711  -2.245  24.561  0.00  0.00    +0.020 A 
ATOM      5  C   UNL     1      -3.439  -1.503  24.795  0.00  0.00    +0.124 A 
ATOM      6  C   UNL     1      -2.628  -1.359  24.850  0.00  0.00    +0.020 A 
ATOM      7  C   UNL     1      -2.089  -1.959  24.671  0.00  0.00    -0.003 A 
ENDBRANCH   8   5
ENDBRANCH  11   8
ENDBRANCH  12  11
ENDBRANCH  13  12
BRANCH  20  21
ATOM     21  C   UNL     1      -4.276   3.616  25.302  0.00  0.00    +0.074 C 
BRANCH  21  22
ATOM     22  N   UNL     1      -3.507   3.900  25.391  0.00  0.00    -0.269 NA
ATOM     23  C   UNL     1      -3.170   3.953  26.142  0.00  0.00    +0.077 C 
ATOM     24  C   UNL     1      -2.401   4.237  26.232  0.00  0.00    +0.043 C 
ATOM     25  C   UNL     1      -1.967   4.469  25.568  0.00  0.00    -0.023 A 
ATOM     26  C   UNL     1      -2.304   4.415  24.817  0.00  0.00    -0.010 A 
ATOM     27  C   UNL     1      -3.073   4.131  24.727  0.00  0.00    +0.099 C 
ATOM     28  C   UNL     1      -1.870   4.646  24.154  0.00  0.00    -0.003 A 
ATOM     29  C   UNL     1      -1.100   4.930  24.242  0.00  0.00    -0.000 A 
ATOM     30  C   UNL     1      -0.765   4.983  24.994  0.00  0.00    -0.000 A 
ATOM     31  C   UNL     1      -1.198   4.752  25.657  0.00  0.00    -0.004 A 
ENDBRANCH  21  22
ENDBRANCH  20  21
TORSDOF 6
ENDMDL
MODEL 3
REMARK VINA RESULT:     -11.0      4.570      5.233
REMARK  Name = 
REMARK  6 active torsions:
REMARK  status: ('A' for Active; 'I' for Inactive)
REMARK    1  A    between atoms: C_5  and  S_8
REMARK    2  A    between atoms: S_8  and  N_11
REMARK    3  A    between atoms: N_11  and  C_12
REMARK    4  A    between atoms: C_12  and  C_13
REMARK    5  A    between atoms: C_20  and  C_21
REMARK    6  A    between atoms: C_21  and  N_22
REMARK                            x       y       z     vdW  Elec       q    Type
REMARK                         _______ _______ _______ _____ _____    ______ ____
ROOT
ATOM     13  C   UNL     1       0.526   0.444  23.554  0.00  0.00    +0.077 C 
ATOM     14  C   UNL     1       0.004   1.011  23.654  0.00  0.00    +0.018 C 
ATOM     15  C   UNL     1      -0.717   0.929  24.015  0.00  0.00    +0.005 C 
ATOM     16  C   UNL     1      -1.172   1.702  24.031  0.00  0.00    +0.017 C 
ATOM     17  C   UNL     1      -0.666   1.312  23.893  0.00  0.00    +0.072 C 
ATOM     18  N   UNL     1      -0.209   0.369  23.919  0.00  0.00    -0.272 NA
ATOM     19  C   UNL     1      -0.631  -0.345  24.302  0.00  0.00    +0.073 C 
ATOM     20  C   UNL     1      -1.117   0.239  24.381  0.00  0.00    +0.032 C 
ENDROOT
BRANCH  13  12
ATOM     12  C   UNL     1       1.249   0.149  23.288  0.00  0.00    +0.131 C 
BRANCH  12  11
ATOM     11  N   UNL     1       1.789   0.652  22.918  0.00  0.00    -0.076 NA
BRANCH  11   8
ATOM      8  S   UNL     1       2.598   0.510  22.986  0.00  0.00    +0.077 S 
ATOM      9  O   UNL     1       2.504  -0.213  22.601  0.00  0.00    -0.152 OA
ATOM     10  O   UNL     1       2.693   1.234  23.371  0.00  0.00    -0.152 OA
BRANCH   8   5
ATOM      1  C   UNL     1       5.839  -0.054  23.256  0.00  0.00    +0.031 C 
ATOM      2  C   UNL     1       5.028   0.086  23.189  0.00  0.00    -0.022 A 
ATOM      3  C   UNL     1       4.489  -0.491  23.426  0.00  0.00    -0.003 A 
ATOM      4  C   UNL     1       3.678  -0.349  23.358  0.00  0.00    +0.020 A 
ATOM      5  C   UNL     1       3.408   0.368  23.054  0.00  0.00    +0.124 A 
ATOM      6  C   UNL     1       3.949   0.945  22.817  0.00  0.00    +0.020 A 
ATOM      7  C   UNL     1       4.759   0.804  22.885  0.00  0.00    -0.003 A 
ENDBRANCH   8   5
ENDBRANCH  11   8
ENDBRANCH  12  11
ENDBRANCH  13  12
BRANCH  20  21
ATOM     21  C   UNL     1      -1.861   0.224  24.736  0.00  0.00    +0.074 C 
BRANCH  21  22
ATOM     22  N   UNL     1      -2.283  -0.483  24.779  0.00  0.00    -0.269 NA
ATOM     23  C   UNL     1      -2.094  -1.043  25.355  0.00  0.00    +0.077 C 
ATOM     24  C   UNL     1      -2.516  -1.750  25.399  0.00  0.00    +0.043 C 
ATOM     25  C   UNL     1      -3.129  -1.899  24.865  0.00  0.00    -0.023 A 
ATOM     26  C   UNL     1      -3.317  -1.339  24.289  0.00  0.00    -0.010 A 
ATOM     27  C   UNL     1      -2.895  -0.632  24.245  0.00  0.00    +0.099 C 
ATOM     28  C   UNL     1      -3.929  -1.488  23.755  0.00  0.00    -0.003 A 
ATOM     29  C   UNL     1      -4.352  -2.196  23.798  0.00  0.00    -0.000 A 
ATOM     30  C   UNL     1      -4.162  -2.754  24.374  0.00  0.00    -0.000 A 
ATOM     31  C   UNL     1      -3.550  -2.606  24.908  0.00  0.00    -0.004 A 
ENDBRANCH  21  22
ENDBRANCH  20  21
TORSDOF 6
ENDMDL
MODEL 4
REMARK VINA RESULT:     -10.9      2.444      3.486
REMARK  Name = 
REMARK  6 active torsions:
REMARK  status: ('A' for Active; 'I' for Inactive)
REMARK    1  A    between atoms: C_5  and  S_8
REMARK    2  A    between atoms: S_8  and  N_11
REMARK    3  A    between atoms: N_11  and  C_12
REMARK    4  A    between atoms: C_12  and  C_13
REMARK    5  A    between atoms: C_20  and  C_21
REMARK    6  A    between atoms: C_21  and  N_22
REMARK                            x       y       z     vdW  Elec       q    Type
REMARK                         _______ _______ _______ _____ _____    ______ ____
ROOT
ATOM     13  C   UNL     1      -0.032   1.184  24.505  0.00  0.00    +0.077 C 
ATOM     14  C   UNL     1       0.283   0.700  23.984  0.00  0.00    +0.018 C 
ATOM     15  C   UNL     1       0.072  -0.074  23.873  0.00  0.00    +0.005 C 
ATOM     16  C   UNL     1       0.554  -0.462  23.223  0.00  0.00    +0.017 C 
ATOM     17  C   UNL     1       0.368   0.027  23.615  0.00  0.00    +0.072 C 
ATOM     18  N   UNL     1      -0.240   0.396  24.385  0.00  0.00    -0.272 NA
ATOM     19  C   UNL     1      -0.861  -0.139  24.788  0.00  0.00    +0.073 C 
ATOM     20  C   UNL     1      -0.527  -0.583  24.264  0.00  0.00    +0.032 C 
ENDROOT
BRANCH  13  12
ATOM     12  C   UNL     1      -0.101   1.915  24.881  0.00  0.00    +0.131 C 
BRANCH  12  11
ATOM     11  N   UNL     1      -0.040   2.612  24.443  0.00  0.00    -0.076 NA
BRANCH  11   8
ATOM      8  S   UNL     1      -0.492   3.270  24.651  0.00  0.00    +0.077 S 
ATOM      9  O   UNL     1      -0.219   3.213  25.427  0.00  0.00    -0.152 OA
ATOM     10  O   UNL     1      -0.765   3.328  23.873  0.00  0.00    -0.152 OA
BRANCH   8   5
ATOM      1  C   UNL     1      -2.297   5.906  25.478  0.00  0.00    +0.031 C 
ATOM      2  C   UNL     1      -1.846   5.247  25.271  0.00  0.00    -0.022 A 
ATOM      3  C   UNL     1      -2.153   4.488  25.374  0.00  0.00    -0.003 A 
ATOM      4  C   UNL     1      -1.701   3.829  25.167  0.00  0.00    +0.020 A 
ATOM      5  C   UNL     1      -0.943   3.929  24.858  0.00  0.00    +0.124 A 
ATOM      6  C   UNL     1      -0.636   4.688  24.755  0.00  0.00    +0.020 A 
ATOM      7  C   UNL     1      -1.088   5.347  24.962  0.00  0.00    -0.003 A 
ENDBRANCH   8   5
ENDBRANCH  11   8
ENDBRANCH  12  11
ENDBRANCH  13  12
BRANCH  20  21
ATOM     21  C   UNL     1      -0.693  -1.374  24.100  0.00  0.00    +0.074 C 
BRANCH  21  22
ATOM     22  N   UNL     1      -1.418  -1.697  24.324  0.00  0.00    -0.269 NA
ATOM     23  C   UNL     1      -1.459  -2.213  24.968  0.00  0.00    +0.077 C 
ATOM     24  C   UNL     1      -2.184  -2.537  25.192  0.00  0.00    +0.043 C 
ATOM     25  C   UNL     1      -2.869  -2.345  24.772  0.00  0.00    -0.023 A 
ATOM     26  C   UNL     1      -2.828  -1.830  24.129  0.00  0.00    -0.010 A 
ATOM     27  C   UNL     1      -2.103  -1.506  23.904  0.00  0.00    +0.099 C 
ATOM     28  C   UNL     1      -3.512  -1.639  23.709  0.00  0.00    -0.003 A 
ATOM     29  C   UNL     1      -4.238  -1.963  23.933  0.00  0.00    -0.000 A 
ATOM     30  C   UNL     1      -4.278  -2.478  24.577  0.00  0.00    -0.000 A 
ATOM     31  C   UNL     1      -3.594  -2.669  24.996  0.00  0.00    -0.004 A 
ENDBRANCH  21  22
ENDBRANCH  20  21
TORSDOF 6
ENDMDL
MODEL 5
REMARK VINA RESULT:     -10.7      2.406      5.844
REMARK  Name = 
REMARK  6 active torsions:
REMARK  status: ('A' for Active; 'I' for Inactive)
REMARK    1  A    between atoms: C_5  and  S_8
REMARK    2  A    between atoms: S_8  and  N_11
REMARK    3  A    between atoms: N_11  and  C_12
REMARK    4  A    between atoms: C_12  and  C_13
REMARK    5  A    between atoms: C_20  and  C_21
REMARK    6  A    between atoms: C_21  and  N_22
REMARK                            x       y       z     vdW  Elec       q    Type
REMARK                         _______ _______ _______ _____ _____    ______ ____
ROOT
ATOM     13  C   UNL     1      -0.678   0.952  25.147  0.00  0.00    +0.077 C 
ATOM     14  C   UNL     1      -0.370   1.542  25.550  0.00  0.00    +0.018 C 
ATOM     15  C   UNL     1      -0.702   2.276  25.637  0.00  0.00    +0.005 C 
ATOM     16  C   UNL     1      -0.191   2.816  26.139  0.00  0.00    +0.017 C 
ATOM     17  C   UNL     1      -0.349   2.259  25.835  0.00  0.00    +0.072 C 
ATOM     18  N   UNL     1      -1.008   1.701  25.241  0.00  0.00    -0.272 NA
ATOM     19  C   UNL     1      -1.784   2.069  24.930  0.00  0.00    +0.073 C 
ATOM     20  C   UNL     1      -1.450   2.623  25.335  0.00  0.00    +0.032 C 
ENDROOT
BRANCH  13  12
ATOM     12  C   UNL     1      -0.674   0.180  24.855  0.00  0.00    +0.131 C 
BRANCH  12  11
ATOM     11  N   UNL     1      -0.827  -0.453  25.362  0.00  0.00    -0.076 NA
BRANCH  11   8
ATOM      8  S   UNL     1      -1.385  -1.023  25.154  0.00  0.00    +0.077 S 
ATOM      9  O   UNL     1      -1.091  -1.030  24.383  0.00  0.00    -0.152 OA
ATOM     10  O   UNL     1      -1.679  -1.016  25.925  0.00  0.00    -0.152 OA
BRANCH   8   5
ATOM      1  C   UNL     1      -3.623  -3.302  24.324  0.00  0.00    +0.031 C 
ATOM      2  C   UNL     1      -3.063  -2.733  24.531  0.00  0.00    -0.022 A 
ATOM      3  C   UNL     1      -2.266  -2.856  24.358  0.00  0.00    -0.003 A 
ATOM      4  C   UNL     1      -1.706  -2.285  24.566  0.00  0.00    +0.020 A 
ATOM      5  C   UNL     1      -1.944  -1.593  24.946  0.00  0.00    +0.124 A 
ATOM      6  C   UNL     1      -2.741  -1.471  25.119  0.00  0.00    +0.020 A 
ATOM      7  C   UNL     1      -3.301  -2.041  24.912  0.00  0.00    -0.003 A 
ENDBRANCH   8   5
ENDBRANCH  11   8
ENDBRANCH  12  11
ENDBRANCH  13  12
BRANCH  20  21
ATOM     21  C   UNL     1      -1.732   3.388  25.463  0.00  0.00    +0.074 C 
BRANCH  21  22
ATOM     22  N   UNL     1      -2.516   3.573  25.288  0.00  0.00    -0.269 NA
ATOM     23  C   UNL     1      -2.701   3.966  24.586  0.00  0.00    +0.077 C 
ATOM     24  C   UNL     1      -3.485   4.151  24.410  0.00  0.00    +0.043 C 
ATOM     25  C   UNL     1      -4.086   3.942  24.937  0.00  0.00    -0.023 A 
ATOM     26  C   UNL     1      -3.901   3.549  25.638  0.00  0.00    -0.010 A 
ATOM     27  C   UNL     1      -3.117   3.364  25.814  0.00  0.00    +0.099 C 
ATOM     28  C   UNL     1      -4.502   3.341  26.164  0.00  0.00    -0.003 A 
ATOM     29  C   UNL     1      -5.287   3.526  25.989  0.00  0.00    -0.000 A 
ATOM     30  C   UNL     1      -5.471   3.919  25.287  0.00  0.00    -0.000 A 
ATOM     31  C   UNL     1      -4.870   4.127  24.761  0.00  0.00    -0.004 A 
ENDBRANCH  21  22
ENDBRANCH  20  21
TORSDOF 6
ENDMDL
MODEL 6
REMARK VINA RESULT:     -10.2      4.918      6.239
REMARK  Name = 
REMARK  6 active torsions:
REMARK  status: ('A' for Active; 'I' for Inactive)
REMARK    1  A    between atoms: C_5  and  S_8
REMARK    2  A    between atoms: S_8  and  N_11
REMARK    3  A    between atoms: N_11  and  C_12
REMARK    4  A    between atoms: C_12  and  C_13
REMARK    5  A    between atoms: C_20  and  C_21
REMARK    6  A    between atoms: C_21  and  N_22
REMARK                            x       y       z     vdW  Elec       q    Type
REMARK                         _______ _______ _______ _____ _____    ______ ____
ROOT
ATOM     13  C   UNL     1       0.166   0.954  23.861  0.00  0.00    +0.077 C 
ATOM     14  C   UNL     1       0.188   0.302  23.438  0.00  0.00    +0.018 C 
ATOM     15  C   UNL     1       0.837   0.014  23.048  0.00  0.00    +0.005 C 
ATOM     16  C   UNL     1       0.656  -0.751  22.617  0.00  0.00    +0.017 C 
ATOM     17  C   UNL     1       0.521  -0.233  22.991  0.00  0.00    +0.072 C 
ATOM     18  N   UNL     1       0.822   0.654  23.461  0.00  0.00    -0.272 NA
ATOM     19  C   UNL     1       1.680   0.958  23.382  0.00  0.00    +0.073 C 
ATOM     20  C   UNL     1       1.660   0.312  22.976  0.00  0.00    +0.032 C 
ENDROOT
BRANCH  13  12
ATOM     12  C   UNL     1      -0.216   1.509  24.337  0.00  0.00    +0.131 C 
BRANCH  12  11
ATOM     11  N   UNL     1      -1.036   1.592  24.297  0.00  0.00    -0.076 NA
BRANCH  11   8
ATOM      8  S   UNL     1      -1.403   2.237  24.656  0.00  0.00    +0.077 S 
ATOM      9  O   UNL     1      -1.217   1.930  25.399  0.00  0.00    -0.152 OA
ATOM     10  O   UNL     1      -1.590   2.544  23.913  0.00  0.00    -0.152 OA
BRANCH   8   5
ATOM      1  C   UNL     1      -2.876   4.818  26.091  0.00  0.00    +0.031 C 
ATOM      2  C   UNL     1      -2.507   4.173  25.732  0.00  0.00    -0.022 A 
ATOM      3  C   UNL     1      -1.703   4.206  25.551  0.00  0.00    -0.003 A 
ATOM      4  C   UNL     1      -1.335   3.560  25.192  0.00  0.00    +0.020 A 
ATOM      5  C   UNL     1      -1.771   2.883  25.015  0.00  0.00    +0.124 A 
ATOM      6  C   UNL     1      -2.575   2.850  25.196  0.00  0.00    +0.020 A 
ATOM      7  C   UNL     1      -2.943   3.496  25.555  0.00  0.00    -0.003 A 
ENDBRANCH   8   5
ENDBRANCH  11   8
ENDBRANCH  12  11
ENDBRANCH  13  12
BRANCH  20  21
ATOM     21  C   UNL     1       2.281  -0.034  22.558  0.00  0.00    +0.074 C 
BRANCH  21  22
ATOM     22  N   UNL     1       3.061   0.117  22.778  0.00  0.00    -0.269 NA
ATOM     23  C   UNL     1       3.418   0.831  22.570  0.00  0.00    +0.077 C 
ATOM     24  C   UNL     1       4.199   0.983  22.790  0.00  0.00    +0.043 C 
ATOM     25  C   UNL     1       4.623   0.419  23.220  0.00  0.00    -0.023 A 
ATOM     26  C   UNL     1       4.265  -0.295  23.428  0.00  0.00    -0.010 A 
ATOM     27  C   UNL     1       3.485  -0.446  23.208  0.00  0.00    +0.099 C 
ATOM     28  C   UNL     1       4.689  -0.858  23.858  0.00  0.00    -0.003 A 
ATOM     29  C   UNL     1       5.470  -0.707  24.079  0.00  0.00    -0.000 A 
ATOM     30  C   UNL     1       5.826   0.007  23.870  0.00  0.00    -0.000 A 
ATOM     31  C   UNL     1       5.403   0.570  23.440  0.00  0.00    -0.004 A 
ENDBRANCH  21  22
ENDBRANCH  20  21
TORSDOF 6
ENDMDL
MODEL 7
REMARK VINA RESULT:     -10.1      4.558      5.861
REMARK  Name = 
REMARK  6 active torsions:
REMARK  status: ('A' for Active; 'I' for Inactive)
REMARK    1  A    between atoms: C_5  and  S_8
REMARK    2  A    between atoms: S_8  and  N_11
REMARK    3  A    between atoms: N_11  and  C_12
REMARK    4  A    between atoms: C_12  and  C_13
REMARK    5  A    between atoms: C_20  and  C_21
REMARK    6  A    between atoms: C_21  and  N_22
REMARK                            x       y       z     vdW  Elec       q    Type
REMARK                         _______ _______ _______ _____ _____    ______ ____
ROOT
ATOM     13  C   UNL     1       0.451   0.342  23.678  0.00  0.00    +0.077 C 
ATOM     14  C   UNL     1      -0.002  -0.215  23.979  0.00  0.00    +0.018 C 
ATOM     15  C   UNL     1      -0.788  -0.136  24.158  0.00  0.00    +0.005 C 
ATOM     16  C   UNL     1      -1.130  -0.893  24.496  0.00  0.00    +0.017 C 
ATOM     17  C   UNL     1      -0.662  -0.510  24.249  0.00  0.00    +0.072 C 
ATOM     18  N   UNL     1      -0.349   0.412  23.863  0.00  0.00    -0.272 NA
ATOM     19  C   UNL     1      -0.934   1.110  23.786  0.00  0.00    +0.073 C 
ATOM     20  C   UNL     1      -1.344   0.538  24.081  0.00  0.00    +0.032 C 
ENDROOT
BRANCH  13  12
ATOM     12  C   UNL     1       1.170   0.632  23.396  0.00  0.00    +0.131 C 
BRANCH  12  11
ATOM     11  N   UNL     1       1.634   0.167  22.896  0.00  0.00    -0.076 NA
BRANCH  11   8
ATOM      8  S   UNL     1       2.456   0.181  22.965  0.00  0.00    +0.077 S 
ATOM      9  O   UNL     1       2.422   0.966  23.216  0.00  0.00    -0.152 OA
ATOM     10  O   UNL     1       2.490  -0.605  22.713  0.00  0.00    -0.152 OA
BRANCH   8   5
ATOM      1  C   UNL     1       5.744   0.236  23.240  0.00  0.00    +0.031 C 
ATOM      2  C   UNL     1       4.922   0.222  23.171  0.00  0.00    -0.022 A 
ATOM      3  C   UNL     1       4.497  -0.434  23.435  0.00  0.00    -0.003 A 
ATOM      4  C   UNL     1       3.675  -0.448  23.366  0.00  0.00    +0.020 A 
ATOM      5  C   UNL     1       3.277   0.194  23.034  0.00  0.00    +0.124 A 
ATOM      6  C   UNL     1       3.703   0.851  22.770  0.00  0.00    +0.020 A 
ATOM      7  C   UNL     1       4.525   0.864  22.839  0.00  0.00    -0.003 A 
ENDBRANCH   8   5
ENDBRANCH  11   8
ENDBRANCH  12  11
ENDBRANCH  13  12
BRANCH  20  21
ATOM     21  C   UNL     1      -2.144   0.551  24.285  0.00  0.00    +0.074 C 
BRANCH  21  22
ATOM     22  N   UNL     1      -2.584   1.240  24.182  0.00  0.00    -0.269 NA
ATOM     23  C   UNL     1      -2.905   1.419  23.443  0.00  0.00    +0.077 C 
ATOM     24  C   UNL     1      -3.346   2.109  23.339  0.00  0.00    +0.043 C 
ATOM     25  C   UNL     1      -3.467   2.620  23.976  0.00  0.00    -0.023 A 
ATOM     26  C   UNL     1      -3.146   2.441  24.715  0.00  0.00    -0.010 A 
ATOM     27  C   UNL     1      -2.705   1.752  24.819  0.00  0.00    +0.099 C 
ATOM     28  C   UNL     1      -3.267   2.953  25.351  0.00  0.00    -0.003 A 
ATOM     29  C   UNL     1      -3.708   3.643  25.248  0.00  0.00    -0.000 A 
ATOM     30  C   UNL     1      -4.028   3.821  24.508  0.00  0.00    -0.000 A 
ATOM     31  C   UNL     1      -3.907   3.310  23.872  0.00  0.00    -0.004 A 
ENDBRANCH  21  22
ENDBRANCH  20  21
TORSDOF 6
ENDMDL
