REMARK  Name = 
REMARK  5 active torsions:
REMARK  status: ('A' for Active; 'I' for Inactive)
REMARK    1  A    between atoms: C_5  and  N_8
REMARK    2  A    between atoms: C_11  and  C_13
REMARK    3  A    between atoms: C_16  and  C_17
REMARK    4  A    between atoms: C_17  and  O_18
REMARK    5  A    between atoms: O_18  and  C_19
REMARK                            x       y       z     vdW  Elec       q    Type
REMARK                         _______ _______ _______ _____ _____    ______ ____
ROOT
ATOM     13  C   UNL     1       1.841  -6.215   0.000  0.00  0.00    +0.227 A 
ATOM     14  N   UNL     1       2.096  -7.000   0.000  0.00  0.00    -0.112 NA
ATOM     15  N   UNL     1       1.429  -7.484   0.000  0.00  0.00    -0.108 NA
ATOM     16  C   UNL     1       0.761  -7.000   0.000  0.00  0.00    +0.270 A 
ATOM     26  O   UNL     1       1.016  -6.215   0.000  0.00  0.00    -0.420 OA
ENDROOT
BRANCH  13  11
ATOM      8  N   UNL     1       2.739  -4.278   0.000  0.00  0.00    -0.273 NA
ATOM      9  C   UNL     1       3.406  -4.763   0.000  0.00  0.00    +0.073 C 
ATOM     10  C   UNL     1       3.151  -5.548   0.000  0.00  0.00    +0.028 C 
ATOM     11  C   UNL     1       2.326  -5.548   0.000  0.00  0.00    +0.095 C 
ATOM     12  C   UNL     1       2.071  -4.763   0.000  0.00  0.00    +0.081 C 
BRANCH   8   5
ATOM      1  C   UNL     1       2.739  -0.978   0.000  0.00  0.00    +0.090 C 
ATOM      2  N   UNL     1       2.739  -1.803   0.000  0.00  0.00    -0.271 NA
ATOM      3  C   UNL     1       3.453  -2.216   0.000  0.00  0.00    +0.074 C 
ATOM      4  C   UNL     1       3.453  -3.041   0.000  0.00  0.00    +0.033 C 
ATOM      5  C   UNL     1       2.739  -3.453   0.000  0.00  0.00    +0.060 C 
ATOM      6  C   UNL     1       2.024  -3.041   0.000  0.00  0.00    +0.033 C 
ATOM      7  C   UNL     1       2.024  -2.216   0.000  0.00  0.00    +0.074 C 
ENDBRANCH   8   5
ENDBRANCH  13  11
BRANCH  16  17
ATOM     17  C   UNL     1      -0.023  -7.255   0.000  0.00  0.00    +0.291 C 
BRANCH  17  18
ATOM     18  O   UNL     1      -0.195  -8.062   0.000  0.00  0.00    -0.465 OA
BRANCH  18  19
ATOM     19  C   UNL     1      -0.979  -8.316   0.000  0.00  0.00    +0.139 A 
ATOM     20  C   UNL     1      -1.151  -9.123   0.000  0.00  0.00    +0.039 A 
ATOM     21  C   UNL     1      -1.935  -9.378   0.000  0.00  0.00    +0.033 A 
ATOM     22  C   UNL     1      -2.549  -8.826   0.000  0.00  0.00    +0.140 A 
ATOM     23  F   UNL     1      -3.333  -9.081   0.000  0.00  0.00    -0.204 F 
ATOM     24  C   UNL     1      -2.377  -8.019   0.000  0.00  0.00    +0.033 A 
ATOM     25  C   UNL     1      -1.592  -7.764   0.000  0.00  0.00    +0.039 A 
ENDBRANCH  18  19
ENDBRANCH  17  18
ENDBRANCH  16  17
TORSDOF 5
