REMARK  Name = 
REMARK  5 active torsions:
REMARK  status: ('A' for Active; 'I' for Inactive)
REMARK    1  A    between atoms: C_4  and  C_5
REMARK    2  A    between atoms: C_5  and  N_6
REMARK    3  A    between atoms: C_15  and  N_16
REMARK    4  A    between atoms: C_17  and  C_19
REMARK    5  A    between atoms: C_22  and  C_25
REMARK                            x       y       z     vdW  Elec       q    Type
REMARK                         _______ _______ _______ _____ _____    ______ ____
ROOT
ATOM      6  N   UNL     1       0.813  -2.091   0.000  0.00  0.00    -0.269 NA
ATOM      7  C   UNL     1       1.629  -1.912   0.000  0.00  0.00    +0.074 C 
ATOM      8  C   UNL     1       1.582  -0.925   0.000  0.00  0.00    +0.039 C 
ATOM      9  C   UNL     1       1.713  -0.121   0.000  0.00  0.00    +0.011 C 
ATOM     10  C   UNL     1       1.163  -0.557   0.000  0.00  0.00    +0.054 C 
ATOM     11  C   UNL     1       1.225  -1.510   0.000  0.00  0.00    +0.078 C 
ATOM     12  C   UNL     1       0.244  -0.558   0.000  0.00  0.00    +0.041 A 
ATOM     13  C   UNL     1      -0.397  -0.039   0.000  0.00  0.00    +0.014 A 
ATOM     14  C   UNL     1      -1.167  -0.335   0.000  0.00  0.00    +0.023 A 
ATOM     15  C   UNL     1      -1.296  -1.150   0.000  0.00  0.00    +0.130 A 
ATOM     27  C   UNL     1      -0.655  -1.669   0.000  0.00  0.00    +0.276 A 
ATOM     28  O   UNL     1      -0.784  -2.484   0.000  0.00  0.00    -0.266 OA
ATOM     29  N   UNL     1       0.115  -1.373   0.000  0.00  0.00    -0.298 N 
ATOM     30  C   UNL     1       0.622  -0.936   0.000  0.00  0.00    +0.110 C 
ENDROOT
BRANCH  15  16
ATOM     16  N   UNL     1      -2.066  -1.445   0.000  0.00  0.00    -0.171 NA
ATOM     17  C   UNL     1      -2.195  -2.260   0.000  0.00  0.00    +0.269 C 
ATOM     18  O   UNL     1      -1.554  -2.779   0.000  0.00  0.00    -0.268 OA
BRANCH  17  19
ATOM     19  C   UNL     1      -2.965  -2.556   0.000  0.00  0.00    +0.055 A 
ATOM     20  C   UNL     1      -3.094  -3.371   0.000  0.00  0.00    +0.005 A 
ATOM     21  C   UNL     1      -3.864  -3.667   0.000  0.00  0.00    +0.010 A 
ATOM     22  C   UNL     1      -4.505  -3.147   0.000  0.00  0.00    +0.068 A 
ATOM     23  C   UNL     1      -4.377  -2.333   0.000  0.00  0.00    +0.010 A 
ATOM     24  C   UNL     1      -3.606  -2.037   0.000  0.00  0.00    +0.005 A 
BRANCH  22  25
ATOM     25  C   UNL     1      -5.276  -3.443   0.000  0.00  0.00    +0.100 C 
ATOM     26  N   UNL     1      -6.046  -3.739   0.000  0.00  0.00    -0.191 NA
ENDBRANCH  22  25
ENDBRANCH  17  19
ENDBRANCH  15  16
BRANCH   6   5
ATOM      5  C   UNL     1       0.125  -2.547   0.000  0.00  0.00    +0.101 C 
BRANCH   5   4
ATOM      1  C   UNL     1       1.190  -5.249   0.000  0.00  0.00    +0.130 C 
ATOM      2  N   UNL     1       0.665  -4.612   0.000  0.00  0.00    -0.324 N 
ATOM      3  C   UNL     1       0.872  -3.813   0.000  0.00  0.00    +0.073 A 
ATOM      4  C   UNL     1       0.176  -3.370   0.000  0.00  0.00    +0.012 A 
ATOM     31  C   UNL     1      -0.461  -3.896   0.000  0.00  0.00    +0.015 A 
ATOM     32  C   UNL     1      -0.158  -4.663   0.000  0.00  0.00    +0.060 A 
ATOM     33  C   UNL     1      -0.671  -5.309   0.000  0.00  0.00    +0.017 A 
ATOM     34  C   UNL     1      -1.487  -5.187   0.000  0.00  0.00    +0.001 A 
ATOM     35  C   UNL     1      -1.790  -4.420   0.000  0.00  0.00    +0.000 A 
ATOM     36  C   UNL     1      -1.277  -3.774   0.000  0.00  0.00    +0.001 A 
ENDBRANCH   5   4
ENDBRANCH   6   5
TORSDOF 5
