MODEL 1
REMARK VINA RESULT:     -12.7      0.000      0.000
REMARK  Name = 
REMARK  7 active torsions:
REMARK  status: ('A' for Active; 'I' for Inactive)
REMARK    1  A    between atoms: C_5  and  C_6
REMARK    2  A    between atoms: C_6  and  C_7
REMARK    3  A    between atoms: C_10  and  C_12
REMARK    4  A    between atoms: C_20  and  C_21
REMARK    5  A    between atoms: C_21  and  N_22
REMARK    6  A    between atoms: N_22  and  C_23
REMARK    7  A    between atoms: C_23  and  C_24
REMARK                            x       y       z     vdW  Elec       q    Type
REMARK                         _______ _______ _______ _____ _____    ______ ____
ROOT
ATOM      1  O   UNL     1      -5.563   3.346  26.396  0.00  0.00    -0.220 OA
ATOM      2  C   UNL     1      -5.272   2.881  25.780  0.00  0.00    +0.180 C 
ATOM      3  C   UNL     1      -5.741   2.285  25.456  0.00  0.00    +0.038 C 
ATOM      4  C   UNL     1      -5.450   1.819  24.840  0.00  0.00    +0.033 C 
ATOM      5  C   UNL     1      -4.689   1.951  24.548  0.00  0.00    +0.121 C 
ATOM     19  O   UNL     1      -4.220   2.547  24.873  0.00  0.00    -0.354 OA
ATOM     20  C   UNL     1      -4.511   3.012  25.488  0.00  0.00    +0.163 C 
ENDROOT
BRANCH   5   6
ATOM      6  C   UNL     1      -4.398   1.485  23.932  0.00  0.00    +0.079 C 
BRANCH   6   7
ATOM      7  C   UNL     1      -3.938   0.820  24.099  0.00  0.00    +0.103 A 
ATOM      8  N   UNL     1      -3.120   0.811  24.208  0.00  0.00    -0.081 NA
ATOM      9  O   UNL     1      -2.893   0.033  24.362  0.00  0.00    -0.354 OA
ATOM     10  C   UNL     1      -3.570  -0.438  24.348  0.00  0.00    +0.177 A 
ATOM     11  C   UNL     1      -4.216   0.048  24.185  0.00  0.00    +0.058 A 
BRANCH  10  12
ATOM     12  C   UNL     1      -3.596  -1.253  24.474  0.00  0.00    +0.037 A 
ATOM     13  C   UNL     1      -3.291  -1.573  25.170  0.00  0.00    +0.005 A 
ATOM     14  C   UNL     1      -3.317  -2.388  25.296  0.00  0.00    +0.030 A 
ATOM     15  C   UNL     1      -3.649  -2.883  24.726  0.00  0.00    +0.140 A 
ATOM     16  F   UNL     1      -3.676  -3.698  24.852  0.00  0.00    -0.204 F 
ATOM     17  C   UNL     1      -3.955  -2.563  24.029  0.00  0.00    +0.030 A 
ATOM     18  C   UNL     1      -3.929  -1.748  23.903  0.00  0.00    +0.005 A 
ENDBRANCH  10  12
ENDBRANCH   6   7
ENDBRANCH   5   6
BRANCH  20  21
ATOM     21  C   UNL     1      -4.042   3.608  25.812  0.00  0.00    +0.121 C 
BRANCH  21  22
ATOM     22  N   UNL     1      -3.318   3.799  25.464  0.00  0.00    -0.211 NA
BRANCH  22  23
ATOM     23  C   UNL     1      -2.734   4.177  25.907  0.00  0.00    +0.115 C 
BRANCH  23  24
ATOM     24  C   UNL     1      -2.003   4.346  25.566  0.00  0.00    -0.002 A 
ATOM     25  C   UNL     1      -1.422   3.761  25.525  0.00  0.00    +0.018 A 
ATOM     26  C   UNL     1      -0.690   3.930  25.183  0.00  0.00    +0.099 A 
ATOM     27  N   UNL     1      -0.539   4.684  24.884  0.00  0.00    -0.242 NA
ATOM     28  C   UNL     1      -1.120   5.269  24.925  0.00  0.00    +0.099 A 
ATOM     29  C   UNL     1      -1.851   5.100  25.266  0.00  0.00    +0.018 A 
ENDBRANCH  23  24
ENDBRANCH  22  23
ENDBRANCH  21  22
ENDBRANCH  20  21
TORSDOF 7
ENDMDL
MODEL 2
REMARK VINA RESULT:     -12.5      1.684      3.290
REMARK  Name = 
REMARK  7 active torsions:
REMARK  status: ('A' for Active; 'I' for Inactive)
REMARK    1  A    between atoms: C_5  and  C_6
REMARK    2  A    between atoms: C_6  and  C_7
REMARK    3  A    between atoms: C_10  and  C_12
REMARK    4  A    between atoms: C_20  and  C_21
REMARK    5  A    between atoms: C_21  and  N_22
REMARK    6  A    between atoms: N_22  and  C_23
REMARK    7  A    between atoms: C_23  and  C_24
REMARK                            x       y       z     vdW  Elec       q    Type
REMARK                         _______ _______ _______ _____ _____    ______ ____
ROOT
ATOM      1  O   UNL     1      -1.109   3.738  25.812  0.00  0.00    -0.220 OA
ATOM      2  C   UNL     1      -1.012   2.951  25.584  0.00  0.00    +0.180 C 
ATOM      3  C   UNL     1      -0.355   2.525  25.842  0.00  0.00    +0.038 C 
ATOM      4  C   UNL     1      -0.259   1.737  25.614  0.00  0.00    +0.033 C 
ATOM      5  C   UNL     1      -0.820   1.377  25.128  0.00  0.00    +0.121 C 
ATOM     19  O   UNL     1      -1.477   1.804  24.870  0.00  0.00    -0.354 OA
ATOM     20  C   UNL     1      -1.573   2.590  25.098  0.00  0.00    +0.163 C 
ENDROOT
BRANCH   5   6
ATOM      6  C   UNL     1      -0.723   0.590  24.899  0.00  0.00    +0.079 C 
BRANCH   6   7
ATOM      7  C   UNL     1      -1.294   0.029  25.100  0.00  0.00    +0.103 A 
ATOM      8  N   UNL     1      -1.451  -0.253  25.860  0.00  0.00    -0.081 NA
ATOM      9  O   UNL     1      -2.061  -0.804  25.806  0.00  0.00    -0.354 OA
ATOM     10  C   UNL     1      -2.282  -0.863  25.013  0.00  0.00    +0.177 A 
ATOM     11  C   UNL     1      -1.808  -0.349  24.577  0.00  0.00    +0.058 A 
BRANCH  10  12
ATOM     12  C   UNL     1      -2.874  -1.352  24.710  0.00  0.00    +0.037 A 
ATOM     13  C   UNL     1      -2.797  -2.171  24.756  0.00  0.00    +0.005 A 
ATOM     14  C   UNL     1      -3.388  -2.660  24.453  0.00  0.00    +0.030 A 
ATOM     15  C   UNL     1      -4.058  -2.329  24.103  0.00  0.00    +0.140 A 
ATOM     16  F   UNL     1      -4.649  -2.817  23.800  0.00  0.00    -0.204 F 
ATOM     17  C   UNL     1      -4.136  -1.508  24.056  0.00  0.00    +0.030 A 
ATOM     18  C   UNL     1      -3.544  -1.020  24.360  0.00  0.00    +0.005 A 
ENDBRANCH  10  12
ENDBRANCH   6   7
ENDBRANCH   5   6
BRANCH  20  21
ATOM     21  C   UNL     1      -2.230   3.017  24.840  0.00  0.00    +0.121 C 
BRANCH  21  22
ATOM     22  N   UNL     1      -2.991   2.756  25.025  0.00  0.00    -0.211 NA
BRANCH  22  23
ATOM     23  C   UNL     1      -3.645   3.090  24.649  0.00  0.00    +0.115 C 
BRANCH  23  24
ATOM     24  C   UNL     1      -4.407   2.888  24.891  0.00  0.00    -0.002 A 
ATOM     25  C   UNL     1      -4.792   3.340  25.464  0.00  0.00    +0.018 A 
ATOM     26  C   UNL     1      -5.555   3.138  25.707  0.00  0.00    +0.099 A 
ATOM     27  N   UNL     1      -5.932   2.483  25.376  0.00  0.00    -0.242 NA
ATOM     28  C   UNL     1      -5.547   2.031  24.803  0.00  0.00    +0.099 A 
ATOM     29  C   UNL     1      -4.786   2.233  24.561  0.00  0.00    +0.018 A 
ENDBRANCH  23  24
ENDBRANCH  22  23
ENDBRANCH  21  22
ENDBRANCH  20  21
TORSDOF 7
ENDMDL
MODEL 3
REMARK VINA RESULT:     -12.4      1.970      2.767
REMARK  Name = 
REMARK  7 active torsions:
REMARK  status: ('A' for Active; 'I' for Inactive)
REMARK    1  A    between atoms: C_5  and  C_6
REMARK    2  A    between atoms: C_6  and  C_7
REMARK    3  A    between atoms: C_10  and  C_12
REMARK    4  A    between atoms: C_20  and  C_21
REMARK    5  A    between atoms: C_21  and  N_22
REMARK    6  A    between atoms: N_22  and  C_23
REMARK    7  A    between atoms: C_23  and  C_24
REMARK                            x       y       z     vdW  Elec       q    Type
REMARK                         _______ _______ _______ _____ _____    ______ ____
ROOT
ATOM      1  O   UNL     1      -1.945   4.087  25.585  0.00  0.00    -0.220 OA
ATOM      2  C   UNL     1      -2.508   3.582  25.256  0.00  0.00    +0.180 C 
ATOM      3  C   UNL     1      -3.310   3.768  25.310  0.00  0.00    +0.038 C 
ATOM      4  C   UNL     1      -3.874   3.263  24.981  0.00  0.00    +0.033 C 
ATOM      5  C   UNL     1      -3.635   2.572  24.598  0.00  0.00    +0.121 C 
ATOM     19  O   UNL     1      -2.833   2.387  24.544  0.00  0.00    -0.354 OA
ATOM     20  C   UNL     1      -2.270   2.891  24.873  0.00  0.00    +0.163 C 
ENDROOT
BRANCH   5   6
ATOM      6  C   UNL     1      -4.199   2.067  24.269  0.00  0.00    +0.079 C 
BRANCH   6   7
ATOM      7  C   UNL     1      -4.316   1.315  24.587  0.00  0.00    +0.103 A 
ATOM      8  N   UNL     1      -4.755   1.138  25.263  0.00  0.00    -0.081 NA
ATOM      9  O   UNL     1      -4.724   0.322  25.380  0.00  0.00    -0.354 OA
ATOM     10  C   UNL     1      -4.266  -0.005  24.776  0.00  0.00    +0.177 A 
ATOM     11  C   UNL     1      -4.014   0.609  24.287  0.00  0.00    +0.058 A 
BRANCH  10  12
ATOM     12  C   UNL     1      -4.092  -0.806  24.679  0.00  0.00    +0.037 A 
ATOM     13  C   UNL     1      -3.716  -1.222  25.283  0.00  0.00    +0.005 A 
ATOM     14  C   UNL     1      -3.541  -2.023  25.186  0.00  0.00    +0.030 A 
ATOM     15  C   UNL     1      -3.743  -2.407  24.485  0.00  0.00    +0.140 A 
ATOM     16  F   UNL     1      -3.568  -3.207  24.388  0.00  0.00    -0.204 F 
ATOM     17  C   UNL     1      -4.119  -1.990  23.880  0.00  0.00    +0.030 A 
ATOM     18  C   UNL     1      -4.294  -1.189  23.977  0.00  0.00    +0.005 A 
ENDBRANCH  10  12
ENDBRANCH   6   7
ENDBRANCH   5   6
BRANCH  20  21
ATOM     21  C   UNL     1      -1.468   2.705  24.818  0.00  0.00    +0.121 C 
BRANCH  21  22
ATOM     22  N   UNL     1      -1.232   1.986  24.489  0.00  0.00    -0.211 NA
BRANCH  22  23
ATOM     23  C   UNL     1      -0.479   1.687  24.646  0.00  0.00    +0.115 C 
BRANCH  23  24
ATOM     24  C   UNL     1      -0.266   0.941  24.369  0.00  0.00    -0.002 A 
ATOM     25  C   UNL     1      -0.475   0.267  24.797  0.00  0.00    +0.018 A 
ATOM     26  C   UNL     1      -0.262  -0.481  24.520  0.00  0.00    +0.099 A 
ATOM     27  N   UNL     1       0.160  -0.554  23.815  0.00  0.00    -0.242 NA
ATOM     28  C   UNL     1       0.370   0.120  23.387  0.00  0.00    +0.099 A 
ATOM     29  C   UNL     1       0.157   0.866  23.664  0.00  0.00    +0.018 A 
ENDBRANCH  23  24
ENDBRANCH  22  23
ENDBRANCH  21  22
ENDBRANCH  20  21
TORSDOF 7
ENDMDL
MODEL 4
REMARK VINA RESULT:     -12.1      2.440      5.122
REMARK  Name = 
REMARK  7 active torsions:
REMARK  status: ('A' for Active; 'I' for Inactive)
REMARK    1  A    between atoms: C_5  and  C_6
REMARK    2  A    between atoms: C_6  and  C_7
REMARK    3  A    between atoms: C_10  and  C_12
REMARK    4  A    between atoms: C_20  and  C_21
REMARK    5  A    between atoms: C_21  and  N_22
REMARK    6  A    between atoms: N_22  and  C_23
REMARK    7  A    between atoms: C_23  and  C_24
REMARK                            x       y       z     vdW  Elec       q    Type
REMARK                         _______ _______ _______ _____ _____    ______ ____
ROOT
ATOM      1  O   UNL     1      -3.465  -1.545  25.520  0.00  0.00    -0.220 OA
ATOM      2  C   UNL     1      -2.858  -1.026  25.317  0.00  0.00    +0.180 C 
ATOM      3  C   UNL     1      -2.072  -1.237  25.453  0.00  0.00    +0.038 C 
ATOM      4  C   UNL     1      -1.464  -0.717  25.250  0.00  0.00    +0.033 C 
ATOM      5  C   UNL     1      -1.643   0.014  24.911  0.00  0.00    +0.121 C 
ATOM     19  O   UNL     1      -2.428   0.225  24.775  0.00  0.00    -0.354 OA
ATOM     20  C   UNL     1      -3.036  -0.295  24.978  0.00  0.00    +0.163 C 
ENDROOT
BRANCH   5   6
ATOM      6  C   UNL     1      -1.034   0.534  24.708  0.00  0.00    +0.079 C 
BRANCH   6   7
ATOM      7  C   UNL     1      -0.958   1.254  25.103  0.00  0.00    +0.103 A 
ATOM      8  N   UNL     1      -0.652   1.361  25.862  0.00  0.00    -0.081 NA
ATOM      9  O   UNL     1      -0.679   2.166  26.036  0.00  0.00    -0.354 OA
ATOM     10  C   UNL     1      -1.002   2.557  25.385  0.00  0.00    +0.177 A 
ATOM     11  C   UNL     1      -1.174   1.994  24.809  0.00  0.00    +0.058 A 
BRANCH  10  12
ATOM     12  C   UNL     1      -1.130   3.370  25.322  0.00  0.00    +0.037 A 
ATOM     13  C   UNL     1      -0.599   3.840  24.902  0.00  0.00    +0.005 A 
ATOM     14  C   UNL     1      -0.727   4.653  24.839  0.00  0.00    +0.030 A 
ATOM     15  C   UNL     1      -1.386   4.996  25.197  0.00  0.00    +0.140 A 
ATOM     16  F   UNL     1      -1.514   5.808  25.135  0.00  0.00    -0.204 F 
ATOM     17  C   UNL     1      -1.918   4.526  25.619  0.00  0.00    +0.030 A 
ATOM     18  C   UNL     1      -1.790   3.712  25.682  0.00  0.00    +0.005 A 
ENDBRANCH  10  12
ENDBRANCH   6   7
ENDBRANCH   5   6
BRANCH  20  21
ATOM     21  C   UNL     1      -3.821  -0.083  24.842  0.00  0.00    +0.121 C 
BRANCH  21  22
ATOM     22  N   UNL     1      -4.098   0.656  25.084  0.00  0.00    -0.211 NA
BRANCH  22  23
ATOM     23  C   UNL     1      -4.820   0.939  24.803  0.00  0.00    +0.115 C 
BRANCH  23  24
ATOM     24  C   UNL     1      -5.082   1.689  25.020  0.00  0.00    -0.002 A 
ATOM     25  C   UNL     1      -5.541   1.785  25.700  0.00  0.00    +0.018 A 
ATOM     26  C   UNL     1      -5.803   2.537  25.918  0.00  0.00    +0.099 A 
ATOM     27  N   UNL     1      -5.607   3.192  25.457  0.00  0.00    -0.242 NA
ATOM     28  C   UNL     1      -5.148   3.096  24.778  0.00  0.00    +0.099 A 
ATOM     29  C   UNL     1      -4.886   2.345  24.560  0.00  0.00    +0.018 A 
ENDBRANCH  23  24
ENDBRANCH  22  23
ENDBRANCH  21  22
ENDBRANCH  20  21
TORSDOF 7
ENDMDL
MODEL 5
REMARK VINA RESULT:     -11.9      2.138      4.241
REMARK  Name = 
REMARK  7 active torsions:
REMARK  status: ('A' for Active; 'I' for Inactive)
REMARK    1  A    between atoms: C_5  and  C_6
REMARK    2  A    between atoms: C_6  and  C_7
REMARK    3  A    between atoms: C_10  and  C_12
REMARK    4  A    between atoms: C_20  and  C_21
REMARK    5  A    between atoms: C_21  and  N_22
REMARK    6  A    between atoms: N_22  and  C_23
REMARK    7  A    between atoms: C_23  and  C_24
REMARK                            x       y       z     vdW  Elec       q    Type
REMARK                         _______ _______ _______ _____ _____    ______ ____
ROOT
ATOM      1  O   UNL     1      -0.547  -1.794  24.355  0.00  0.00    -0.220 OA
ATOM      2  C   UNL     1      -1.301  -1.610  24.634  0.00  0.00    +0.180 C 
ATOM      3  C   UNL     1      -1.916  -2.153  24.549  0.00  0.00    +0.038 C 
ATOM      4  C   UNL     1      -2.671  -1.968  24.828  0.00  0.00    +0.033 C 
ATOM      5  C   UNL     1      -2.809  -1.242  25.193  0.00  0.00    +0.121 C 
ATOM     19  O   UNL     1      -2.193  -0.699  25.279  0.00  0.00    -0.354 OA
ATOM     20  C   UNL     1      -1.440  -0.883  24.999  0.00  0.00    +0.163 C 
ENDROOT
BRANCH   5   6
ATOM      6  C   UNL     1      -3.564  -1.057  25.473  0.00  0.00    +0.079 C 
BRANCH   6   7
ATOM      7  C   UNL     1      -3.987  -0.434  25.137  0.00  0.00    +0.103 A 
ATOM      8  N   UNL     1      -4.358  -0.442  24.399  0.00  0.00    -0.081 NA
ATOM      9  O   UNL     1      -4.715   0.293  24.286  0.00  0.00    -0.354 OA
ATOM     10  C   UNL     1      -4.565   0.755  24.953  0.00  0.00    +0.177 A 
ATOM     11  C   UNL     1      -4.115   0.305  25.479  0.00  0.00    +0.058 A 
BRANCH  10  12
ATOM     12  C   UNL     1      -4.819   1.530  25.073  0.00  0.00    +0.037 A 
ATOM     13  C   UNL     1      -5.550   1.675  25.427  0.00  0.00    +0.005 A 
ATOM     14  C   UNL     1      -5.805   2.451  25.547  0.00  0.00    +0.030 A 
ATOM     15  C   UNL     1      -5.329   3.082  25.313  0.00  0.00    +0.140 A 
ATOM     16  F   UNL     1      -5.583   3.857  25.433  0.00  0.00    -0.204 F 
ATOM     17  C   UNL     1      -4.597   2.938  24.959  0.00  0.00    +0.030 A 
ATOM     18  C   UNL     1      -4.342   2.162  24.839  0.00  0.00    +0.005 A 
ENDBRANCH  10  12
ENDBRANCH   6   7
ENDBRANCH   5   6
BRANCH  20  21
ATOM     21  C   UNL     1      -0.824  -0.341  25.085  0.00  0.00    +0.121 C 
BRANCH  21  22
ATOM     22  N   UNL     1      -0.986   0.469  25.094  0.00  0.00    -0.211 NA
BRANCH  22  23
ATOM     23  C   UNL     1      -0.367   1.013  25.128  0.00  0.00    +0.115 C 
BRANCH  23  24
ATOM     24  C   UNL     1      -0.529   1.821  25.154  0.00  0.00    -0.002 A 
ATOM     25  C   UNL     1      -0.568   2.256  24.454  0.00  0.00    +0.018 A 
ATOM     26  C   UNL     1      -0.730   3.065  24.479  0.00  0.00    +0.099 A 
ATOM     27  N   UNL     1      -0.853   3.438  25.204  0.00  0.00    -0.242 NA
ATOM     28  C   UNL     1      -0.814   3.003  25.904  0.00  0.00    +0.099 A 
ATOM     29  C   UNL     1      -0.652   2.195  25.879  0.00  0.00    +0.018 A 
ENDBRANCH  23  24
ENDBRANCH  22  23
ENDBRANCH  21  22
ENDBRANCH  20  21
TORSDOF 7
ENDMDL
MODEL 6
REMARK VINA RESULT:      -9.0     16.774     19.003
REMARK  Name = 
REMARK  7 active torsions:
REMARK  status: ('A' for Active; 'I' for Inactive)
REMARK    1  A    between atoms: C_5  and  C_6
REMARK    2  A    between atoms: C_6  and  C_7
REMARK    3  A    between atoms: C_10  and  C_12
REMARK    4  A    between atoms: C_20  and  C_21
REMARK    5  A    between atoms: C_21  and  N_22
REMARK    6  A    between atoms: N_22  and  C_23
REMARK    7  A    between atoms: C_23  and  C_24
REMARK                            x       y       z     vdW  Elec       q    Type
REMARK                         _______ _______ _______ _____ _____    ______ ____
ROOT
ATOM      1  O   UNL     1      10.503   8.496  17.148  0.00  0.00    -0.220 OA
ATOM      2  C   UNL     1      11.308   8.587  17.299  0.00  0.00    +0.180 C 
ATOM      3  C   UNL     1      11.847   8.599  16.674  0.00  0.00    +0.038 C 
ATOM      4  C   UNL     1      12.653   8.691  16.825  0.00  0.00    +0.033 C 
ATOM      5  C   UNL     1      12.920   8.769  17.602  0.00  0.00    +0.121 C 
ATOM     19  O   UNL     1      12.382   8.757  18.227  0.00  0.00    -0.354 OA
ATOM     20  C   UNL     1      11.577   8.666  18.075  0.00  0.00    +0.163 C 
ENDROOT
BRANCH   5   6
ATOM      6  C   UNL     1      13.727   8.861  17.753  0.00  0.00    +0.079 C 
BRANCH   6   7
ATOM      7  C   UNL     1      14.170   8.221  18.025  0.00  0.00    +0.103 A 
ATOM      8  N   UNL     1      14.404   7.567  17.578  0.00  0.00    -0.081 NA
ATOM      9  O   UNL     1      14.836   7.065  18.068  0.00  0.00    -0.354 OA
ATOM     10  C   UNL     1      14.870   7.407  18.818  0.00  0.00    +0.177 A 
ATOM     11  C   UNL     1      14.459   8.121  18.791  0.00  0.00    +0.058 A 
BRANCH  10  12
ATOM     12  C   UNL     1      15.249   7.090  19.479  0.00  0.00    +0.037 A 
ATOM     13  C   UNL     1      14.806   6.824  20.121  0.00  0.00    +0.005 A 
ATOM     14  C   UNL     1      15.185   6.507  20.782  0.00  0.00    +0.030 A 
ATOM     15  C   UNL     1      16.008   6.456  20.801  0.00  0.00    +0.140 A 
ATOM     16  F   UNL     1      16.387   6.140  21.461  0.00  0.00    -0.204 F 
ATOM     17  C   UNL     1      16.452   6.723  20.158  0.00  0.00    +0.030 A 
ATOM     18  C   UNL     1      16.073   7.040  19.497  0.00  0.00    +0.005 A 
ENDBRANCH  10  12
ENDBRANCH   6   7
ENDBRANCH   5   6
BRANCH  20  21
ATOM     21  C   UNL     1      11.038   8.654  18.701  0.00  0.00    +0.121 C 
BRANCH  21  22
ATOM     22  N   UNL     1      11.269   8.366  19.439  0.00  0.00    -0.211 NA
BRANCH  22  23
ATOM     23  C   UNL     1      10.752   8.411  20.080  0.00  0.00    +0.115 C 
BRANCH  23  24
ATOM     24  C   UNL     1      11.002   8.173  20.829  0.00  0.00    -0.002 A 
ATOM     25  C   UNL     1      11.101   7.371  20.994  0.00  0.00    +0.018 A 
ATOM     26  C   UNL     1      11.351   7.132  21.744  0.00  0.00    +0.099 A 
ATOM     27  N   UNL     1      11.501   7.696  22.327  0.00  0.00    -0.242 NA
ATOM     28  C   UNL     1      11.402   8.498  22.161  0.00  0.00    +0.099 A 
ATOM     29  C   UNL     1      11.152   8.736  21.413  0.00  0.00    +0.018 A 
ENDBRANCH  23  24
ENDBRANCH  22  23
ENDBRANCH  21  22
ENDBRANCH  20  21
TORSDOF 7
ENDMDL
