MODEL 1
REMARK VINA RESULT:     -13.7      0.000      0.000
REMARK  Name = 
REMARK  6 active torsions:
REMARK  status: ('A' for Active; 'I' for Inactive)
REMARK    1  A    between atoms: O_2  and  C_3
REMARK    2  A    between atoms: C_3  and  C_4
REMARK    3  A    between atoms: C_3  and  C_23
REMARK    4  A    between atoms: C_3  and  C_29
REMARK    5  A    between atoms: C_11  and  C_12
REMARK    6  A    between atoms: C_14  and  C_17
REMARK                            x       y       z     vdW  Elec       q    Type
REMARK                         _______ _______ _______ _____ _____    ______ ____
ROOT
ATOM      4  C   UNL     1      -3.148   2.340  24.805  0.00  0.00    +0.263 C 
ATOM      5  O   UNL     1      -2.907   1.624  24.472  0.00  0.00    -0.272 OA
ATOM      6  N   UNL     1      -3.923   2.430  25.074  0.00  0.00    -0.267 N 
ATOM      7  C   UNL     1      -4.164   3.146  25.407  0.00  0.00    +0.126 C 
ATOM      8  C   UNL     1      -4.939   3.235  25.676  0.00  0.00    +0.164 C 
ATOM      9  O   UNL     1      -5.472   2.610  25.612  0.00  0.00    -0.350 OA
ATOM     10  C   UNL     1      -5.231   1.894  25.280  0.00  0.00    +0.170 C 
ATOM     11  C   UNL     1      -4.457   1.804  25.011  0.00  0.00    +0.164 C 
ENDROOT
BRANCH  11  12
ATOM     12  C   UNL     1      -4.216   1.088  24.678  0.00  0.00    +0.160 A 
ATOM     13  N   UNL     1      -4.157   0.367  25.073  0.00  0.00    -0.227 NA
ATOM     14  C   UNL     1      -3.896  -0.199  24.532  0.00  0.00    +0.102 A 
ATOM     15  C   UNL     1      -3.794   0.174  23.803  0.00  0.00    +0.119 A 
ATOM     16  N   UNL     1      -3.992   0.970  23.894  0.00  0.00    -0.226 NA
BRANCH  14  17
ATOM     17  C   UNL     1      -3.761  -0.998  24.691  0.00  0.00    +0.019 A 
ATOM     18  C   UNL     1      -3.976  -1.570  24.138  0.00  0.00    +0.002 A 
ATOM     19  C   UNL     1      -3.841  -2.368  24.297  0.00  0.00    +0.000 A 
ATOM     20  C   UNL     1      -3.491  -2.593  25.009  0.00  0.00    +0.000 A 
ATOM     21  C   UNL     1      -3.276  -2.021  25.562  0.00  0.00    +0.000 A 
ATOM     22  C   UNL     1      -3.411  -1.222  25.403  0.00  0.00    +0.002 A 
ENDBRANCH  14  17
ENDBRANCH  11  12
BRANCH   4   3
ATOM      3  C   UNL     1      -2.614   2.967  24.868  0.00  0.00    +0.267 C 
BRANCH   3  23
ATOM     23  C   UNL     1      -2.081   3.592  24.932  0.00  0.00    +0.019 A 
ATOM     24  C   UNL     1      -1.320   3.517  24.623  0.00  0.00    -0.001 A 
ATOM     25  C   UNL     1      -0.785   4.144  24.686  0.00  0.00    -0.000 A 
ATOM     26  C   UNL     1      -1.013   4.843  25.059  0.00  0.00    -0.000 A 
ATOM     27  C   UNL     1      -1.774   4.918  25.368  0.00  0.00    -0.000 A 
ATOM     28  C   UNL     1      -2.308   4.292  25.305  0.00  0.00    -0.001 A 
ENDBRANCH   3  23
BRANCH   3  29
ATOM     29  C   UNL     1      -2.166   2.529  25.406  0.00  0.00    +0.431 C 
ATOM     30  F   UNL     1      -1.718   2.091  25.942  0.00  0.00    -0.167 F 
ATOM     31  F   UNL     1      -2.548   2.906  26.032  0.00  0.00    -0.167 F 
ATOM     32  F   UNL     1      -1.784   2.152  24.779  0.00  0.00    -0.167 F 
ENDBRANCH   3  29
BRANCH   3   2
ATOM      1  C   UNL     1      -2.843   3.428  23.535  0.00  0.00    +0.175 C 
ATOM      2  O   UNL     1      -3.063   3.403  24.331  0.00  0.00    -0.336 OA
ENDBRANCH   3   2
ENDBRANCH   4   3
TORSDOF 6
ENDMDL
MODEL 2
REMARK VINA RESULT:     -13.5      1.796      2.818
REMARK  Name = 
REMARK  6 active torsions:
REMARK  status: ('A' for Active; 'I' for Inactive)
REMARK    1  A    between atoms: O_2  and  C_3
REMARK    2  A    between atoms: C_3  and  C_4
REMARK    3  A    between atoms: C_3  and  C_23
REMARK    4  A    between atoms: C_3  and  C_29
REMARK    5  A    between atoms: C_11  and  C_12
REMARK    6  A    between atoms: C_14  and  C_17
REMARK                            x       y       z     vdW  Elec       q    Type
REMARK                         _______ _______ _______ _____ _____    ______ ____
ROOT
ATOM      4  C   UNL     1      -1.343   1.688  24.912  0.00  0.00    +0.263 C 
ATOM      5  O   UNL     1      -1.950   1.210  25.201  0.00  0.00    -0.272 OA
ATOM      6  N   UNL     1      -0.694   1.348  24.534  0.00  0.00    -0.267 N 
ATOM      7  C   UNL     1      -0.087   1.826  24.245  0.00  0.00    +0.126 C 
ATOM      8  C   UNL     1       0.562   1.485  23.867  0.00  0.00    +0.164 C 
ATOM      9  O   UNL     1       0.605   0.666  23.777  0.00  0.00    -0.350 OA
ATOM     10  C   UNL     1      -0.002   0.188  24.067  0.00  0.00    +0.170 C 
ATOM     11  C   UNL     1      -0.651   0.528  24.445  0.00  0.00    +0.164 C 
ENDROOT
BRANCH  11  12
ATOM     12  C   UNL     1      -1.258   0.050  24.734  0.00  0.00    +0.160 A 
ATOM     13  N   UNL     1      -1.809  -0.361  24.278  0.00  0.00    -0.227 NA
ATOM     14  C   UNL     1      -2.312  -0.766  24.792  0.00  0.00    +0.102 A 
ATOM     15  C   UNL     1      -2.072  -0.605  25.564  0.00  0.00    +0.119 A 
ATOM     16  N   UNL     1      -1.420  -0.099  25.528  0.00  0.00    -0.226 NA
BRANCH  14  17
ATOM     17  C   UNL     1      -2.945  -1.249  24.572  0.00  0.00    +0.019 A 
ATOM     18  C   UNL     1      -2.899  -2.064  24.684  0.00  0.00    +0.002 A 
ATOM     19  C   UNL     1      -3.532  -2.547  24.464  0.00  0.00    +0.000 A 
ATOM     20  C   UNL     1      -4.208  -2.213  24.132  0.00  0.00    +0.000 A 
ATOM     21  C   UNL     1      -4.254  -1.397  24.020  0.00  0.00    +0.000 A 
ATOM     22  C   UNL     1      -3.622  -0.915  24.240  0.00  0.00    +0.002 A 
ENDBRANCH  14  17
ENDBRANCH  11  12
BRANCH   4   3
ATOM      3  C   UNL     1      -1.385   2.508  25.001  0.00  0.00    +0.267 C 
BRANCH   3  23
ATOM     23  C   UNL     1      -1.428   3.327  25.090  0.00  0.00    +0.019 A 
ATOM     24  C   UNL     1      -2.029   3.662  25.545  0.00  0.00    -0.001 A 
ATOM     25  C   UNL     1      -2.071   4.481  25.634  0.00  0.00    -0.000 A 
ATOM     26  C   UNL     1      -1.513   4.965  25.267  0.00  0.00    -0.000 A 
ATOM     27  C   UNL     1      -0.912   4.630  24.812  0.00  0.00    -0.000 A 
ATOM     28  C   UNL     1      -0.869   3.812  24.724  0.00  0.00    -0.001 A 
ENDBRANCH   3  23
BRANCH   3  29
ATOM     29  C   UNL     1      -2.059   2.524  24.525  0.00  0.00    +0.431 C 
ATOM     30  F   UNL     1      -2.734   2.540  24.051  0.00  0.00    -0.167 F 
ATOM     31  F   UNL     1      -1.591   2.683  23.866  0.00  0.00    -0.167 F 
ATOM     32  F   UNL     1      -2.528   2.365  25.186  0.00  0.00    -0.167 F 
ENDBRANCH   3  29
BRANCH   3   2
ATOM      1  C   UNL     1      -0.783   2.566  26.296  0.00  0.00    +0.175 C 
ATOM      2  O   UNL     1      -0.711   2.491  25.476  0.00  0.00    -0.336 OA
ENDBRANCH   3   2
ENDBRANCH   4   3
TORSDOF 6
ENDMDL
MODEL 3
REMARK VINA RESULT:     -13.4      2.202      5.203
REMARK  Name = 
REMARK  6 active torsions:
REMARK  status: ('A' for Active; 'I' for Inactive)
REMARK    1  A    between atoms: O_2  and  C_3
REMARK    2  A    between atoms: C_3  and  C_4
REMARK    3  A    between atoms: C_3  and  C_23
REMARK    4  A    between atoms: C_3  and  C_29
REMARK    5  A    between atoms: C_11  and  C_12
REMARK    6  A    between atoms: C_14  and  C_17
REMARK                            x       y       z     vdW  Elec       q    Type
REMARK                         _______ _______ _______ _____ _____    ______ ____
ROOT
ATOM      4  C   UNL     1      -1.356   0.307  24.973  0.00  0.00    +0.263 C 
ATOM      5  O   UNL     1      -1.526   0.963  25.444  0.00  0.00    -0.272 OA
ATOM      6  N   UNL     1      -0.700   0.316  24.473  0.00  0.00    -0.267 N 
ATOM      7  C   UNL     1      -0.530  -0.339  24.002  0.00  0.00    +0.126 C 
ATOM      8  C   UNL     1       0.127  -0.329  23.503  0.00  0.00    +0.164 C 
ATOM      9  O   UNL     1       0.613   0.336  23.473  0.00  0.00    -0.350 OA
ATOM     10  C   UNL     1       0.443   0.992  23.944  0.00  0.00    +0.170 C 
ATOM     11  C   UNL     1      -0.213   0.983  24.444  0.00  0.00    +0.164 C 
ENDROOT
BRANCH  11  12
ATOM     12  C   UNL     1      -0.383   1.639  24.914  0.00  0.00    +0.160 A 
ATOM     13  N   UNL     1      -0.765   2.327  24.666  0.00  0.00    -0.227 NA
ATOM     14  C   UNL     1      -0.819   2.835  25.314  0.00  0.00    +0.102 A 
ATOM     15  C   UNL     1      -0.471   2.461  25.962  0.00  0.00    +0.119 A 
ATOM     16  N   UNL     1      -0.201   1.721  25.714  0.00  0.00    -0.226 NA
BRANCH  14  17
ATOM     17  C   UNL     1      -1.161   3.586  25.315  0.00  0.00    +0.019 A 
ATOM     18  C   UNL     1      -0.760   4.222  24.975  0.00  0.00    +0.002 A 
ATOM     19  C   UNL     1      -1.102   4.973  24.976  0.00  0.00    +0.000 A 
ATOM     20  C   UNL     1      -1.845   5.087  25.315  0.00  0.00    +0.000 A 
ATOM     21  C   UNL     1      -2.246   4.451  25.655  0.00  0.00    +0.000 A 
ATOM     22  C   UNL     1      -1.904   3.700  25.654  0.00  0.00    +0.002 A 
ENDBRANCH  14  17
ENDBRANCH  11  12
BRANCH   4   3
ATOM      3  C   UNL     1      -1.842  -0.359  25.002  0.00  0.00    +0.267 C 
BRANCH   3  23
ATOM     23  C   UNL     1      -2.328  -1.025  25.032  0.00  0.00    +0.019 A 
ATOM     24  C   UNL     1      -3.053  -0.989  25.424  0.00  0.00    -0.001 A 
ATOM     25  C   UNL     1      -3.540  -1.655  25.453  0.00  0.00    -0.000 A 
ATOM     26  C   UNL     1      -3.300  -2.357  25.091  0.00  0.00    -0.000 A 
ATOM     27  C   UNL     1      -2.575  -2.392  24.699  0.00  0.00    -0.000 A 
ATOM     28  C   UNL     1      -2.090  -1.727  24.669  0.00  0.00    -0.001 A 
ENDBRANCH   3  23
BRANCH   3  29
ATOM     29  C   UNL     1      -1.576  -0.520  25.766  0.00  0.00    +0.431 C 
ATOM     30  F   UNL     1      -1.310  -0.679  26.531  0.00  0.00    -0.167 F 
ATOM     31  F   UNL     1      -1.012  -1.038  25.462  0.00  0.00    -0.167 F 
ATOM     32  F   UNL     1      -2.140   0.000  26.071  0.00  0.00    -0.167 F 
ENDBRANCH   3  29
BRANCH   3   2
ATOM      1  C   UNL     1      -2.832   0.182  24.125  0.00  0.00    +0.175 C 
ATOM      2  O   UNL     1      -2.108  -0.198  24.238  0.00  0.00    -0.336 OA
ENDBRANCH   3   2
ENDBRANCH   4   3
TORSDOF 6
ENDMDL
MODEL 4
REMARK VINA RESULT:     -12.8      1.218      4.463
REMARK  Name = 
REMARK  6 active torsions:
REMARK  status: ('A' for Active; 'I' for Inactive)
REMARK    1  A    between atoms: O_2  and  C_3
REMARK    2  A    between atoms: C_3  and  C_4
REMARK    3  A    between atoms: C_3  and  C_23
REMARK    4  A    between atoms: C_3  and  C_29
REMARK    5  A    between atoms: C_11  and  C_12
REMARK    6  A    between atoms: C_14  and  C_17
REMARK                            x       y       z     vdW  Elec       q    Type
REMARK                         _______ _______ _______ _____ _____    ______ ____
ROOT
ATOM      4  C   UNL     1      -3.709   0.764  24.533  0.00  0.00    +0.263 C 
ATOM      5  O   UNL     1      -3.104   1.242  24.242  0.00  0.00    -0.272 OA
ATOM      6  N   UNL     1      -4.384   1.107  24.862  0.00  0.00    -0.267 N 
ATOM      7  C   UNL     1      -4.990   0.628  25.153  0.00  0.00    +0.126 C 
ATOM      8  C   UNL     1      -5.664   0.972  25.481  0.00  0.00    +0.164 C 
ATOM      9  O   UNL     1      -5.733   1.793  25.519  0.00  0.00    -0.350 OA
ATOM     10  C   UNL     1      -5.127   2.271  25.228  0.00  0.00    +0.170 C 
ATOM     11  C   UNL     1      -4.453   1.929  24.899  0.00  0.00    +0.164 C 
ENDROOT
BRANCH  11  12
ATOM     12  C   UNL     1      -3.847   2.407  24.608  0.00  0.00    +0.160 A 
ATOM     13  N   UNL     1      -3.263   2.776  25.058  0.00  0.00    -0.227 NA
ATOM     14  C   UNL     1      -2.773   3.197  24.544  0.00  0.00    +0.102 A 
ATOM     15  C   UNL     1      -3.055   3.087  23.776  0.00  0.00    +0.119 A 
ATOM     16  N   UNL     1      -3.719   2.598  23.816  0.00  0.00    -0.226 NA
BRANCH  14  17
ATOM     17  C   UNL     1      -2.117   3.649  24.759  0.00  0.00    +0.019 A 
ATOM     18  C   UNL     1      -1.357   3.343  24.663  0.00  0.00    +0.002 A 
ATOM     19  C   UNL     1      -0.701   3.794  24.878  0.00  0.00    +0.000 A 
ATOM     20  C   UNL     1      -0.805   4.551  25.189  0.00  0.00    +0.000 A 
ATOM     21  C   UNL     1      -1.565   4.857  25.285  0.00  0.00    +0.000 A 
ATOM     22  C   UNL     1      -2.221   4.405  25.070  0.00  0.00    +0.002 A 
ENDBRANCH  14  17
ENDBRANCH  11  12
BRANCH   4   3
ATOM      3  C   UNL     1      -3.641  -0.058  24.496  0.00  0.00    +0.267 C 
BRANCH   3  23
ATOM     23  C   UNL     1      -3.573  -0.879  24.458  0.00  0.00    +0.019 A 
ATOM     24  C   UNL     1      -2.857  -1.242  24.650  0.00  0.00    -0.001 A 
ATOM     25  C   UNL     1      -2.788  -2.064  24.612  0.00  0.00    -0.000 A 
ATOM     26  C   UNL     1      -3.436  -2.521  24.383  0.00  0.00    -0.000 A 
ATOM     27  C   UNL     1      -4.151  -2.158  24.192  0.00  0.00    -0.000 A 
ATOM     28  C   UNL     1      -4.219  -1.337  24.229  0.00  0.00    -0.001 A 
ENDBRANCH   3  23
BRANCH   3  29
ATOM     29  C   UNL     1      -3.610  -0.017  23.672  0.00  0.00    +0.431 C 
ATOM     30  F   UNL     1      -3.578   0.024  22.849  0.00  0.00    -0.167 F 
ATOM     31  F   UNL     1      -4.425  -0.136  23.635  0.00  0.00    -0.167 F 
ATOM     32  F   UNL     1      -2.794   0.102  23.709  0.00  0.00    -0.167 F 
ENDBRANCH   3  29
BRANCH   3   2
ATOM      1  C   UNL     1      -2.978  -0.207  25.753  0.00  0.00    +0.175 C 
ATOM      2  O   UNL     1      -3.672  -0.097  25.319  0.00  0.00    -0.336 OA
ENDBRANCH   3   2
ENDBRANCH   4   3
TORSDOF 6
ENDMDL
MODEL 5
REMARK VINA RESULT:     -12.0      1.874      4.719
REMARK  Name = 
REMARK  6 active torsions:
REMARK  status: ('A' for Active; 'I' for Inactive)
REMARK    1  A    between atoms: O_2  and  C_3
REMARK    2  A    between atoms: C_3  and  C_4
REMARK    3  A    between atoms: C_3  and  C_23
REMARK    4  A    between atoms: C_3  and  C_29
REMARK    5  A    between atoms: C_11  and  C_12
REMARK    6  A    between atoms: C_14  and  C_17
REMARK                            x       y       z     vdW  Elec       q    Type
REMARK                         _______ _______ _______ _____ _____    ______ ____
ROOT
ATOM      4  C   UNL     1      -3.105   0.133  24.692  0.00  0.00    +0.263 C 
ATOM      5  O   UNL     1      -3.687   0.672  24.467  0.00  0.00    -0.272 OA
ATOM      6  N   UNL     1      -2.370   0.403  24.950  0.00  0.00    -0.267 N 
ATOM      7  C   UNL     1      -1.788  -0.136  25.176  0.00  0.00    +0.126 C 
ATOM      8  C   UNL     1      -1.052   0.135  25.434  0.00  0.00    +0.164 C 
ATOM      9  O   UNL     1      -0.899   0.945  25.465  0.00  0.00    -0.350 OA
ATOM     10  C   UNL     1      -1.481   1.484  25.240  0.00  0.00    +0.170 C 
ATOM     11  C   UNL     1      -2.217   1.214  24.982  0.00  0.00    +0.164 C 
ENDROOT
BRANCH  11  12
ATOM     12  C   UNL     1      -2.799   1.753  24.756  0.00  0.00    +0.160 A 
ATOM     13  N   UNL     1      -3.324   2.139  25.262  0.00  0.00    -0.227 NA
ATOM     14  C   UNL     1      -3.808   2.625  24.803  0.00  0.00    +0.102 A 
ATOM     15  C   UNL     1      -3.581   2.539  24.014  0.00  0.00    +0.119 A 
ATOM     16  N   UNL     1      -2.957   2.000  23.986  0.00  0.00    -0.226 NA
BRANCH  14  17
ATOM     17  C   UNL     1      -4.412   3.112  25.084  0.00  0.00    +0.019 A 
ATOM     18  C   UNL     1      -5.130   2.782  25.321  0.00  0.00    +0.002 A 
ATOM     19  C   UNL     1      -5.734   3.269  25.602  0.00  0.00    +0.000 A 
ATOM     20  C   UNL     1      -5.620   4.085  25.644  0.00  0.00    +0.000 A 
ATOM     21  C   UNL     1      -4.903   4.415  25.407  0.00  0.00    +0.000 A 
ATOM     22  C   UNL     1      -4.298   3.928  25.126  0.00  0.00    +0.002 A 
ENDBRANCH  14  17
ENDBRANCH  11  12
BRANCH   4   3
ATOM      3  C   UNL     1      -3.259  -0.678  24.661  0.00  0.00    +0.267 C 
BRANCH   3  23
ATOM     23  C   UNL     1      -3.412  -1.487  24.629  0.00  0.00    +0.019 A 
ATOM     24  C   UNL     1      -3.962  -1.782  24.090  0.00  0.00    -0.001 A 
ATOM     25  C   UNL     1      -4.116  -2.593  24.058  0.00  0.00    -0.000 A 
ATOM     26  C   UNL     1      -3.719  -3.107  24.566  0.00  0.00    -0.000 A 
ATOM     27  C   UNL     1      -3.169  -2.812  25.106  0.00  0.00    -0.000 A 
ATOM     28  C   UNL     1      -3.016  -2.003  25.138  0.00  0.00    -0.001 A 
ENDBRANCH   3  23
BRANCH   3  29
ATOM     29  C   UNL     1      -3.834  -0.591  25.246  0.00  0.00    +0.431 C 
ATOM     30  F   UNL     1      -4.410  -0.504  25.830  0.00  0.00    -0.167 F 
ATOM     31  F   UNL     1      -3.273  -0.765  25.824  0.00  0.00    -0.167 F 
ATOM     32  F   UNL     1      -4.396  -0.417  24.666  0.00  0.00    -0.167 F 
ENDBRANCH   3  29
BRANCH   3   2
ATOM      1  C   UNL     1      -2.905  -0.796  23.281  0.00  0.00    +0.175 C 
ATOM      2  O   UNL     1      -2.683  -0.763  24.076  0.00  0.00    -0.336 OA
ENDBRANCH   3   2
ENDBRANCH   4   3
TORSDOF 6
ENDMDL
