MODEL 1
REMARK VINA RESULT:     -14.0      0.000      0.000
REMARK  Name = 
REMARK  4 active torsions:
REMARK  status: ('A' for Active; 'I' for Inactive)
REMARK    1  A    between atoms: C_3  and  C_4
REMARK    2  A    between atoms: N_10  and  S_12
REMARK    3  A    between atoms: S_12  and  C_15
REMARK    4  A    between atoms: C_18  and  N_19
REMARK                            x       y       z     vdW  Elec       q    Type
REMARK                         _______ _______ _______ _____ _____    ______ ____
ROOT
ATOM      4  C   UNL     1      -3.027   2.988  25.156  0.00  0.00    +0.012 A 
ATOM      5  C   UNL     1      -3.832   2.811  25.155  0.00  0.00    +0.041 A 
ATOM      6  C   UNL     1      -4.653   3.218  25.232  0.00  0.00    +0.056 C 
ATOM      7  C   UNL     1      -4.948   3.848  25.325  0.00  0.00    +0.011 C 
ATOM      8  C   UNL     1      -5.192   3.077  25.229  0.00  0.00    +0.041 C 
ATOM      9  C   UNL     1      -5.677   2.222  25.128  0.00  0.00    +0.098 C 
ATOM     10  N   UNL     1      -5.029   1.702  25.040  0.00  0.00    -0.155 NA
ATOM     11  C   UNL     1      -5.136   2.400  25.136  0.00  0.00    +0.102 C 
ATOM     25  C   UNL     1      -4.340   2.643  25.146  0.00  0.00    +0.110 C 
ATOM     26  N   UNL     1      -4.083   2.031  25.057  0.00  0.00    -0.299 N 
ATOM     27  C   UNL     1      -3.528   1.428  24.961  0.00  0.00    +0.261 A 
ATOM     28  O   UNL     1      -3.779   0.648  24.864  0.00  0.00    -0.267 OA
ATOM     29  C   UNL     1      -2.723   1.605  24.962  0.00  0.00    +0.061 A 
ATOM     30  C   UNL     1      -2.472   2.386  25.059  0.00  0.00    +0.006 A 
ENDROOT
BRANCH   4   3
ATOM      1  C   UNL     1      -1.720   4.723  25.373  0.00  0.00    +0.031 C 
ATOM      2  C   UNL     1      -1.970   3.943  25.276  0.00  0.00    -0.026 C 
ATOM      3  C   UNL     1      -2.776   3.769  25.253  0.00  0.00    -0.003 C 
ENDBRANCH   4   3
BRANCH  10  12
ATOM     12  S   UNL     1      -4.619   0.994  24.934  0.00  0.00    +0.063 S 
ATOM     13  O   UNL     1      -4.603   1.125  24.119  0.00  0.00    -0.153 OA
ATOM     14  O   UNL     1      -4.635   0.862  25.748  0.00  0.00    -0.153 OA
BRANCH  12  15
ATOM     15  C   UNL     1      -4.209   0.285  24.827  0.00  0.00    +0.122 A 
ATOM     16  C   UNL     1      -4.003  -0.174  25.480  0.00  0.00    +0.021 A 
ATOM     17  C   UNL     1      -3.593  -0.882  25.374  0.00  0.00    +0.018 A 
ATOM     18  C   UNL     1      -3.390  -1.131  24.614  0.00  0.00    +0.073 A 
ATOM     23  C   UNL     1      -3.597  -0.672  23.961  0.00  0.00    +0.018 A 
ATOM     24  C   UNL     1      -4.006   0.037  24.067  0.00  0.00    +0.021 A 
BRANCH  18  19
ATOM     19  N   UNL     1      -2.981  -1.839  24.508  0.00  0.00    -0.179 NA
ATOM     20  C   UNL     1      -3.393  -2.531  24.325  0.00  0.00    +0.246 C 
ATOM     21  C   UNL     1      -2.984  -3.238  24.218  0.00  0.00    +0.097 C 
ATOM     22  O   UNL     1      -4.214  -2.513  24.248  0.00  0.00    -0.273 OA
ENDBRANCH  18  19
ENDBRANCH  12  15
ENDBRANCH  10  12
TORSDOF 4
ENDMDL
MODEL 2
REMARK VINA RESULT:     -13.0      2.367      5.048
REMARK  Name = 
REMARK  4 active torsions:
REMARK  status: ('A' for Active; 'I' for Inactive)
REMARK    1  A    between atoms: C_3  and  C_4
REMARK    2  A    between atoms: N_10  and  S_12
REMARK    3  A    between atoms: S_12  and  C_15
REMARK    4  A    between atoms: C_18  and  N_19
REMARK                            x       y       z     vdW  Elec       q    Type
REMARK                         _______ _______ _______ _____ _____    ______ ____
ROOT
ATOM      4  C   UNL     1      -3.014  -0.969  24.400  0.00  0.00    +0.012 A 
ATOM      5  C   UNL     1      -2.208  -1.023  24.567  0.00  0.00    +0.041 A 
ATOM      6  C   UNL     1      -1.542  -1.647  24.677  0.00  0.00    +0.056 C 
ATOM      7  C   UNL     1      -1.430  -2.339  24.669  0.00  0.00    +0.011 C 
ATOM      8  C   UNL     1      -0.996  -1.661  24.791  0.00  0.00    +0.041 C 
ATOM      9  C   UNL     1      -0.314  -0.968  24.966  0.00  0.00    +0.098 C 
ATOM     10  N   UNL     1      -0.788  -0.284  24.899  0.00  0.00    -0.155 NA
ATOM     11  C   UNL     1      -0.871  -0.989  24.849  0.00  0.00    +0.102 C 
ATOM     25  C   UNL     1      -1.686  -1.002  24.677  0.00  0.00    +0.110 C 
ATOM     26  N   UNL     1      -1.766  -0.338  24.691  0.00  0.00    -0.299 N 
ATOM     27  C   UNL     1      -2.130   0.402  24.649  0.00  0.00    +0.261 A 
ATOM     28  O   UNL     1      -1.688   1.087  24.774  0.00  0.00    -0.267 OA
ATOM     29  C   UNL     1      -2.936   0.455  24.483  0.00  0.00    +0.061 A 
ATOM     30  C   UNL     1      -3.378  -0.230  24.358  0.00  0.00    +0.006 A 
ENDROOT
BRANCH   4   3
ATOM      1  C   UNL     1      -4.659  -2.289  23.835  0.00  0.00    +0.031 C 
ATOM      2  C   UNL     1      -4.216  -1.604  23.960  0.00  0.00    -0.026 C 
ATOM      3  C   UNL     1      -3.456  -1.655  24.275  0.00  0.00    -0.003 C 
ENDBRANCH   4   3
BRANCH  10  12
ATOM     12  S   UNL     1      -0.987   0.517  24.894  0.00  0.00    +0.063 S 
ATOM     13  O   UNL     1      -0.821   0.554  24.087  0.00  0.00    -0.153 OA
ATOM     14  O   UNL     1      -1.154   0.480  25.702  0.00  0.00    -0.153 OA
BRANCH  12  15
ATOM     15  C   UNL     1      -1.187   1.318  24.890  0.00  0.00    +0.122 A 
ATOM     16  C   UNL     1      -1.424   1.688  25.588  0.00  0.00    +0.021 A 
ATOM     17  C   UNL     1      -1.624   2.489  25.583  0.00  0.00    +0.018 A 
ATOM     18  C   UNL     1      -1.585   2.919  24.881  0.00  0.00    +0.073 A 
ATOM     23  C   UNL     1      -1.347   2.549  24.183  0.00  0.00    +0.018 A 
ATOM     24  C   UNL     1      -1.148   1.748  24.187  0.00  0.00    +0.021 A 
BRANCH  18  19
ATOM     19  N   UNL     1      -1.784   3.720  24.876  0.00  0.00    -0.179 NA
ATOM     20  C   UNL     1      -1.216   4.287  25.066  0.00  0.00    +0.246 C 
ATOM     21  C   UNL     1      -1.414   5.087  25.062  0.00  0.00    +0.097 C 
ATOM     22  O   UNL     1      -0.448   4.053  25.261  0.00  0.00    -0.273 OA
ENDBRANCH  18  19
ENDBRANCH  12  15
ENDBRANCH  10  12
TORSDOF 4
ENDMDL
MODEL 3
REMARK VINA RESULT:     -13.0      1.720      4.262
REMARK  Name = 
REMARK  4 active torsions:
REMARK  status: ('A' for Active; 'I' for Inactive)
REMARK    1  A    between atoms: C_3  and  C_4
REMARK    2  A    between atoms: N_10  and  S_12
REMARK    3  A    between atoms: S_12  and  C_15
REMARK    4  A    between atoms: C_18  and  N_19
REMARK                            x       y       z     vdW  Elec       q    Type
REMARK                         _______ _______ _______ _____ _____    ______ ____
ROOT
ATOM      4  C   UNL     1      -4.233   0.651  24.678  0.00  0.00    +0.012 A 
ATOM      5  C   UNL     1      -4.730   1.268  24.908  0.00  0.00    +0.041 A 
ATOM      6  C   UNL     1      -5.611   1.439  25.106  0.00  0.00    +0.056 C 
ATOM      7  C   UNL     1      -6.236   1.124  25.148  0.00  0.00    +0.011 C 
ATOM      8  C   UNL     1      -5.929   1.869  25.262  0.00  0.00    +0.041 C 
ATOM      9  C   UNL     1      -5.751   2.824  25.446  0.00  0.00    +0.098 C 
ATOM     10  N   UNL     1      -4.928   2.843  25.302  0.00  0.00    -0.155 NA
ATOM     11  C   UNL     1      -5.454   2.363  25.288  0.00  0.00    +0.102 C 
ATOM     25  C   UNL     1      -5.006   1.701  25.056  0.00  0.00    +0.110 C 
ATOM     26  N   UNL     1      -4.421   2.025  25.024  0.00  0.00    -0.299 N 
ATOM     27  C   UNL     1      -3.617   2.165  24.910  0.00  0.00    +0.261 A 
ATOM     28  O   UNL     1      -3.308   2.921  25.026  0.00  0.00    -0.267 OA
ATOM     29  C   UNL     1      -3.120   1.548  24.680  0.00  0.00    +0.061 A 
ATOM     30  C   UNL     1      -3.428   0.791  24.564  0.00  0.00    +0.006 A 
ENDROOT
BRANCH   4   3
ATOM      1  C   UNL     1      -4.358  -1.472  24.186  0.00  0.00    +0.031 C 
ATOM      2  C   UNL     1      -4.050  -0.715  24.302  0.00  0.00    -0.026 C 
ATOM      3  C   UNL     1      -4.541  -0.105  24.562  0.00  0.00    -0.003 C 
ENDBRANCH   4   3
BRANCH  10  12
ATOM     12  S   UNL     1      -4.165   3.151  25.234  0.00  0.00    +0.063 S 
ATOM     13  O   UNL     1      -4.027   2.985  26.030  0.00  0.00    -0.153 OA
ATOM     14  O   UNL     1      -4.304   3.318  24.437  0.00  0.00    -0.153 OA
BRANCH  12  15
ATOM     15  C   UNL     1      -3.403   3.460  25.165  0.00  0.00    +0.122 A 
ATOM     16  C   UNL     1      -3.129   3.724  24.434  0.00  0.00    +0.021 A 
ATOM     17  C   UNL     1      -2.366   4.032  24.366  0.00  0.00    +0.018 A 
ATOM     18  C   UNL     1      -1.879   4.076  25.030  0.00  0.00    +0.073 A 
ATOM     23  C   UNL     1      -2.153   3.811  25.761  0.00  0.00    +0.018 A 
ATOM     24  C   UNL     1      -2.915   3.503  25.829  0.00  0.00    +0.021 A 
BRANCH  18  19
ATOM     19  N   UNL     1      -1.116   4.384  24.962  0.00  0.00    -0.179 NA
ATOM     20  C   UNL     1      -1.001   5.202  24.955  0.00  0.00    +0.246 C 
ATOM     21  C   UNL     1      -0.240   5.510  24.887  0.00  0.00    +0.097 C 
ATOM     22  O   UNL     1      -1.648   5.710  25.016  0.00  0.00    -0.273 OA
ENDBRANCH  18  19
ENDBRANCH  12  15
ENDBRANCH  10  12
TORSDOF 4
ENDMDL
MODEL 4
REMARK VINA RESULT:     -12.9      1.395      4.350
REMARK  Name = 
REMARK  4 active torsions:
REMARK  status: ('A' for Active; 'I' for Inactive)
REMARK    1  A    between atoms: C_3  and  C_4
REMARK    2  A    between atoms: N_10  and  S_12
REMARK    3  A    between atoms: S_12  and  C_15
REMARK    4  A    between atoms: C_18  and  N_19
REMARK                            x       y       z     vdW  Elec       q    Type
REMARK                         _______ _______ _______ _____ _____    ______ ____
ROOT
ATOM      4  C   UNL     1      -1.904  -1.281  24.984  0.00  0.00    +0.012 A 
ATOM      5  C   UNL     1      -2.640  -1.498  24.683  0.00  0.00    +0.041 A 
ATOM      6  C   UNL     1      -3.092  -2.232  24.365  0.00  0.00    +0.056 C 
ATOM      7  C   UNL     1      -3.010  -2.918  24.241  0.00  0.00    +0.011 C 
ATOM      8  C   UNL     1      -3.597  -2.358  24.163  0.00  0.00    +0.041 C 
ATOM      9  C   UNL     1      -4.420  -1.837  23.997  0.00  0.00    +0.098 C 
ATOM     10  N   UNL     1      -4.162  -1.084  24.252  0.00  0.00    -0.155 NA
ATOM     11  C   UNL     1      -3.895  -1.742  24.198  0.00  0.00    +0.102 C 
ATOM     25  C   UNL     1      -3.133  -1.586  24.494  0.00  0.00    +0.110 C 
ATOM     26  N   UNL     1      -3.237  -0.934  24.603  0.00  0.00    -0.299 N 
ATOM     27  C   UNL     1      -3.097  -0.152  24.825  0.00  0.00    +0.261 A 
ATOM     28  O   UNL     1      -3.693   0.413  24.745  0.00  0.00    -0.267 OA
ATOM     29  C   UNL     1      -2.360   0.066  25.126  0.00  0.00    +0.061 A 
ATOM     30  C   UNL     1      -1.764  -0.499  25.205  0.00  0.00    +0.006 A 
ENDROOT
BRANCH   4   3
ATOM      1  C   UNL     1       0.042  -2.183  25.393  0.00  0.00    +0.031 C 
ATOM      2  C   UNL     1      -0.555  -1.618  25.313  0.00  0.00    -0.026 C 
ATOM      3  C   UNL     1      -1.307  -1.845  25.063  0.00  0.00    -0.003 C 
ENDBRANCH   4   3
BRANCH  10  12
ATOM     12  S   UNL     1      -4.192  -0.277  24.421  0.00  0.00    +0.063 S 
ATOM     13  O   UNL     1      -4.447  -0.447  25.187  0.00  0.00    -0.153 OA
ATOM     14  O   UNL     1      -3.937  -0.107  23.655  0.00  0.00    -0.153 OA
BRANCH  12  15
ATOM     15  C   UNL     1      -4.223   0.531  24.590  0.00  0.00    +0.122 A 
ATOM     16  C   UNL     1      -3.980   1.079  24.024  0.00  0.00    +0.021 A 
ATOM     17  C   UNL     1      -4.010   1.887  24.193  0.00  0.00    +0.018 A 
ATOM     18  C   UNL     1      -4.283   2.144  24.927  0.00  0.00    +0.073 A 
ATOM     23  C   UNL     1      -4.525   1.595  25.493  0.00  0.00    +0.018 A 
ATOM     24  C   UNL     1      -4.495   0.788  25.324  0.00  0.00    +0.021 A 
BRANCH  18  19
ATOM     19  N   UNL     1      -4.313   2.951  25.096  0.00  0.00    -0.179 NA
ATOM     20  C   UNL     1      -5.040   3.317  25.234  0.00  0.00    +0.246 C 
ATOM     21  C   UNL     1      -5.070   4.123  25.402  0.00  0.00    +0.097 C 
ATOM     22  O   UNL     1      -5.736   2.875  25.202  0.00  0.00    -0.273 OA
ENDBRANCH  18  19
ENDBRANCH  12  15
ENDBRANCH  10  12
TORSDOF 4
ENDMDL
MODEL 5
REMARK VINA RESULT:     -12.7      0.905      2.075
REMARK  Name = 
REMARK  4 active torsions:
REMARK  status: ('A' for Active; 'I' for Inactive)
REMARK    1  A    between atoms: C_3  and  C_4
REMARK    2  A    between atoms: N_10  and  S_12
REMARK    3  A    between atoms: S_12  and  C_15
REMARK    4  A    between atoms: C_18  and  N_19
REMARK                            x       y       z     vdW  Elec       q    Type
REMARK                         _______ _______ _______ _____ _____    ______ ____
ROOT
ATOM      4  C   UNL     1      -4.445   2.930  25.166  0.00  0.00    +0.012 A 
ATOM      5  C   UNL     1      -3.638   2.854  25.014  0.00  0.00    +0.041 A 
ATOM      6  C   UNL     1      -2.872   3.359  24.955  0.00  0.00    +0.056 C 
ATOM      7  C   UNL     1      -2.643   4.020  25.011  0.00  0.00    +0.011 C 
ATOM      8  C   UNL     1      -2.330   3.286  24.850  0.00  0.00    +0.041 C 
ATOM      9  C   UNL     1      -1.771   2.499  24.638  0.00  0.00    +0.098 C 
ATOM     10  N   UNL     1      -2.357   1.903  24.654  0.00  0.00    -0.155 NA
ATOM     11  C   UNL     1      -2.319   2.608  24.750  0.00  0.00    +0.102 C 
ATOM     25  C   UNL     1      -3.124   2.750  24.910  0.00  0.00    +0.110 C 
ATOM     26  N   UNL     1      -3.317   2.112  24.851  0.00  0.00    -0.299 N 
ATOM     27  C   UNL     1      -3.803   1.446  24.839  0.00  0.00    +0.261 A 
ATOM     28  O   UNL     1      -3.481   0.703  24.675  0.00  0.00    -0.267 OA
ATOM     29  C   UNL     1      -4.610   1.521  24.990  0.00  0.00    +0.061 A 
ATOM     30  C   UNL     1      -4.931   2.264  25.153  0.00  0.00    +0.006 A 
ENDROOT
BRANCH   4   3
ATOM      1  C   UNL     1      -5.892   4.489  25.656  0.00  0.00    +0.031 C 
ATOM      2  C   UNL     1      -5.571   3.746  25.493  0.00  0.00    -0.026 C 
ATOM      3  C   UNL     1      -4.766   3.672  25.329  0.00  0.00    -0.003 C 
ENDBRANCH   4   3
BRANCH  10  12
ATOM     12  S   UNL     1      -2.691   1.150  24.603  0.00  0.00    +0.063 S 
ATOM     13  O   UNL     1      -2.539   1.028  25.405  0.00  0.00    -0.153 OA
ATOM     14  O   UNL     1      -2.843   1.272  23.800  0.00  0.00    -0.153 OA
BRANCH  12  15
ATOM     15  C   UNL     1      -3.024   0.397  24.551  0.00  0.00    +0.122 A 
ATOM     16  C   UNL     1      -3.330   0.129  23.833  0.00  0.00    +0.021 A 
ATOM     17  C   UNL     1      -3.663  -0.624  23.782  0.00  0.00    +0.018 A 
ATOM     18  C   UNL     1      -3.691  -1.108  24.449  0.00  0.00    +0.073 A 
ATOM     23  C   UNL     1      -3.385  -0.841  25.167  0.00  0.00    +0.018 A 
ATOM     24  C   UNL     1      -3.052  -0.088  25.218  0.00  0.00    +0.021 A 
BRANCH  18  19
ATOM     19  N   UNL     1      -4.024  -1.862  24.398  0.00  0.00    -0.179 NA
ATOM     20  C   UNL     1      -3.539  -2.522  24.299  0.00  0.00    +0.246 C 
ATOM     21  C   UNL     1      -3.871  -3.274  24.247  0.00  0.00    +0.097 C 
ATOM     22  O   UNL     1      -2.720  -2.428  24.251  0.00  0.00    -0.273 OA
ENDBRANCH  18  19
ENDBRANCH  12  15
ENDBRANCH  10  12
TORSDOF 4
ENDMDL
MODEL 6
REMARK VINA RESULT:     -12.4      1.483      4.242
REMARK  Name = 
REMARK  4 active torsions:
REMARK  status: ('A' for Active; 'I' for Inactive)
REMARK    1  A    between atoms: C_3  and  C_4
REMARK    2  A    between atoms: N_10  and  S_12
REMARK    3  A    between atoms: S_12  and  C_15
REMARK    4  A    between atoms: C_18  and  N_19
REMARK                            x       y       z     vdW  Elec       q    Type
REMARK                         _______ _______ _______ _____ _____    ______ ____
ROOT
ATOM      4  C   UNL     1      -1.924  -0.802  24.923  0.00  0.00    +0.012 A 
ATOM      5  C   UNL     1      -2.716  -0.810  24.690  0.00  0.00    +0.041 A 
ATOM      6  C   UNL     1      -3.392  -1.397  24.482  0.00  0.00    +0.056 C 
ATOM      7  C   UNL     1      -3.529  -2.083  24.430  0.00  0.00    +0.011 C 
ATOM      8  C   UNL     1      -3.927  -1.380  24.325  0.00  0.00    +0.041 C 
ATOM      9  C   UNL     1      -4.568  -0.650  24.149  0.00  0.00    +0.098 C 
ATOM     10  N   UNL     1      -4.078   0.008  24.304  0.00  0.00    -0.155 NA
ATOM     11  C   UNL     1      -4.024  -0.702  24.308  0.00  0.00    +0.102 C 
ATOM     25  C   UNL     1      -3.227  -0.760  24.541  0.00  0.00    +0.110 C 
ATOM     26  N   UNL     1      -3.122  -0.100  24.583  0.00  0.00    -0.299 N 
ATOM     27  C   UNL     1      -2.737   0.619  24.708  0.00  0.00    +0.261 A 
ATOM     28  O   UNL     1      -3.143   1.329  24.601  0.00  0.00    -0.267 OA
ATOM     29  C   UNL     1      -1.946   0.627  24.941  0.00  0.00    +0.061 A 
ATOM     30  C   UNL     1      -1.539  -0.083  25.048  0.00  0.00    +0.006 A 
ENDROOT
BRANCH   4   3
ATOM      1  C   UNL     1      -0.310  -2.214  25.331  0.00  0.00    +0.031 C 
ATOM      2  C   UNL     1      -0.717  -1.503  25.224  0.00  0.00    -0.026 C 
ATOM      3  C   UNL     1      -1.518  -1.512  25.030  0.00  0.00    -0.003 C 
ENDBRANCH   4   3
BRANCH  10  12
ATOM     12  S   UNL     1      -3.851   0.798  24.384  0.00  0.00    +0.063 S 
ATOM     13  O   UNL     1      -3.607   0.807  23.596  0.00  0.00    -0.153 OA
ATOM     14  O   UNL     1      -4.096   0.789  25.172  0.00  0.00    -0.153 OA
BRANCH  12  15
ATOM     15  C   UNL     1      -3.625   1.588  24.463  0.00  0.00    +0.122 A 
ATOM     16  C   UNL     1      -3.253   1.975  23.838  0.00  0.00    +0.021 A 
ATOM     17  C   UNL     1      -3.027   2.765  23.917  0.00  0.00    +0.018 A 
ATOM     18  C   UNL     1      -3.173   3.166  24.623  0.00  0.00    +0.073 A 
ATOM     23  C   UNL     1      -3.545   2.779  25.249  0.00  0.00    +0.018 A 
ATOM     24  C   UNL     1      -3.771   1.989  25.169  0.00  0.00    +0.021 A 
BRANCH  18  19
ATOM     19  N   UNL     1      -2.946   3.956  24.702  0.00  0.00    -0.179 NA
ATOM     20  C   UNL     1      -2.304   4.155  25.181  0.00  0.00    +0.246 C 
ATOM     21  C   UNL     1      -2.078   4.943  25.261  0.00  0.00    +0.097 C 
ATOM     22  O   UNL     1      -1.889   3.563  25.580  0.00  0.00    -0.273 OA
ENDBRANCH  18  19
ENDBRANCH  12  15
ENDBRANCH  10  12
TORSDOF 4
ENDMDL
MODEL 7
REMARK VINA RESULT:     -12.0      2.195      3.283
REMARK  Name = 
REMARK  4 active torsions:
REMARK  status: ('A' for Active; 'I' for Inactive)
REMARK    1  A    between atoms: C_3  and  C_4
REMARK    2  A    between atoms: N_10  and  S_12
REMARK    3  A    between atoms: S_12  and  C_15
REMARK    4  A    between atoms: C_18  and  N_19
REMARK                            x       y       z     vdW  Elec       q    Type
REMARK                         _______ _______ _______ _____ _____    ______ ____
ROOT
ATOM      4  C   UNL     1      -4.374   2.232  24.998  0.00  0.00    +0.012 A 
ATOM      5  C   UNL     1      -3.822   2.799  25.230  0.00  0.00    +0.041 A 
ATOM      6  C   UNL     1      -3.773   3.620  25.640  0.00  0.00    +0.056 C 
ATOM      7  C   UNL     1      -4.176   4.115  25.931  0.00  0.00    +0.011 C 
ATOM      8  C   UNL     1      -3.384   3.991  25.789  0.00  0.00    +0.041 C 
ATOM      9  C   UNL     1      -2.400   4.024  25.707  0.00  0.00    +0.098 C 
ATOM     10  N   UNL     1      -2.267   3.293  25.324  0.00  0.00    -0.155 NA
ATOM     11  C   UNL     1      -2.822   3.666  25.569  0.00  0.00    +0.102 C 
ATOM     25  C   UNL     1      -3.426   3.133  25.359  0.00  0.00    +0.110 C 
ATOM     26  N   UNL     1      -3.019   2.676  25.087  0.00  0.00    -0.299 N 
ATOM     27  C   UNL     1      -2.767   1.986  24.713  0.00  0.00    +0.261 A 
ATOM     28  O   UNL     1      -1.964   1.863  24.571  0.00  0.00    -0.267 OA
ATOM     29  C   UNL     1      -3.318   1.418  24.481  0.00  0.00    +0.061 A 
ATOM     30  C   UNL     1      -4.122   1.541  24.623  0.00  0.00    +0.006 A 
ENDROOT
BRANCH   4   3
ATOM      1  C   UNL     1      -6.527   1.886  25.101  0.00  0.00    +0.031 C 
ATOM      2  C   UNL     1      -5.723   1.763  24.959  0.00  0.00    -0.026 C 
ATOM      3  C   UNL     1      -5.177   2.354  25.140  0.00  0.00    -0.003 C 
ENDBRANCH   4   3
BRANCH  10  12
ATOM     12  S   UNL     1      -1.851   2.674  24.970  0.00  0.00    +0.063 S 
ATOM     13  O   UNL     1      -1.933   3.041  24.235  0.00  0.00    -0.153 OA
ATOM     14  O   UNL     1      -1.769   2.308  25.705  0.00  0.00    -0.153 OA
BRANCH  12  15
ATOM     15  C   UNL     1      -1.435   2.056  24.615  0.00  0.00    +0.122 A 
ATOM     16  C   UNL     1      -1.322   2.050  23.799  0.00  0.00    +0.021 A 
ATOM     17  C   UNL     1      -0.907   1.431  23.444  0.00  0.00    +0.018 A 
ATOM     18  C   UNL     1      -0.605   0.819  23.907  0.00  0.00    +0.073 A 
ATOM     23  C   UNL     1      -0.717   0.825  24.724  0.00  0.00    +0.018 A 
ATOM     24  C   UNL     1      -1.133   1.444  25.078  0.00  0.00    +0.021 A 
BRANCH  18  19
ATOM     19  N   UNL     1      -0.189   0.201  23.552  0.00  0.00    -0.179 NA
ATOM     20  C   UNL     1       0.611   0.292  23.370  0.00  0.00    +0.246 C 
ATOM     21  C   UNL     1       1.026  -0.325  23.016  0.00  0.00    +0.097 C 
ATOM     22  O   UNL     1       0.994   1.003  23.542  0.00  0.00    -0.273 OA
ENDBRANCH  18  19
ENDBRANCH  12  15
ENDBRANCH  10  12
TORSDOF 4
ENDMDL
MODEL 8
REMARK VINA RESULT:     -12.0      1.701      4.612
REMARK  Name = 
REMARK  4 active torsions:
REMARK  status: ('A' for Active; 'I' for Inactive)
REMARK    1  A    between atoms: C_3  and  C_4
REMARK    2  A    between atoms: N_10  and  S_12
REMARK    3  A    between atoms: S_12  and  C_15
REMARK    4  A    between atoms: C_18  and  N_19
REMARK                            x       y       z     vdW  Elec       q    Type
REMARK                         _______ _______ _______ _____ _____    ______ ____
ROOT
ATOM      4  C   UNL     1      -2.781  -0.894  24.789  0.00  0.00    +0.012 A 
ATOM      5  C   UNL     1      -2.082  -0.477  24.653  0.00  0.00    +0.041 A 
ATOM      6  C   UNL     1      -1.185  -0.614  24.511  0.00  0.00    +0.056 C 
ATOM      7  C   UNL     1      -0.708  -1.126  24.457  0.00  0.00    +0.011 C 
ATOM      8  C   UNL     1      -0.725  -0.313  24.420  0.00  0.00    +0.041 C 
ATOM      9  C   UNL     1      -0.542   0.655  24.343  0.00  0.00    +0.098 C 
ATOM     10  N   UNL     1      -1.314   0.953  24.456  0.00  0.00    -0.155 NA
ATOM     11  C   UNL     1      -0.992   0.318  24.434  0.00  0.00    +0.102 C 
ATOM     25  C   UNL     1      -1.661  -0.159  24.568  0.00  0.00    +0.110 C 
ATOM     26  N   UNL     1      -2.095   0.348  24.615  0.00  0.00    -0.299 N 
ATOM     27  C   UNL     1      -2.806   0.754  24.713  0.00  0.00    +0.261 A 
ATOM     28  O   UNL     1      -2.819   1.578  24.675  0.00  0.00    -0.267 OA
ATOM     29  C   UNL     1      -3.505   0.337  24.849  0.00  0.00    +0.061 A 
ATOM     30  C   UNL     1      -3.492  -0.487  24.887  0.00  0.00    +0.006 A 
ENDROOT
BRANCH   4   3
ATOM      1  C   UNL     1      -3.462  -2.965  24.902  0.00  0.00    +0.031 C 
ATOM      2  C   UNL     1      -3.475  -2.140  24.864  0.00  0.00    -0.026 C 
ATOM      3  C   UNL     1      -2.768  -1.718  24.827  0.00  0.00    -0.003 C 
ENDBRANCH   4   3
BRANCH  10  12
ATOM     12  S   UNL     1      -1.923   1.506  24.530  0.00  0.00    +0.063 S 
ATOM     13  O   UNL     1      -1.788   1.545  25.344  0.00  0.00    -0.153 OA
ATOM     14  O   UNL     1      -2.057   1.466  23.717  0.00  0.00    -0.153 OA
BRANCH  12  15
ATOM     15  C   UNL     1      -2.531   2.058  24.604  0.00  0.00    +0.122 A 
ATOM     16  C   UNL     1      -3.020   2.222  23.960  0.00  0.00    +0.021 A 
ATOM     17  C   UNL     1      -3.629   2.774  24.034  0.00  0.00    +0.018 A 
ATOM     18  C   UNL     1      -3.748   3.162  24.752  0.00  0.00    +0.073 A 
ATOM     23  C   UNL     1      -3.259   2.999  25.396  0.00  0.00    +0.018 A 
ATOM     24  C   UNL     1      -2.650   2.447  25.322  0.00  0.00    +0.021 A 
BRANCH  18  19
ATOM     19  N   UNL     1      -4.356   3.715  24.826  0.00  0.00    -0.179 NA
ATOM     20  C   UNL     1      -4.967   3.587  25.367  0.00  0.00    +0.246 C 
ATOM     21  C   UNL     1      -5.574   4.138  25.441  0.00  0.00    +0.097 C 
ATOM     22  O   UNL     1      -4.967   2.906  25.834  0.00  0.00    -0.273 OA
ENDBRANCH  18  19
ENDBRANCH  12  15
ENDBRANCH  10  12
TORSDOF 4
ENDMDL
