REMARK  Name = 
REMARK  9 active torsions:
REMARK  status: ('A' for Active; 'I' for Inactive)
REMARK    1  A    between atoms: N_2  and  C_4
REMARK    2  A    between atoms: C_7  and  C_10
REMARK    3  A    between atoms: N_15  and  S_32
REMARK    4  A    between atoms: C_16  and  C_18
REMARK    5  A    between atoms: N_20  and  C_21
REMARK    6  A    between atoms: C_21  and  C_22
REMARK    7  A    between atoms: C_21  and  C_29
REMARK    8  A    between atoms: C_22  and  C_23
REMARK    9  A    between atoms: S_32  and  C_35
REMARK                            x       y       z     vdW  Elec       q    Type
REMARK                         _______ _______ _______ _____ _____    ______ ____
ROOT
ATOM     10  C   UNL     1      -3.410  -1.459   0.000  0.00  0.00    +0.249 C 
ATOM     11  O   UNL     1      -4.125  -1.871   0.000  0.00  0.00    -0.270 OA
ATOM     12  N   UNL     1      -2.696  -1.871   0.000  0.00  0.00    -0.273 N 
ATOM     13  C   UNL     1      -1.982  -1.459   0.000  0.00  0.00    +0.113 C 
ATOM     14  C   UNL     1      -1.267  -1.871   0.000  0.00  0.00    +0.118 C 
ATOM     15  N   UNL     1      -1.267  -2.696   0.000  0.00  0.00    -0.145 NA
ATOM     16  C   UNL     1      -1.982  -3.109   0.000  0.00  0.00    +0.177 C 
ATOM     17  C   UNL     1      -2.696  -2.696   0.000  0.00  0.00    +0.121 C 
ENDROOT
BRANCH  10   7
ATOM      4  C   UNL     1      -3.410   1.016   0.000  0.00  0.00    +0.048 A 
ATOM      5  C   UNL     1      -2.696   0.604   0.000  0.00  0.00    +0.015 A 
ATOM      6  C   UNL     1      -2.696  -0.221   0.000  0.00  0.00    +0.006 A 
ATOM      7  C   UNL     1      -3.410  -0.634   0.000  0.00  0.00    +0.054 A 
ATOM      8  C   UNL     1      -4.125  -0.221   0.000  0.00  0.00    +0.006 A 
ATOM      9  C   UNL     1      -4.125   0.604   0.000  0.00  0.00    +0.015 A 
BRANCH   4   2
ATOM      1  C   UNL     1      -4.125   2.254   0.000  0.00  0.00    +0.112 C 
ATOM      2  N   UNL     1      -3.410   1.841   0.000  0.00  0.00    -0.304 N 
ATOM      3  C   UNL     1      -2.696   2.254   0.000  0.00  0.00    +0.112 C 
ENDBRANCH   4   2
ENDBRANCH  10   7
BRANCH  16  18
ATOM     18  C   UNL     1      -1.982  -3.934   0.000  0.00  0.00    +0.260 C 
ATOM     19  O   UNL     1      -2.696  -4.346   0.000  0.00  0.00    -0.272 OA
ATOM     20  N   UNL     1      -1.267  -4.346   0.000  0.00  0.00    -0.197 NA
BRANCH  20  21
ATOM     21  C   UNL     1      -1.267  -5.171   0.000  0.00  0.00    +0.174 C 
BRANCH  21  29
ATOM     29  C   UNL     1      -1.982  -5.584   0.000  0.00  0.00    +0.281 C 
ATOM     30  N   UNL     1      -1.982  -6.409   0.000  0.00  0.00    -0.086 NA
ATOM     31  O   UNL     1      -2.696  -5.171   0.000  0.00  0.00    -0.270 OA
ENDBRANCH  21  29
BRANCH  21  22
ATOM     22  C   UNL     1      -0.553  -5.584   0.000  0.00  0.00    +0.031 C 
BRANCH  22  23
ATOM     23  C   UNL     1      -0.553  -6.409   0.000  0.00  0.00    +0.002 C 
ATOM     24  C   UNL     1       0.162  -6.821   0.000  0.00  0.00    +0.000 C 
ATOM     25  C   UNL     1       0.162  -7.646   0.000  0.00  0.00    +0.000 C 
ATOM     26  C   UNL     1      -0.553  -8.059   0.000  0.00  0.00    +0.000 C 
ATOM     27  C   UNL     1      -1.267  -7.646   0.000  0.00  0.00    +0.000 C 
ATOM     28  C   UNL     1      -1.267  -6.821   0.000  0.00  0.00    +0.000 C 
ENDBRANCH  22  23
ENDBRANCH  21  22
ENDBRANCH  20  21
ENDBRANCH  16  18
BRANCH  15  32
ATOM     32  S   UNL     1      -0.553  -3.109   0.000  0.00  0.00    +0.064 S 
ATOM     33  O   UNL     1       0.162  -3.521   0.000  0.00  0.00    -0.153 OA
ATOM     34  O   UNL     1      -0.965  -3.823   0.000  0.00  0.00    -0.153 OA
BRANCH  32  35
ATOM     35  C   UNL     1      -0.140  -2.394   0.000  0.00  0.00    +0.122 A 
ATOM     36  C   UNL     1      -0.553  -1.680   0.000  0.00  0.00    +0.020 A 
ATOM     37  C   UNL     1      -0.140  -0.965   0.000  0.00  0.00    +0.001 A 
ATOM     38  C   UNL     1       0.685  -0.965   0.000  0.00  0.00    +0.000 A 
ATOM     39  C   UNL     1       1.097  -1.680   0.000  0.00  0.00    +0.001 A 
ATOM     40  C   UNL     1       0.685  -2.394   0.000  0.00  0.00    +0.020 A 
ENDBRANCH  32  35
ENDBRANCH  15  32
TORSDOF 9
