MODEL 1
REMARK VINA RESULT:     -10.2      0.000      0.000
REMARK  Name = 
REMARK  6 active torsions:
REMARK  status: ('A' for Active; 'I' for Inactive)
REMARK    1  A    between atoms: C_2  and  N_3
REMARK    2  A    between atoms: N_3  and  C_4
REMARK    3  A    between atoms: N_3  and  C_6
REMARK    4  A    between atoms: C_12  and  N_13
REMARK    5  A    between atoms: N_16  and  C_17
REMARK    6  A    between atoms: C_20  and  O_21
REMARK                            x       y       z     vdW  Elec       q    Type
REMARK                         _______ _______ _______ _____ _____    ______ ____
ROOT
ATOM      6  C   UNL     1      -3.644   2.744  24.848  0.00  0.00    +0.147 C 
ATOM      7  C   UNL     1      -3.760   3.441  24.182  0.00  0.00    +0.253 C 
ATOM      8  O   UNL     1      -3.255   4.158  24.086  0.00  0.00    -0.327 OA
ATOM      9  C   UNL     1      -3.481   3.531  24.373  0.00  0.00    +0.176 C 
ATOM     10  C   UNL     1      -4.006   2.959  24.333  0.00  0.00    +0.170 C 
ATOM     11  O   UNL     1      -4.423   3.149  23.787  0.00  0.00    -0.327 OA
ATOM     12  C   UNL     1      -3.907   2.285  24.965  0.00  0.00    +0.158 C 
ATOM     25  C   UNL     1      -3.241   2.580  25.359  0.00  0.00    +0.194 C 
ATOM     26  O   UNL     1      -2.623   2.630  25.904  0.00  0.00    -0.220 OA
ENDROOT
BRANCH  12  13
ATOM     13  N   UNL     1      -4.349   1.600  25.094  0.00  0.00    -0.183 NA
ATOM     14  C   UNL     1      -4.020   0.860  24.935  0.00  0.00    +0.344 C 
ATOM     15  O   UNL     1      -3.249   0.805  24.647  0.00  0.00    -0.249 OA
ATOM     16  N   UNL     1      -4.462   0.176  25.064  0.00  0.00    -0.161 NA
BRANCH  16  17
ATOM     17  C   UNL     1      -4.133  -0.564  24.906  0.00  0.00    +0.075 A 
ATOM     18  C   UNL     1      -3.702  -0.958  25.488  0.00  0.00    +0.020 A 
ATOM     19  C   UNL     1      -3.373  -1.698  25.329  0.00  0.00    +0.038 A 
ATOM     20  C   UNL     1      -3.475  -2.043  24.587  0.00  0.00    +0.139 A 
ATOM     23  C   UNL     1      -3.906  -1.649  24.004  0.00  0.00    +0.038 A 
ATOM     24  C   UNL     1      -4.234  -0.909  24.163  0.00  0.00    +0.020 A 
BRANCH  20  21
ATOM     21  O   UNL     1      -3.146  -2.782  24.428  0.00  0.00    -0.471 OA
ATOM     22  C   UNL     1      -2.329  -2.862  24.345  0.00  0.00    +0.252 C 
ENDBRANCH  20  21
ENDBRANCH  16  17
ENDBRANCH  12  13
BRANCH   6   3
ATOM      3  N   UNL     1      -3.060   3.319  24.940  0.00  0.00    -0.268 NA
BRANCH   3   2
ATOM      1  C   UNL     1      -2.585   4.310  25.854  0.00  0.00    +0.019 C 
ATOM      2  C   UNL     1      -3.201   3.977  25.418  0.00  0.00    +0.072 C 
ENDBRANCH   3   2
BRANCH   3   4
ATOM      4  C   UNL     1      -2.335   3.237  24.555  0.00  0.00    +0.072 C 
ATOM      5  C   UNL     1      -1.692   3.702  24.782  0.00  0.00    +0.019 C 
ENDBRANCH   3   4
ENDBRANCH   6   3
TORSDOF 6
ENDMDL
MODEL 2
REMARK VINA RESULT:      -9.7      0.925      4.796
REMARK  Name = 
REMARK  6 active torsions:
REMARK  status: ('A' for Active; 'I' for Inactive)
REMARK    1  A    between atoms: C_2  and  N_3
REMARK    2  A    between atoms: N_3  and  C_4
REMARK    3  A    between atoms: N_3  and  C_6
REMARK    4  A    between atoms: C_12  and  N_13
REMARK    5  A    between atoms: N_16  and  C_17
REMARK    6  A    between atoms: C_20  and  O_21
REMARK                            x       y       z     vdW  Elec       q    Type
REMARK                         _______ _______ _______ _____ _____    ______ ____
ROOT
ATOM      6  C   UNL     1      -3.866  -0.948  24.727  0.00  0.00    +0.147 C 
ATOM      7  C   UNL     1      -3.932  -1.588  23.999  0.00  0.00    +0.253 C 
ATOM      8  O   UNL     1      -3.500  -2.355  23.940  0.00  0.00    -0.327 OA
ATOM      9  C   UNL     1      -3.705  -1.722  24.230  0.00  0.00    +0.176 C 
ATOM     10  C   UNL     1      -4.148  -1.089  24.141  0.00  0.00    +0.170 C 
ATOM     11  O   UNL     1      -4.474  -1.195  23.517  0.00  0.00    -0.327 OA
ATOM     12  C   UNL     1      -4.095  -0.468  24.830  0.00  0.00    +0.158 C 
ATOM     25  C   UNL     1      -3.550  -0.864  25.313  0.00  0.00    +0.194 C 
ATOM     26  O   UNL     1      -3.054  -1.019  25.954  0.00  0.00    -0.220 OA
ENDROOT
BRANCH  12  13
ATOM     13  N   UNL     1      -4.475   0.258  24.931  0.00  0.00    -0.183 NA
ATOM     14  C   UNL     1      -4.046   0.960  24.878  0.00  0.00    +0.344 C 
ATOM     15  O   UNL     1      -3.236   0.937  24.724  0.00  0.00    -0.249 OA
ATOM     16  N   UNL     1      -4.426   1.684  24.979  0.00  0.00    -0.161 NA
BRANCH  16  17
ATOM     17  C   UNL     1      -3.996   2.387  24.926  0.00  0.00    +0.075 A 
ATOM     18  C   UNL     1      -3.849   2.725  24.189  0.00  0.00    +0.020 A 
ATOM     19  C   UNL     1      -3.419   3.428  24.135  0.00  0.00    +0.038 A 
ATOM     20  C   UNL     1      -3.137   3.791  24.820  0.00  0.00    +0.139 A 
ATOM     23  C   UNL     1      -3.284   3.452  25.558  0.00  0.00    +0.038 A 
ATOM     24  C   UNL     1      -3.713   2.750  25.610  0.00  0.00    +0.020 A 
BRANCH  20  21
ATOM     21  O   UNL     1      -2.707   4.493  24.767  0.00  0.00    -0.471 OA
ATOM     22  C   UNL     1      -1.982   4.565  25.153  0.00  0.00    +0.252 C 
ENDBRANCH  20  21
ENDBRANCH  16  17
ENDBRANCH  12  13
BRANCH   6   3
ATOM      3  N   UNL     1      -3.377  -1.595  24.878  0.00  0.00    -0.268 NA
BRANCH   3   2
ATOM      1  C   UNL     1      -2.010  -2.012  24.847  0.00  0.00    +0.019 C 
ATOM      2  C   UNL     1      -2.663  -1.676  24.472  0.00  0.00    +0.072 C 
ENDBRANCH   3   2
BRANCH   3   4
ATOM      4  C   UNL     1      -3.601  -2.162  25.434  0.00  0.00    +0.072 C 
ATOM      5  C   UNL     1      -3.208  -2.887  25.466  0.00  0.00    +0.019 C 
ENDBRANCH   3   4
ENDBRANCH   6   3
TORSDOF 6
ENDMDL
MODEL 3
REMARK VINA RESULT:      -9.5      2.137      5.230
REMARK  Name = 
REMARK  6 active torsions:
REMARK  status: ('A' for Active; 'I' for Inactive)
REMARK    1  A    between atoms: C_2  and  N_3
REMARK    2  A    between atoms: N_3  and  C_4
REMARK    3  A    between atoms: N_3  and  C_6
REMARK    4  A    between atoms: C_12  and  N_13
REMARK    5  A    between atoms: N_16  and  C_17
REMARK    6  A    between atoms: C_20  and  O_21
REMARK                            x       y       z     vdW  Elec       q    Type
REMARK                         _______ _______ _______ _____ _____    ______ ____
ROOT
ATOM      6  C   UNL     1      -1.935  -0.987  25.143  0.00  0.00    +0.147 C 
ATOM      7  C   UNL     1      -1.678  -1.702  24.539  0.00  0.00    +0.253 C 
ATOM      8  O   UNL     1      -2.220  -2.299  24.180  0.00  0.00    -0.327 OA
ATOM      9  C   UNL     1      -2.025  -1.729  24.584  0.00  0.00    +0.176 C 
ATOM     10  C   UNL     1      -1.434  -1.281  24.818  0.00  0.00    +0.170 C 
ATOM     11  O   UNL     1      -0.867  -1.562  24.492  0.00  0.00    -0.327 OA
ATOM     12  C   UNL     1      -1.665  -0.592  25.397  0.00  0.00    +0.158 C 
ATOM     25  C   UNL     1      -2.480  -0.735  25.442  0.00  0.00    +0.194 C 
ATOM     26  O   UNL     1      -3.270  -0.645  25.663  0.00  0.00    -0.220 OA
ENDROOT
BRANCH  12  13
ATOM     13  N   UNL     1      -1.199  -0.012  25.757  0.00  0.00    -0.183 NA
ATOM     14  C   UNL     1      -1.219   0.764  25.480  0.00  0.00    +0.344 C 
ATOM     15  O   UNL     1      -1.704   0.962  24.842  0.00  0.00    -0.249 OA
ATOM     16  N   UNL     1      -0.754   1.343  25.839  0.00  0.00    -0.161 NA
BRANCH  16  17
ATOM     17  C   UNL     1      -0.774   2.119  25.562  0.00  0.00    +0.075 A 
ATOM     18  C   UNL     1      -0.281   2.349  24.942  0.00  0.00    +0.020 A 
ATOM     19  C   UNL     1      -0.301   3.126  24.665  0.00  0.00    +0.038 A 
ATOM     20  C   UNL     1      -0.815   3.673  25.008  0.00  0.00    +0.139 A 
ATOM     23  C   UNL     1      -1.309   3.443  25.628  0.00  0.00    +0.038 A 
ATOM     24  C   UNL     1      -1.288   2.666  25.904  0.00  0.00    +0.020 A 
BRANCH  20  21
ATOM     21  O   UNL     1      -0.834   4.449  24.731  0.00  0.00    -0.471 OA
ATOM     22  C   UNL     1      -1.319   5.007  25.098  0.00  0.00    +0.252 C 
ENDBRANCH  20  21
ENDBRANCH  16  17
ENDBRANCH  12  13
BRANCH   6   3
ATOM      3  N   UNL     1      -2.600  -1.425  24.930  0.00  0.00    -0.268 NA
BRANCH   3   2
ATOM      1  C   UNL     1      -3.804  -1.371  24.161  0.00  0.00    +0.019 C 
ATOM      2  C   UNL     1      -2.987  -1.271  24.218  0.00  0.00    +0.072 C 
ENDBRANCH   3   2
BRANCH   3   4
ATOM      4  C   UNL     1      -2.880  -2.020  25.430  0.00  0.00    +0.072 C 
ATOM      5  C   UNL     1      -3.517  -2.490  25.196  0.00  0.00    +0.019 C 
ENDBRANCH   3   4
ENDBRANCH   6   3
TORSDOF 6
ENDMDL
MODEL 4
REMARK VINA RESULT:      -9.4      1.868      2.539
REMARK  Name = 
REMARK  6 active torsions:
REMARK  status: ('A' for Active; 'I' for Inactive)
REMARK    1  A    between atoms: C_2  and  N_3
REMARK    2  A    between atoms: N_3  and  C_4
REMARK    3  A    between atoms: N_3  and  C_6
REMARK    4  A    between atoms: C_12  and  N_13
REMARK    5  A    between atoms: N_16  and  C_17
REMARK    6  A    between atoms: C_20  and  O_21
REMARK                            x       y       z     vdW  Elec       q    Type
REMARK                         _______ _______ _______ _____ _____    ______ ____
ROOT
ATOM      6  C   UNL     1      -0.827   1.974  25.088  0.00  0.00    +0.147 C 
ATOM      7  C   UNL     1      -0.185   2.334  24.455  0.00  0.00    +0.253 C 
ATOM      8  O   UNL     1      -0.181   3.154  24.127  0.00  0.00    -0.327 OA
ATOM      9  C   UNL     1      -0.411   2.592  24.525  0.00  0.00    +0.176 C 
ATOM     10  C   UNL     1      -0.285   1.850  24.722  0.00  0.00    +0.170 C 
ATOM     11  O   UNL     1       0.295   1.671  24.350  0.00  0.00    -0.327 OA
ATOM     12  C   UNL     1      -0.892   1.493  25.328  0.00  0.00    +0.158 C 
ATOM     25  C   UNL     1      -1.373   2.160  25.431  0.00  0.00    +0.194 C 
ATOM     26  O   UNL     1      -1.986   2.635  25.712  0.00  0.00    -0.220 OA
ENDROOT
BRANCH  12  13
ATOM     13  N   UNL     1      -0.938   0.739  25.661  0.00  0.00    -0.183 NA
ATOM     14  C   UNL     1      -1.484   0.192  25.372  0.00  0.00    +0.344 C 
ATOM     15  O   UNL     1      -1.984   0.399  24.749  0.00  0.00    -0.249 OA
ATOM     16  N   UNL     1      -1.530  -0.561  25.706  0.00  0.00    -0.161 NA
BRANCH  16  17
ATOM     17  C   UNL     1      -2.076  -1.107  25.416  0.00  0.00    +0.075 A 
ATOM     18  C   UNL     1      -1.849  -1.653  24.842  0.00  0.00    +0.020 A 
ATOM     19  C   UNL     1      -2.395  -2.201  24.552  0.00  0.00    +0.038 A 
ATOM     20  C   UNL     1      -3.168  -2.200  24.839  0.00  0.00    +0.139 A 
ATOM     23  C   UNL     1      -3.397  -1.654  25.413  0.00  0.00    +0.038 A 
ATOM     24  C   UNL     1      -2.850  -1.108  25.702  0.00  0.00    +0.020 A 
BRANCH  20  21
ATOM     21  O   UNL     1      -3.714  -2.747  24.549  0.00  0.00    -0.471 OA
ATOM     22  C   UNL     1      -4.191  -2.554  23.904  0.00  0.00    +0.252 C 
ENDBRANCH  20  21
ENDBRANCH  16  17
ENDBRANCH  12  13
BRANCH   6   3
ATOM      3  N   UNL     1      -1.012   2.760  24.918  0.00  0.00    -0.268 NA
BRANCH   3   2
ATOM      1  C   UNL     1      -1.982   3.603  24.293  0.00  0.00    +0.019 C 
ATOM      2  C   UNL     1      -1.490   2.941  24.271  0.00  0.00    +0.072 C 
ENDBRANCH   3   2
BRANCH   3   4
ATOM      4  C   UNL     1      -0.719   3.365  25.396  0.00  0.00    +0.072 C 
ATOM      5  C   UNL     1      -1.027   4.128  25.332  0.00  0.00    +0.019 C 
ENDBRANCH   3   4
ENDBRANCH   6   3
TORSDOF 6
ENDMDL
