REMARK  Name = 
REMARK  3 active torsions:
REMARK  status: ('A' for Active; 'I' for Inactive)
REMARK    1  A    between atoms: C_2  and  C_4
REMARK    2  A    between atoms: C_7  and  C_9
REMARK    3  A    between atoms: N_14  and  C_15
REMARK                            x       y       z     vdW  Elec       q    Type
REMARK                         _______ _______ _______ _____ _____    ______ ____
ROOT
ATOM      9  C   UNL     1       1.937  -2.486   0.000  0.00  0.00    +0.140 C 
ATOM     10  C   UNL     1       2.192  -3.270   0.000  0.00  0.00    +0.060 C 
ATOM     11  C   UNL     1       1.524  -3.755   0.000  0.00  0.00    +0.170 C 
ATOM     12  O   UNL     1       1.524  -4.580   0.000  0.00  0.00    -0.222 OA
ATOM     13  C   UNL     1       0.857  -3.270   0.000  0.00  0.00    +0.106 C 
ATOM     14  N   UNL     1       1.111  -2.486   0.000  0.00  0.00    -0.265 NA
ENDROOT
BRANCH  14  15
ATOM     15  C   UNL     1       0.627  -1.818   0.000  0.00  0.00    +0.061 C 
ATOM     16  C   UNL     1      -0.194  -1.905   0.000  0.00  0.00    +0.038 C 
ATOM     17  C   UNL     1      -0.679  -1.237   0.000  0.00  0.00    +0.095 C 
ATOM     18  N   UNL     1      -0.343  -0.483   0.000  0.00  0.00    -0.279 N 
ATOM     19  C   UNL     1       0.477  -0.397   0.000  0.00  0.00    +0.095 C 
ATOM     20  C   UNL     1       0.962  -1.065   0.000  0.00  0.00    +0.038 C 
ATOM     21  C   UNL     1      -0.828   0.184   0.000  0.00  0.00    +0.226 C 
ATOM     22  C   UNL     1      -1.649   0.098   0.000  0.00  0.00    +0.095 C 
ATOM     23  O   UNL     1      -0.493   0.938   0.000  0.00  0.00    -0.275 OA
ENDBRANCH  14  15
BRANCH   9   7
ATOM      4  C   UNL     1       2.834  -0.549   0.000  0.00  0.00    +0.180 A 
ATOM      5  N   UNL     1       3.501  -1.034   0.000  0.00  0.00    -0.061 NA
ATOM      6  O   UNL     1       3.247  -1.818   0.000  0.00  0.00    -0.336 OA
ATOM      7  C   UNL     1       2.421  -1.818   0.000  0.00  0.00    +0.251 A 
ATOM      8  N   UNL     1       2.167  -1.034   0.000  0.00  0.00    -0.194 NA
BRANCH   4   2
ATOM      1  C   UNL     1       3.548   0.689   0.000  0.00  0.00    +0.008 C 
ATOM      2  C   UNL     1       2.834   0.276   0.000  0.00  0.00    +0.062 C 
ATOM      3  C   UNL     1       2.119   0.689   0.000  0.00  0.00    +0.008 C 
ENDBRANCH   4   2
ENDBRANCH   9   7
TORSDOF 3
