MODEL 1
REMARK VINA RESULT:      -9.6      0.000      0.000
REMARK  Name = 
REMARK  7 active torsions:
REMARK  status: ('A' for Active; 'I' for Inactive)
REMARK    1  A    between atoms: O_2  and  C_3
REMARK    2  A    between atoms: C_6  and  C_11
REMARK    3  A    between atoms: C_8  and  O_9
REMARK    4  A    between atoms: C_16  and  C_18
REMARK    5  A    between atoms: C_25  and  C_26
REMARK    6  A    between atoms: C_26  and  N_27
REMARK    7  A    between atoms: C_28  and  C_30
REMARK                            x       y       z     vdW  Elec       q    Type
REMARK                         _______ _______ _______ _____ _____    ______ ____
ROOT
ATOM     11  C   UNL     1      -1.540   1.172  24.607  0.00  0.00    +0.084 A 
ATOM     12  N   UNL     1      -1.691   0.593  25.175  0.00  0.00    -0.231 NA
ATOM     13  C   UNL     1      -1.142  -0.008  25.309  0.00  0.00    +0.139 A 
ATOM     14  C   UNL     1      -1.293  -0.587  25.877  0.00  0.00    +0.074 C 
ATOM     15  N   UNL     1      -0.442  -0.030  24.874  0.00  0.00    -0.235 NA
ATOM     16  C   UNL     1      -0.291   0.549  24.305  0.00  0.00    +0.063 A 
ATOM     17  C   UNL     1      -0.840   1.150  24.172  0.00  0.00    +0.034 A 
ENDROOT
BRANCH  16  18
ATOM     18  C   UNL     1       0.411   0.527  23.869  0.00  0.00    +0.056 C 
ATOM     19  C   UNL     1       0.927   1.095  23.997  0.00  0.00    +0.078 C 
ATOM     20  N   UNL     1       1.012   0.469  23.466  0.00  0.00    -0.272 NA
ATOM     21  C   UNL     1       0.145  -0.116  23.534  0.00  0.00    +0.072 C 
ATOM     22  C   UNL     1      -0.208  -0.633  23.348  0.00  0.00    +0.018 C 
ATOM     23  C   UNL     1       0.501  -0.084  23.346  0.00  0.00    +0.010 C 
ATOM     24  C   UNL     1       1.152  -0.295  22.796  0.00  0.00    +0.018 C 
ATOM     25  C   UNL     1       1.684   0.243  22.891  0.00  0.00    +0.079 C 
BRANCH  25  26
ATOM     26  C   UNL     1       2.429   0.481  22.629  0.00  0.00    +0.131 C 
BRANCH  26  27
ATOM     27  N   UNL     1       3.105   0.247  23.040  0.00  0.00    -0.204 NA
ATOM     28  C   UNL     1       3.850   0.477  22.771  0.00  0.00    +0.241 C 
ATOM     29  O   UNL     1       3.920   0.941  22.092  0.00  0.00    -0.273 OA
BRANCH  28  30
ATOM     30  C   UNL     1       4.527   0.244  23.182  0.00  0.00    +0.078 C 
ATOM     31  C   UNL     1       5.173   0.635  23.511  0.00  0.00    +0.009 C 
ATOM     32  C   UNL     1       5.483  -0.087  23.762  0.00  0.00    +0.001 C 
ATOM     33  C   UNL     1       4.837  -0.478  23.433  0.00  0.00    +0.009 C 
ENDBRANCH  28  30
ENDBRANCH  26  27
ENDBRANCH  25  26
ENDBRANCH  16  18
BRANCH  11   6
ATOM      3  C   UNL     1      -3.190   2.974  24.210  0.00  0.00    +0.172 A 
ATOM      4  C   UNL     1      -3.249   2.263  23.797  0.00  0.00    +0.040 A 
ATOM      5  C   UNL     1      -2.699   1.661  23.929  0.00  0.00    +0.005 A 
ATOM      6  C   UNL     1      -2.090   1.772  24.474  0.00  0.00    +0.021 A 
ATOM      7  C   UNL     1      -2.031   2.484  24.887  0.00  0.00    +0.042 A 
ATOM      8  C   UNL     1      -2.580   3.085  24.755  0.00  0.00    +0.172 A 
BRANCH   3   2
ATOM      1  C   UNL     1      -4.371   3.451  23.562  0.00  0.00    +0.253 C 
ATOM      2  O   UNL     1      -3.739   3.575  24.078  0.00  0.00    -0.468 OA
ENDBRANCH   3   2
BRANCH   8   9
ATOM      9  O   UNL     1      -2.521   3.797  25.168  0.00  0.00    -0.468 OA
ATOM     10  C   UNL     1      -1.919   3.905  25.722  0.00  0.00    +0.253 C 
ENDBRANCH   8   9
ENDBRANCH  11   6
TORSDOF 7
ENDMDL
MODEL 2
REMARK VINA RESULT:      -9.6      1.226      1.778
REMARK  Name = 
REMARK  7 active torsions:
REMARK  status: ('A' for Active; 'I' for Inactive)
REMARK    1  A    between atoms: O_2  and  C_3
REMARK    2  A    between atoms: C_6  and  C_11
REMARK    3  A    between atoms: C_8  and  O_9
REMARK    4  A    between atoms: C_16  and  C_18
REMARK    5  A    between atoms: C_25  and  C_26
REMARK    6  A    between atoms: C_26  and  N_27
REMARK    7  A    between atoms: C_28  and  C_30
REMARK                            x       y       z     vdW  Elec       q    Type
REMARK                         _______ _______ _______ _____ _____    ______ ____
ROOT
ATOM     11  C   UNL     1      -3.155   0.979  24.895  0.00  0.00    +0.084 A 
ATOM     12  N   UNL     1      -3.509   0.299  25.201  0.00  0.00    -0.231 NA
ATOM     13  C   UNL     1      -3.128  -0.430  25.135  0.00  0.00    +0.139 A 
ATOM     14  C   UNL     1      -3.481  -1.110  25.441  0.00  0.00    +0.074 C 
ATOM     15  N   UNL     1      -2.394  -0.478  24.762  0.00  0.00    -0.235 NA
ATOM     16  C   UNL     1      -2.041   0.202  24.456  0.00  0.00    +0.063 A 
ATOM     17  C   UNL     1      -2.421   0.930  24.522  0.00  0.00    +0.034 A 
ENDROOT
BRANCH  16  18
ATOM     18  C   UNL     1      -1.305   0.153  24.082  0.00  0.00    +0.056 C 
ATOM     19  C   UNL     1      -1.294   0.223  23.307  0.00  0.00    +0.078 C 
ATOM     20  N   UNL     1      -0.639   0.104  23.795  0.00  0.00    -0.272 NA
ATOM     21  C   UNL     1      -0.993   0.054  24.781  0.00  0.00    +0.072 C 
ATOM     22  C   UNL     1      -0.882  -0.017  25.421  0.00  0.00    +0.018 C 
ATOM     23  C   UNL     1      -0.658   0.037  24.554  0.00  0.00    +0.010 C 
ATOM     24  C   UNL     1       0.197  -0.043  24.372  0.00  0.00    +0.018 C 
ATOM     25  C   UNL     1       0.251   0.021  23.613  0.00  0.00    +0.079 C 
BRANCH  25  26
ATOM     26  C   UNL     1       0.795   0.016  22.993  0.00  0.00    +0.131 C 
BRANCH  26  27
ATOM     27  N   UNL     1       1.578   0.235  23.129  0.00  0.00    -0.204 NA
ATOM     28  C   UNL     1       2.137   0.159  22.528  0.00  0.00    +0.241 C 
ATOM     29  O   UNL     1       1.914  -0.135  21.790  0.00  0.00    -0.273 OA
BRANCH  28  30
ATOM     30  C   UNL     1       2.921   0.378  22.664  0.00  0.00    +0.078 C 
ATOM     31  C   UNL     1       3.631  -0.029  22.765  0.00  0.00    +0.009 C 
ATOM     32  C   UNL     1       4.030   0.688  22.857  0.00  0.00    +0.001 C 
ATOM     33  C   UNL     1       3.320   1.095  22.756  0.00  0.00    +0.009 C 
ENDBRANCH  28  30
ENDBRANCH  26  27
ENDBRANCH  25  26
ENDBRANCH  16  18
BRANCH  11   6
ATOM      3  C   UNL     1      -4.300   3.164  25.097  0.00  0.00    +0.172 A 
ATOM      4  C   UNL     1      -4.694   2.521  24.764  0.00  0.00    +0.040 A 
ATOM      5  C   UNL     1      -4.313   1.793  24.697  0.00  0.00    +0.005 A 
ATOM      6  C   UNL     1      -3.537   1.707  24.962  0.00  0.00    +0.021 A 
ATOM      7  C   UNL     1      -3.142   2.350  25.296  0.00  0.00    +0.042 A 
ATOM      8  C   UNL     1      -3.523   3.079  25.363  0.00  0.00    +0.172 A 
BRANCH   3   2
ATOM      1  C   UNL     1      -5.491   3.923  25.319  0.00  0.00    +0.253 C 
ATOM      2  O   UNL     1      -4.681   3.893  25.165  0.00  0.00    -0.468 OA
ENDBRANCH   3   2
BRANCH   8   9
ATOM      9  O   UNL     1      -3.129   3.722  25.696  0.00  0.00    -0.468 OA
ATOM     10  C   UNL     1      -2.307   3.708  25.773  0.00  0.00    +0.253 C 
ENDBRANCH   8   9
ENDBRANCH  11   6
TORSDOF 7
ENDMDL
MODEL 3
REMARK VINA RESULT:      -9.5      2.175      6.442
REMARK  Name = 
REMARK  7 active torsions:
REMARK  status: ('A' for Active; 'I' for Inactive)
REMARK    1  A    between atoms: O_2  and  C_3
REMARK    2  A    between atoms: C_6  and  C_11
REMARK    3  A    between atoms: C_8  and  O_9
REMARK    4  A    between atoms: C_16  and  C_18
REMARK    5  A    between atoms: C_25  and  C_26
REMARK    6  A    between atoms: C_26  and  N_27
REMARK    7  A    between atoms: C_28  and  C_30
REMARK                            x       y       z     vdW  Elec       q    Type
REMARK                         _______ _______ _______ _____ _____    ______ ____
ROOT
ATOM     11  C   UNL     1      -0.120   1.809  25.079  0.00  0.00    +0.084 A 
ATOM     12  N   UNL     1       0.385   2.015  25.697  0.00  0.00    -0.231 NA
ATOM     13  C   UNL     1       0.133   2.547  26.275  0.00  0.00    +0.139 A 
ATOM     14  C   UNL     1       0.638   2.755  26.894  0.00  0.00    +0.074 C 
ATOM     15  N   UNL     1      -0.624   2.872  26.235  0.00  0.00    -0.235 NA
ATOM     16  C   UNL     1      -1.129   2.664  25.616  0.00  0.00    +0.063 A 
ATOM     17  C   UNL     1      -0.877   2.133  25.038  0.00  0.00    +0.034 A 
ENDROOT
BRANCH  16  18
ATOM     18  C   UNL     1      -1.887   2.989  25.575  0.00  0.00    +0.056 C 
ATOM     19  C   UNL     1      -2.481   2.538  25.798  0.00  0.00    +0.078 C 
ATOM     20  N   UNL     1      -2.535   3.314  25.523  0.00  0.00    -0.272 NA
ATOM     21  C   UNL     1      -1.561   3.636  25.308  0.00  0.00    +0.072 C 
ATOM     22  C   UNL     1      -1.148   4.098  25.100  0.00  0.00    +0.018 C 
ATOM     23  C   UNL     1      -1.949   3.751  25.306  0.00  0.00    +0.010 C 
ATOM     24  C   UNL     1      -2.641   4.277  25.186  0.00  0.00    +0.018 C 
ATOM     25  C   UNL     1      -3.250   3.868  25.396  0.00  0.00    +0.079 C 
BRANCH  25  26
ATOM     26  C   UNL     1      -4.070   3.904  25.466  0.00  0.00    +0.131 C 
BRANCH  26  27
ATOM     27  N   UNL     1      -4.524   3.222  25.370  0.00  0.00    -0.204 NA
ATOM     28  C   UNL     1      -5.339   3.247  25.496  0.00  0.00    +0.241 C 
ATOM     29  O   UNL     1      -5.700   3.955  25.719  0.00  0.00    -0.273 OA
BRANCH  28  30
ATOM     30  C   UNL     1      -5.792   2.565  25.400  0.00  0.00    +0.078 C 
ATOM     31  C   UNL     1      -6.202   2.061  25.908  0.00  0.00    +0.009 C 
ATOM     32  C   UNL     1      -6.434   1.600  25.264  0.00  0.00    +0.001 C 
ATOM     33  C   UNL     1      -6.024   2.104  24.756  0.00  0.00    +0.009 C 
ENDBRANCH  28  30
ENDBRANCH  26  27
ENDBRANCH  25  26
ENDBRANCH  16  18
BRANCH  11   6
ATOM      3  C   UNL     1       0.639   0.213  23.346  0.00  0.00    +0.172 A 
ATOM      4  C   UNL     1       0.940   0.980  23.360  0.00  0.00    +0.040 A 
ATOM      5  C   UNL     1       0.687   1.512  23.937  0.00  0.00    +0.005 A 
ATOM      6  C   UNL     1       0.133   1.277  24.501  0.00  0.00    +0.021 A 
ATOM      7  C   UNL     1      -0.168   0.509  24.487  0.00  0.00    +0.042 A 
ATOM      8  C   UNL     1       0.085  -0.024  23.910  0.00  0.00    +0.172 A 
BRANCH   3   2
ATOM      1  C   UNL     1       1.557  -0.148  22.310  0.00  0.00    +0.253 C 
ATOM      2  O   UNL     1       0.892  -0.320  22.768  0.00  0.00    -0.468 OA
ENDBRANCH   3   2
BRANCH   8   9
ATOM      9  O   UNL     1      -0.216  -0.791  23.896  0.00  0.00    -0.468 OA
ATOM     10  C   UNL     1      -0.637  -1.082  24.543  0.00  0.00    +0.253 C 
ENDBRANCH   8   9
ENDBRANCH  11   6
TORSDOF 7
ENDMDL
MODEL 4
REMARK VINA RESULT:      -9.3      1.640      2.599
REMARK  Name = 
REMARK  7 active torsions:
REMARK  status: ('A' for Active; 'I' for Inactive)
REMARK    1  A    between atoms: O_2  and  C_3
REMARK    2  A    between atoms: C_6  and  C_11
REMARK    3  A    between atoms: C_8  and  O_9
REMARK    4  A    between atoms: C_16  and  C_18
REMARK    5  A    between atoms: C_25  and  C_26
REMARK    6  A    between atoms: C_26  and  N_27
REMARK    7  A    between atoms: C_28  and  C_30
REMARK                            x       y       z     vdW  Elec       q    Type
REMARK                         _______ _______ _______ _____ _____    ______ ____
ROOT
ATOM     11  C   UNL     1      -2.845   2.596  24.801  0.00  0.00    +0.084 A 
ATOM     12  N   UNL     1      -2.671   3.349  25.090  0.00  0.00    -0.231 NA
ATOM     13  C   UNL     1      -1.895   3.628  25.074  0.00  0.00    +0.139 A 
ATOM     14  C   UNL     1      -1.721   4.381  25.363  0.00  0.00    +0.074 C 
ATOM     15  N   UNL     1      -1.293   3.155  24.768  0.00  0.00    -0.235 NA
ATOM     16  C   UNL     1      -1.468   2.402  24.479  0.00  0.00    +0.063 A 
ATOM     17  C   UNL     1      -2.243   2.123  24.495  0.00  0.00    +0.034 A 
ENDROOT
BRANCH  16  18
ATOM     18  C   UNL     1      -0.865   1.927  24.173  0.00  0.00    +0.056 C 
ATOM     19  C   UNL     1      -0.804   1.884  23.398  0.00  0.00    +0.078 C 
ATOM     20  N   UNL     1      -0.322   1.500  23.947  0.00  0.00    -0.272 NA
ATOM     21  C   UNL     1      -0.665   1.766  24.901  0.00  0.00    +0.072 C 
ATOM     22  C   UNL     1      -0.621   1.728  25.552  0.00  0.00    +0.018 C 
ATOM     23  C   UNL     1      -0.387   1.547  24.705  0.00  0.00    +0.010 C 
ATOM     24  C   UNL     1       0.297   1.008  24.600  0.00  0.00    +0.018 C 
ATOM     25  C   UNL     1       0.390   0.938  23.846  0.00  0.00    +0.079 C 
BRANCH  25  26
ATOM     26  C   UNL     1       0.859   0.571  23.275  0.00  0.00    +0.131 C 
BRANCH  26  27
ATOM     27  N   UNL     1       1.678   0.671  23.287  0.00  0.00    -0.204 NA
ATOM     28  C   UNL     1       2.146   0.296  22.721  0.00  0.00    +0.241 C 
ATOM     29  O   UNL     1       1.797  -0.179  22.144  0.00  0.00    -0.273 OA
BRANCH  28  30
ATOM     30  C   UNL     1       2.965   0.396  22.733  0.00  0.00    +0.078 C 
ATOM     31  C   UNL     1       3.614  -0.111  22.770  0.00  0.00    +0.009 C 
ATOM     32  C   UNL     1       4.124   0.538  22.749  0.00  0.00    +0.001 C 
ATOM     33  C   UNL     1       3.475   1.045  22.712  0.00  0.00    +0.009 C 
ENDBRANCH  28  30
ENDBRANCH  26  27
ENDBRANCH  25  26
ENDBRANCH  16  18
BRANCH  11   6
ATOM      3  C   UNL     1      -5.174   1.761  24.852  0.00  0.00    +0.172 A 
ATOM      4  C   UNL     1      -5.019   2.533  24.610  0.00  0.00    +0.040 A 
ATOM      5  C   UNL     1      -4.242   2.812  24.593  0.00  0.00    +0.005 A 
ATOM      6  C   UNL     1      -3.622   2.318  24.818  0.00  0.00    +0.021 A 
ATOM      7  C   UNL     1      -3.777   1.545  25.060  0.00  0.00    +0.042 A 
ATOM      8  C   UNL     1      -4.553   1.266  25.077  0.00  0.00    +0.172 A 
BRANCH   3   2
ATOM      1  C   UNL     1      -6.580   2.012  24.930  0.00  0.00    +0.253 C 
ATOM      2  O   UNL     1      -5.951   1.481  24.869  0.00  0.00    -0.468 OA
ENDBRANCH   3   2
BRANCH   8   9
ATOM      9  O   UNL     1      -4.709   0.493  25.319  0.00  0.00    -0.468 OA
ATOM     10  C   UNL     1      -4.124  -0.086  25.257  0.00  0.00    +0.253 C 
ENDBRANCH   8   9
ENDBRANCH  11   6
TORSDOF 7
ENDMDL
MODEL 5
REMARK VINA RESULT:      -9.2      3.935      5.208
REMARK  Name = 
REMARK  7 active torsions:
REMARK  status: ('A' for Active; 'I' for Inactive)
REMARK    1  A    between atoms: O_2  and  C_3
REMARK    2  A    between atoms: C_6  and  C_11
REMARK    3  A    between atoms: C_8  and  O_9
REMARK    4  A    between atoms: C_16  and  C_18
REMARK    5  A    between atoms: C_25  and  C_26
REMARK    6  A    between atoms: C_26  and  N_27
REMARK    7  A    between atoms: C_28  and  C_30
REMARK                            x       y       z     vdW  Elec       q    Type
REMARK                         _______ _______ _______ _____ _____    ______ ____
ROOT
ATOM     11  C   UNL     1      -3.398   3.323  25.331  0.00  0.00    +0.084 A 
ATOM     12  N   UNL     1      -4.099   3.691  25.563  0.00  0.00    -0.231 NA
ATOM     13  C   UNL     1      -4.795   3.252  25.624  0.00  0.00    +0.139 A 
ATOM     14  C   UNL     1      -5.496   3.619  25.856  0.00  0.00    +0.074 C 
ATOM     15  N   UNL     1      -4.790   2.446  25.451  0.00  0.00    -0.235 NA
ATOM     16  C   UNL     1      -4.088   2.078  25.218  0.00  0.00    +0.063 A 
ATOM     17  C   UNL     1      -3.393   2.516  25.158  0.00  0.00    +0.034 A 
ENDROOT
BRANCH  16  18
ATOM     18  C   UNL     1      -4.083   1.270  25.045  0.00  0.00    +0.056 C 
ATOM     19  C   UNL     1      -3.823   0.789  25.599  0.00  0.00    +0.078 C 
ATOM     20  N   UNL     1      -4.096   0.570  24.851  0.00  0.00    -0.272 NA
ATOM     21  C   UNL     1      -4.371   1.449  24.352  0.00  0.00    +0.072 C 
ATOM     22  C   UNL     1      -4.605   1.752  23.822  0.00  0.00    +0.018 C 
ATOM     23  C   UNL     1      -4.349   1.047  24.314  0.00  0.00    +0.010 C 
ATOM     24  C   UNL     1      -4.429   0.261  23.931  0.00  0.00    +0.018 C 
ATOM     25  C   UNL     1      -4.181  -0.244  24.447  0.00  0.00    +0.079 C 
BRANCH  25  26
ATOM     26  C   UNL     1      -4.061  -1.051  24.568  0.00  0.00    +0.131 C 
BRANCH  26  27
ATOM     27  N   UNL     1      -3.322  -1.385  24.418  0.00  0.00    -0.204 NA
ATOM     28  C   UNL     1      -3.167  -2.162  24.649  0.00  0.00    +0.241 C 
ATOM     29  O   UNL     1      -3.751  -2.604  25.029  0.00  0.00    -0.273 OA
BRANCH  28  30
ATOM     30  C   UNL     1      -2.428  -2.497  24.499  0.00  0.00    +0.078 C 
ATOM     31  C   UNL     1      -2.160  -3.155  24.082  0.00  0.00    +0.009 C 
ATOM     32  C   UNL     1      -1.383  -2.970  24.288  0.00  0.00    +0.001 C 
ATOM     33  C   UNL     1      -1.651  -2.311  24.705  0.00  0.00    +0.009 C 
ENDBRANCH  28  30
ENDBRANCH  26  27
ENDBRANCH  25  26
ENDBRANCH  16  18
BRANCH  11   6
ATOM      3  C   UNL     1      -1.311   4.642  25.152  0.00  0.00    +0.172 A 
ATOM      4  C   UNL     1      -2.028   4.970  24.911  0.00  0.00    +0.040 A 
ATOM      5  C   UNL     1      -2.724   4.531  24.970  0.00  0.00    +0.005 A 
ATOM      6  C   UNL     1      -2.703   3.763  25.271  0.00  0.00    +0.021 A 
ATOM      7  C   UNL     1      -1.985   3.434  25.512  0.00  0.00    +0.042 A 
ATOM      8  C   UNL     1      -1.289   3.873  25.453  0.00  0.00    +0.172 A 
BRANCH   3   2
ATOM      1  C   UNL     1      -0.595   5.762  24.628  0.00  0.00    +0.253 C 
ATOM      2  O   UNL     1      -0.615   5.081  25.092  0.00  0.00    -0.468 OA
ENDBRANCH   3   2
BRANCH   8   9
ATOM      9  O   UNL     1      -0.572   3.545  25.693  0.00  0.00    -0.468 OA
ATOM     10  C   UNL     1      -0.554   2.792  26.029  0.00  0.00    +0.253 C 
ENDBRANCH   8   9
ENDBRANCH  11   6
TORSDOF 7
ENDMDL
MODEL 6
REMARK VINA RESULT:      -9.1      2.242      6.213
REMARK  Name = 
REMARK  7 active torsions:
REMARK  status: ('A' for Active; 'I' for Inactive)
REMARK    1  A    between atoms: O_2  and  C_3
REMARK    2  A    between atoms: C_6  and  C_11
REMARK    3  A    between atoms: C_8  and  O_9
REMARK    4  A    between atoms: C_16  and  C_18
REMARK    5  A    between atoms: C_25  and  C_26
REMARK    6  A    between atoms: C_26  and  N_27
REMARK    7  A    between atoms: C_28  and  C_30
REMARK                            x       y       z     vdW  Elec       q    Type
REMARK                         _______ _______ _______ _____ _____    ______ ____
ROOT
ATOM     11  C   UNL     1      -1.088  -0.755  24.328  0.00  0.00    +0.084 A 
ATOM     12  N   UNL     1      -1.059  -1.557  24.519  0.00  0.00    -0.231 NA
ATOM     13  C   UNL     1      -1.723  -1.929  24.839  0.00  0.00    +0.139 A 
ATOM     14  C   UNL     1      -1.694  -2.732  25.029  0.00  0.00    +0.074 C 
ATOM     15  N   UNL     1      -2.414  -1.499  24.968  0.00  0.00    -0.235 NA
ATOM     16  C   UNL     1      -2.442  -0.696  24.777  0.00  0.00    +0.063 A 
ATOM     17  C   UNL     1      -1.780  -0.325  24.458  0.00  0.00    +0.034 A 
ENDROOT
BRANCH  16  18
ATOM     18  C   UNL     1      -3.135  -0.265  24.907  0.00  0.00    +0.056 C 
ATOM     19  C   UNL     1      -3.151   0.205  25.527  0.00  0.00    +0.078 C 
ATOM     20  N   UNL     1      -3.762   0.094  24.983  0.00  0.00    -0.272 NA
ATOM     21  C   UNL     1      -3.424  -0.600  24.274  0.00  0.00    +0.072 C 
ATOM     22  C   UNL     1      -3.523  -0.955  23.734  0.00  0.00    +0.018 C 
ATOM     23  C   UNL     1      -3.739  -0.369  24.378  0.00  0.00    +0.010 C 
ATOM     24  C   UNL     1      -4.543  -0.020  24.327  0.00  0.00    +0.018 C 
ATOM     25  C   UNL     1      -4.599   0.453  24.924  0.00  0.00    +0.079 C 
BRANCH  25  26
ATOM     26  C   UNL     1      -5.114   0.979  25.296  0.00  0.00    +0.131 C 
BRANCH  26  27
ATOM     27  N   UNL     1      -4.997   1.792  25.223  0.00  0.00    -0.204 NA
ATOM     28  C   UNL     1      -5.483   2.316  25.634  0.00  0.00    +0.241 C 
ATOM     29  O   UNL     1      -6.086   2.028  26.118  0.00  0.00    -0.273 OA
BRANCH  28  30
ATOM     30  C   UNL     1      -5.367   3.130  25.562  0.00  0.00    +0.078 C 
ATOM     31  C   UNL     1      -5.860   3.785  25.483  0.00  0.00    +0.009 C 
ATOM     32  C   UNL     1      -5.201   4.280  25.459  0.00  0.00    +0.001 C 
ATOM     33  C   UNL     1      -4.707   3.625  25.537  0.00  0.00    +0.009 C 
ENDBRANCH  28  30
ENDBRANCH  26  27
ENDBRANCH  25  26
ENDBRANCH  16  18
BRANCH  11   6
ATOM      3  C   UNL     1       0.903   0.360  23.369  0.00  0.00    +0.172 A 
ATOM      4  C   UNL     1       0.695  -0.398  23.121  0.00  0.00    +0.040 A 
ATOM      5  C   UNL     1       0.031  -0.770  23.440  0.00  0.00    +0.005 A 
ATOM      6  C   UNL     1      -0.425  -0.384  24.008  0.00  0.00    +0.021 A 
ATOM      7  C   UNL     1      -0.216   0.375  24.257  0.00  0.00    +0.042 A 
ATOM      8  C   UNL     1       0.447   0.747  23.938  0.00  0.00    +0.172 A 
BRANCH   3   2
ATOM      1  C   UNL     1       2.141   0.287  22.657  0.00  0.00    +0.253 C 
ATOM      2  O   UNL     1       1.567   0.732  23.050  0.00  0.00    -0.468 OA
ENDBRANCH   3   2
BRANCH   8   9
ATOM      9  O   UNL     1       0.655   1.505  24.186  0.00  0.00    -0.468 OA
ATOM     10  C   UNL     1       0.140   1.941  24.661  0.00  0.00    +0.253 C 
ENDBRANCH   8   9
ENDBRANCH  11   6
TORSDOF 7
ENDMDL
MODEL 7
REMARK VINA RESULT:      -8.9      3.273      4.517
REMARK  Name = 
REMARK  7 active torsions:
REMARK  status: ('A' for Active; 'I' for Inactive)
REMARK    1  A    between atoms: O_2  and  C_3
REMARK    2  A    between atoms: C_6  and  C_11
REMARK    3  A    between atoms: C_8  and  O_9
REMARK    4  A    between atoms: C_16  and  C_18
REMARK    5  A    between atoms: C_25  and  C_26
REMARK    6  A    between atoms: C_26  and  N_27
REMARK    7  A    between atoms: C_28  and  C_30
REMARK                            x       y       z     vdW  Elec       q    Type
REMARK                         _______ _______ _______ _____ _____    ______ ____
ROOT
ATOM     11  C   UNL     1      -2.737   3.079  25.009  0.00  0.00    +0.084 A 
ATOM     12  N   UNL     1      -2.145   3.629  24.842  0.00  0.00    -0.231 NA
ATOM     13  C   UNL     1      -1.381   3.372  24.668  0.00  0.00    +0.139 A 
ATOM     14  C   UNL     1      -0.788   3.921  24.501  0.00  0.00    +0.074 C 
ATOM     15  N   UNL     1      -1.208   2.565  24.663  0.00  0.00    -0.235 NA
ATOM     16  C   UNL     1      -1.801   2.016  24.831  0.00  0.00    +0.063 A 
ATOM     17  C   UNL     1      -2.565   2.272  25.004  0.00  0.00    +0.034 A 
ENDROOT
BRANCH  16  18
ATOM     18  C   UNL     1      -1.628   1.208  24.825  0.00  0.00    +0.056 C 
ATOM     19  C   UNL     1      -1.974   0.774  24.280  0.00  0.00    +0.078 C 
ATOM     20  N   UNL     1      -1.449   0.504  24.857  0.00  0.00    -0.272 NA
ATOM     21  C   UNL     1      -1.167   1.335  25.431  0.00  0.00    +0.072 C 
ATOM     22  C   UNL     1      -0.826   1.595  25.924  0.00  0.00    +0.018 C 
ATOM     23  C   UNL     1      -1.114   0.936  25.388  0.00  0.00    +0.010 C 
ATOM     24  C   UNL     1      -0.800   0.135  25.560  0.00  0.00    +0.018 C 
ATOM     25  C   UNL     1      -1.118  -0.326  25.041  0.00  0.00    +0.079 C 
BRANCH  25  26
ATOM     26  C   UNL     1      -1.145  -1.112  24.793  0.00  0.00    +0.131 C 
BRANCH  26  27
ATOM     27  N   UNL     1      -1.861  -1.522  24.799  0.00  0.00    -0.204 NA
ATOM     28  C   UNL     1      -1.899  -2.289  24.500  0.00  0.00    +0.241 C 
ATOM     29  O   UNL     1      -1.222  -2.647  24.194  0.00  0.00    -0.273 OA
BRANCH  28  30
ATOM     30  C   UNL     1      -2.615  -2.699  24.506  0.00  0.00    +0.078 C 
ATOM     31  C   UNL     1      -2.925  -3.338  24.086  0.00  0.00    +0.009 C 
ATOM     32  C   UNL     1      -3.628  -3.279  24.515  0.00  0.00    +0.001 C 
ATOM     33  C   UNL     1      -3.318  -2.640  24.934  0.00  0.00    +0.009 C 
ENDBRANCH  28  30
ENDBRANCH  26  27
ENDBRANCH  25  26
ENDBRANCH  16  18
BRANCH  11   6
ATOM      3  C   UNL     1      -5.030   3.853  25.529  0.00  0.00    +0.172 A 
ATOM      4  C   UNL     1      -4.380   4.293  25.779  0.00  0.00    +0.040 A 
ATOM      5  C   UNL     1      -3.615   4.036  25.606  0.00  0.00    +0.005 A 
ATOM      6  C   UNL     1      -3.501   3.337  25.183  0.00  0.00    +0.021 A 
ATOM      7  C   UNL     1      -4.152   2.896  24.932  0.00  0.00    +0.042 A 
ATOM      8  C   UNL     1      -4.917   3.153  25.104  0.00  0.00    +0.172 A 
BRANCH   3   2
ATOM      1  C   UNL     1      -5.966   4.917  25.716  0.00  0.00    +0.253 C 
ATOM      2  O   UNL     1      -5.795   4.110  25.701  0.00  0.00    -0.468 OA
ENDBRANCH   3   2
BRANCH   8   9
ATOM      9  O   UNL     1      -5.567   2.713  24.854  0.00  0.00    -0.468 OA
ATOM     10  C   UNL     1      -5.542   1.889  24.878  0.00  0.00    +0.253 C 
ENDBRANCH   8   9
ENDBRANCH  11   6
TORSDOF 7
ENDMDL
MODEL 8
REMARK VINA RESULT:      -8.7      2.860      4.495
REMARK  Name = 
REMARK  7 active torsions:
REMARK  status: ('A' for Active; 'I' for Inactive)
REMARK    1  A    between atoms: O_2  and  C_3
REMARK    2  A    between atoms: C_6  and  C_11
REMARK    3  A    between atoms: C_8  and  O_9
REMARK    4  A    between atoms: C_16  and  C_18
REMARK    5  A    between atoms: C_25  and  C_26
REMARK    6  A    between atoms: C_26  and  N_27
REMARK    7  A    between atoms: C_28  and  C_30
REMARK                            x       y       z     vdW  Elec       q    Type
REMARK                         _______ _______ _______ _____ _____    ______ ____
ROOT
ATOM     11  C   UNL     1      -0.851   2.918  25.808  0.00  0.00    +0.084 A 
ATOM     12  N   UNL     1      -0.232   2.994  26.348  0.00  0.00    -0.231 NA
ATOM     13  C   UNL     1       0.192   2.327  26.586  0.00  0.00    +0.139 A 
ATOM     14  C   UNL     1       0.811   2.402  27.126  0.00  0.00    +0.074 C 
ATOM     15  N   UNL     1      -0.002   1.585  26.282  0.00  0.00    -0.235 NA
ATOM     16  C   UNL     1      -0.621   1.510  25.741  0.00  0.00    +0.063 A 
ATOM     17  C   UNL     1      -1.045   2.176  25.504  0.00  0.00    +0.034 A 
ENDROOT
BRANCH  16  18
ATOM     18  C   UNL     1      -0.816   0.767  25.437  0.00  0.00    +0.056 C 
ATOM     19  C   UNL     1      -1.319   0.336  25.845  0.00  0.00    +0.078 C 
ATOM     20  N   UNL     1      -0.959   0.122  25.134  0.00  0.00    -0.272 NA
ATOM     21  C   UNL     1      -0.340   0.919  24.848  0.00  0.00    +0.072 C 
ATOM     22  C   UNL     1       0.083   1.187  24.429  0.00  0.00    +0.018 C 
ATOM     23  C   UNL     1      -0.466   0.550  24.740  0.00  0.00    +0.010 C 
ATOM     24  C   UNL     1      -0.529  -0.177  24.252  0.00  0.00    +0.018 C 
ATOM     25  C   UNL     1      -1.019  -0.631  24.622  0.00  0.00    +0.079 C 
BRANCH  25  26
ATOM     26  C   UNL     1      -1.387  -1.368  24.581  0.00  0.00    +0.131 C 
BRANCH  26  27
ATOM     27  N   UNL     1      -2.190  -1.419  24.403  0.00  0.00    -0.204 NA
ATOM     28  C   UNL     1      -2.555  -2.157  24.354  0.00  0.00    +0.241 C 
ATOM     29  O   UNL     1      -2.117  -2.844  24.484  0.00  0.00    -0.273 OA
BRANCH  28  30
ATOM     30  C   UNL     1      -3.359  -2.209  24.176  0.00  0.00    +0.078 C 
ATOM     31  C   UNL     1      -3.914  -2.818  24.157  0.00  0.00    +0.009 C 
ATOM     32  C   UNL     1      -4.496  -2.281  23.923  0.00  0.00    +0.001 C 
ATOM     33  C   UNL     1      -3.940  -1.672  23.942  0.00  0.00    +0.009 C 
ENDBRANCH  28  30
ENDBRANCH  26  27
ENDBRANCH  25  26
ENDBRANCH  16  18
BRANCH  11   6
ATOM      3  C   UNL     1      -2.123   4.919  25.098  0.00  0.00    +0.172 A 
ATOM      4  C   UNL     1      -1.312   4.874  24.957  0.00  0.00    +0.040 A 
ATOM      5  C   UNL     1      -0.887   4.208  25.193  0.00  0.00    +0.005 A 
ATOM      6  C   UNL     1      -1.274   3.585  25.571  0.00  0.00    +0.021 A 
ATOM      7  C   UNL     1      -2.086   3.629  25.713  0.00  0.00    +0.042 A 
ATOM      8  C   UNL     1      -2.511   4.296  25.477  0.00  0.00    +0.172 A 
BRANCH   3   2
ATOM      1  C   UNL     1      -2.148   6.258  24.598  0.00  0.00    +0.253 C 
ATOM      2  O   UNL     1      -2.548   5.586  24.862  0.00  0.00    -0.468 OA
ENDBRANCH   3   2
BRANCH   8   9
ATOM      9  O   UNL     1      -3.322   4.341  25.618  0.00  0.00    -0.468 OA
ATOM     10  C   UNL     1      -3.735   3.673  25.870  0.00  0.00    +0.253 C 
ENDBRANCH   8   9
ENDBRANCH  11   6
TORSDOF 7
ENDMDL
