MODEL 1
REMARK VINA RESULT:      -8.8      0.000      0.000
REMARK  Name = 
REMARK  3 active torsions:
REMARK  status: ('A' for Active; 'I' for Inactive)
REMARK    1  A    between atoms: O_2  and  C_3
REMARK    2  A    between atoms: C_6  and  C_7
REMARK    3  A    between atoms: C_7  and  N_8
REMARK                            x       y       z     vdW  Elec       q    Type
REMARK                         _______ _______ _______ _____ _____    ______ ____
ROOT
ATOM      8  N   UNL     1      -3.587   1.342  24.205  0.00  0.00    -0.266 NA
ATOM      9  C   UNL     1      -4.363   1.546  24.394  0.00  0.00    +0.094 C 
ATOM     10  C   UNL     1      -4.515   2.229  24.830  0.00  0.00    +0.112 C 
ATOM     11  N   UNL     1      -3.891   2.709  25.078  0.00  0.00    -0.261 N 
ATOM     12  C   UNL     1      -3.114   2.504  24.889  0.00  0.00    +0.113 C 
ATOM     13  C   UNL     1      -2.615   3.079  25.206  0.00  0.00    +0.116 C 
ATOM     14  N   UNL     1      -3.083   3.639  25.591  0.00  0.00    -0.261 N 
ATOM     15  C   UNL     1      -2.810   4.310  25.986  0.00  0.00    +0.117 C 
ATOM     16  C   UNL     1      -3.871   3.409  25.512  0.00  0.00    +0.307 C 
ATOM     17  O   UNL     1      -4.526   3.811  25.814  0.00  0.00    -0.252 OA
ATOM     18  C   UNL     1      -2.962   1.820  24.452  0.00  0.00    +0.094 C 
ENDROOT
BRANCH   8   7
ATOM      7  C   UNL     1      -3.434   0.658  23.768  0.00  0.00    +0.101 C 
BRANCH   7   6
ATOM      3  C   UNL     1      -3.498  -1.555  24.875  0.00  0.00    +0.225 A 
ATOM      4  C   UNL     1      -4.140  -1.301  24.423  0.00  0.00    +0.057 A 
ATOM      5  C   UNL     1      -4.119  -0.563  24.053  0.00  0.00    +0.003 A 
ATOM      6  C   UNL     1      -3.456  -0.079  24.137  0.00  0.00    +0.013 A 
ATOM     19  C   UNL     1      -2.814  -0.333  24.589  0.00  0.00    +0.099 A 
ATOM     20  N   UNL     1      -2.835  -1.071  24.958  0.00  0.00    -0.210 NA
BRANCH   3   2
ATOM      1  C   UNL     1      -3.423  -2.980  24.799  0.00  0.00    +0.254 C 
ATOM      2  O   UNL     1      -3.519  -2.292  25.244  0.00  0.00    -0.456 OA
ENDBRANCH   3   2
ENDBRANCH   7   6
ENDBRANCH   8   7
TORSDOF 3
ENDMDL
MODEL 2
REMARK VINA RESULT:      -8.4      2.861      3.851
REMARK  Name = 
REMARK  3 active torsions:
REMARK  status: ('A' for Active; 'I' for Inactive)
REMARK    1  A    between atoms: O_2  and  C_3
REMARK    2  A    between atoms: C_6  and  C_7
REMARK    3  A    between atoms: C_7  and  N_8
REMARK                            x       y       z     vdW  Elec       q    Type
REMARK                         _______ _______ _______ _____ _____    ______ ____
ROOT
ATOM      8  N   UNL     1      -2.359   3.517  24.900  0.00  0.00    -0.266 NA
ATOM      9  C   UNL     1      -2.025   3.657  25.641  0.00  0.00    +0.094 C 
ATOM     10  C   UNL     1      -1.294   3.327  25.833  0.00  0.00    +0.112 C 
ATOM     11  N   UNL     1      -0.897   2.856  25.284  0.00  0.00    -0.261 N 
ATOM     12  C   UNL     1      -1.231   2.716  24.543  0.00  0.00    +0.113 C 
ATOM     13  C   UNL     1      -0.715   2.233  24.118  0.00  0.00    +0.116 C 
ATOM     14  N   UNL     1      -0.062   2.074  24.596  0.00  0.00    -0.261 N 
ATOM     15  C   UNL     1       0.589   1.611  24.389  0.00  0.00    +0.117 C 
ATOM     16  C   UNL     1      -0.175   2.459  25.316  0.00  0.00    +0.307 C 
ATOM     17  O   UNL     1       0.345   2.450  25.958  0.00  0.00    -0.252 OA
ATOM     18  C   UNL     1      -1.963   3.046  24.351  0.00  0.00    +0.094 C 
ENDROOT
BRANCH   8   7
ATOM      7  C   UNL     1      -3.091   3.848  24.708  0.00  0.00    +0.101 C 
BRANCH   7   6
ATOM      3  C   UNL     1      -5.179   2.680  25.340  0.00  0.00    +0.225 A 
ATOM      4  C   UNL     1      -4.829   2.531  24.609  0.00  0.00    +0.057 A 
ATOM      5  C   UNL     1      -4.133   2.921  24.397  0.00  0.00    +0.003 A 
ATOM      6  C   UNL     1      -3.786   3.458  24.918  0.00  0.00    +0.013 A 
ATOM     19  C   UNL     1      -4.137   3.607  25.651  0.00  0.00    +0.099 A 
ATOM     20  N   UNL     1      -4.833   3.217  25.862  0.00  0.00    -0.210 NA
BRANCH   3   2
ATOM      1  C   UNL     1      -6.198   1.720  25.052  0.00  0.00    +0.254 C 
ATOM      2  O   UNL     1      -5.875   2.290  25.552  0.00  0.00    -0.456 OA
ENDBRANCH   3   2
ENDBRANCH   7   6
ENDBRANCH   8   7
TORSDOF 3
ENDMDL
MODEL 3
REMARK VINA RESULT:      -8.3      2.867      3.744
REMARK  Name = 
REMARK  3 active torsions:
REMARK  status: ('A' for Active; 'I' for Inactive)
REMARK    1  A    between atoms: O_2  and  C_3
REMARK    2  A    between atoms: C_6  and  C_7
REMARK    3  A    between atoms: C_7  and  N_8
REMARK                            x       y       z     vdW  Elec       q    Type
REMARK                         _______ _______ _______ _____ _____    ______ ____
ROOT
ATOM      8  N   UNL     1      -3.135   3.692  25.046  0.00  0.00    -0.266 NA
ATOM      9  C   UNL     1      -3.403   3.906  25.796  0.00  0.00    +0.094 C 
ATOM     10  C   UNL     1      -4.126   3.621  26.072  0.00  0.00    +0.112 C 
ATOM     11  N   UNL     1      -4.581   3.122  25.599  0.00  0.00    -0.261 N 
ATOM     12  C   UNL     1      -4.313   2.908  24.849  0.00  0.00    +0.113 C 
ATOM     13  C   UNL     1      -4.877   2.412  24.509  0.00  0.00    +0.116 C 
ATOM     14  N   UNL     1      -5.494   2.319  25.048  0.00  0.00    -0.261 N 
ATOM     15  C   UNL     1      -6.174   1.866  24.934  0.00  0.00    +0.117 C 
ATOM     16  C   UNL     1      -5.310   2.758  25.722  0.00  0.00    +0.307 C 
ATOM     17  O   UNL     1      -5.776   2.822  26.400  0.00  0.00    -0.252 OA
ATOM     18  C   UNL     1      -3.590   3.193  24.572  0.00  0.00    +0.094 C 
ENDROOT
BRANCH   8   7
ATOM      7  C   UNL     1      -2.411   3.977  24.769  0.00  0.00    +0.101 C 
BRANCH   7   6
ATOM      3  C   UNL     1      -0.373   2.589  24.982  0.00  0.00    +0.225 A 
ATOM      4  C   UNL     1      -0.581   3.112  25.585  0.00  0.00    +0.057 A 
ATOM      5  C   UNL     1      -1.261   3.575  25.515  0.00  0.00    +0.003 A 
ATOM      6  C   UNL     1      -1.732   3.515  24.840  0.00  0.00    +0.013 A 
ATOM     19  C   UNL     1      -1.524   2.992  24.236  0.00  0.00    +0.099 A 
ATOM     20  N   UNL     1      -0.845   2.529  24.308  0.00  0.00    -0.210 NA
BRANCH   3   2
ATOM      1  C   UNL     1       0.564   1.672  24.415  0.00  0.00    +0.254 C 
ATOM      2  O   UNL     1       0.306   2.126  25.053  0.00  0.00    -0.456 OA
ENDBRANCH   3   2
ENDBRANCH   7   6
ENDBRANCH   8   7
TORSDOF 3
ENDMDL
MODEL 4
REMARK VINA RESULT:      -8.2      0.823      4.376
REMARK  Name = 
REMARK  3 active torsions:
REMARK  status: ('A' for Active; 'I' for Inactive)
REMARK    1  A    between atoms: O_2  and  C_3
REMARK    2  A    between atoms: C_6  and  C_7
REMARK    3  A    between atoms: C_7  and  N_8
REMARK                            x       y       z     vdW  Elec       q    Type
REMARK                         _______ _______ _______ _____ _____    ______ ____
ROOT
ATOM      8  N   UNL     1      -3.042   0.710  23.944  0.00  0.00    -0.266 NA
ATOM      9  C   UNL     1      -2.304   0.566  24.284  0.00  0.00    +0.094 C 
ATOM     10  C   UNL     1      -2.121  -0.187  24.567  0.00  0.00    +0.112 C 
ATOM     11  N   UNL     1      -2.674  -0.796  24.510  0.00  0.00    -0.261 N 
ATOM     12  C   UNL     1      -3.412  -0.652  24.171  0.00  0.00    +0.113 C 
ATOM     13  C   UNL     1      -3.843  -1.354  24.190  0.00  0.00    +0.116 C 
ATOM     14  N   UNL     1      -3.372  -1.933  24.541  0.00  0.00    -0.261 N 
ATOM     15  C   UNL     1      -3.586  -2.719  24.672  0.00  0.00    +0.117 C 
ATOM     16  C   UNL     1      -2.650  -1.587  24.739  0.00  0.00    +0.307 C 
ATOM     17  O   UNL     1      -2.014  -1.968  25.103  0.00  0.00    -0.252 OA
ATOM     18  C   UNL     1      -3.596   0.102  23.887  0.00  0.00    +0.094 C 
ENDROOT
BRANCH   8   7
ATOM      7  C   UNL     1      -3.226   1.463  23.661  0.00  0.00    +0.101 C 
BRANCH   7   6
ATOM      3  C   UNL     1      -4.279   3.124  25.163  0.00  0.00    +0.225 A 
ATOM      4  C   UNL     1      -4.749   2.643  24.687  0.00  0.00    +0.057 A 
ATOM      5  C   UNL     1      -4.399   2.088  24.186  0.00  0.00    +0.003 A 
ATOM      6  C   UNL     1      -3.577   2.017  24.162  0.00  0.00    +0.013 A 
ATOM     19  C   UNL     1      -3.106   2.499  24.638  0.00  0.00    +0.099 A 
ATOM     20  N   UNL     1      -3.458   3.052  25.139  0.00  0.00    -0.210 NA
BRANCH   3   2
ATOM      1  C   UNL     1      -5.451   3.748  25.694  0.00  0.00    +0.254 C 
ATOM      2  O   UNL     1      -4.630   3.678  25.664  0.00  0.00    -0.456 OA
ENDBRANCH   3   2
ENDBRANCH   7   6
ENDBRANCH   8   7
TORSDOF 3
ENDMDL
MODEL 5
REMARK VINA RESULT:      -8.2      2.545      2.874
REMARK  Name = 
REMARK  3 active torsions:
REMARK  status: ('A' for Active; 'I' for Inactive)
REMARK    1  A    between atoms: O_2  and  C_3
REMARK    2  A    between atoms: C_6  and  C_7
REMARK    3  A    between atoms: C_7  and  N_8
REMARK                            x       y       z     vdW  Elec       q    Type
REMARK                         _______ _______ _______ _____ _____    ______ ____
ROOT
ATOM      8  N   UNL     1      -0.918  -0.116  25.287  0.00  0.00    -0.266 NA
ATOM      9  C   UNL     1      -0.544  -0.055  24.554  0.00  0.00    +0.094 C 
ATOM     10  C   UNL     1      -0.330   0.685  24.261  0.00  0.00    +0.112 C 
ATOM     11  N   UNL     1      -0.488   1.365  24.701  0.00  0.00    -0.261 N 
ATOM     12  C   UNL     1      -0.862   1.304  25.433  0.00  0.00    +0.113 C 
ATOM     13  C   UNL     1      -0.947   2.065  25.740  0.00  0.00    +0.116 C 
ATOM     14  N   UNL     1      -0.625   2.596  25.197  0.00  0.00    -0.261 N 
ATOM     15  C   UNL     1      -0.593   3.416  25.282  0.00  0.00    +0.117 C 
ATOM     16  C   UNL     1      -0.342   2.163  24.555  0.00  0.00    +0.307 C 
ATOM     17  O   UNL     1       0.024   2.474  23.884  0.00  0.00    -0.252 OA
ATOM     18  C   UNL     1      -1.078   0.563  25.727  0.00  0.00    +0.094 C 
ENDROOT
BRANCH   8   7
ATOM      7  C   UNL     1      -1.134  -0.857  25.581  0.00  0.00    +0.101 C 
BRANCH   7   6
ATOM      3  C   UNL     1      -3.179  -1.971  24.743  0.00  0.00    +0.225 A 
ATOM      4  C   UNL     1      -3.229  -1.431  25.365  0.00  0.00    +0.057 A 
ATOM      5  C   UNL     1      -2.547  -1.060  25.645  0.00  0.00    +0.003 A 
ATOM      6  C   UNL     1      -1.816  -1.228  25.302  0.00  0.00    +0.013 A 
ATOM     19  C   UNL     1      -1.766  -1.768  24.680  0.00  0.00    +0.099 A 
ATOM     20  N   UNL     1      -2.448  -2.140  24.401  0.00  0.00    -0.210 NA
BRANCH   3   2
ATOM      1  C   UNL     1      -4.281  -2.016  23.835  0.00  0.00    +0.254 C 
ATOM      2  O   UNL     1      -3.861  -2.343  24.464  0.00  0.00    -0.456 OA
ENDBRANCH   3   2
ENDBRANCH   7   6
ENDBRANCH   8   7
TORSDOF 3
ENDMDL
