MODEL 1
REMARK VINA RESULT:     -11.4      0.000      0.000
REMARK  Name = 
REMARK  7 active torsions:
REMARK  status: ('A' for Active; 'I' for Inactive)
REMARK    1  A    between atoms: C_2  and  C_4
REMARK    2  A    between atoms: C_6  and  C_7
REMARK    3  A    between atoms: C_7  and  C_8
REMARK    4  A    between atoms: C_11  and  C_13
REMARK    5  A    between atoms: C_22  and  C_23
REMARK    6  A    between atoms: C_23  and  N_24
REMARK    7  A    between atoms: C_27  and  C_30
REMARK                            x       y       z     vdW  Elec       q    Type
REMARK                         _______ _______ _______ _____ _____    ______ ____
ROOT
ATOM      4  C   UNL     1      -3.287   1.598  23.595  0.00  0.00    +0.006 C 
ATOM      5  C   UNL     1      -3.505   2.288  23.991  0.00  0.00    +0.005 C 
ATOM      6  C   UNL     1      -4.061   2.256  24.601  0.00  0.00    +0.027 C 
ATOM     19  C   UNL     1      -4.398   1.534  24.814  0.00  0.00    -0.048 C 
ATOM     20  C   UNL     1      -4.952   1.502  25.423  0.00  0.00    +0.026 C 
ATOM     21  C   UNL     1      -4.179   0.844  24.418  0.00  0.00    -0.034 C 
ATOM     22  C   UNL     1      -3.624   0.876  23.809  0.00  0.00    +0.037 C 
ENDROOT
BRANCH   4   2
ATOM      1  C   UNL     1      -1.934   1.497  23.149  0.00  0.00    +0.000 C 
ATOM      2  C   UNL     1      -2.732   1.630  22.986  0.00  0.00    +0.000 C 
ATOM      3  C   UNL     1      -2.974   1.795  22.216  0.00  0.00    +0.000 C 
ENDBRANCH   4   2
BRANCH   6   7
ATOM      7  C   UNL     1      -4.279   2.947  24.996  0.00  0.00    +0.091 C 
BRANCH   7   8
ATOM      8  C   UNL     1      -3.701   3.439  25.316  0.00  0.00    +0.227 A 
ATOM      9  N   UNL     1      -3.646   3.672  26.106  0.00  0.00    -0.111 NA
ATOM     10  N   UNL     1      -2.986   4.162  26.182  0.00  0.00    -0.107 NA
ATOM     11  C   UNL     1      -2.633   4.231  25.439  0.00  0.00    +0.251 A 
ATOM     12  O   UNL     1      -3.075   3.784  24.904  0.00  0.00    -0.419 OA
BRANCH  11  13
ATOM     13  C   UNL     1      -1.958   4.670  25.262  0.00  0.00    +0.074 A 
ATOM     14  C   UNL     1      -2.008   5.489  25.176  0.00  0.00    +0.104 A 
ATOM     15  N   UNL     1      -1.334   5.929  24.999  0.00  0.00    -0.242 NA
ATOM     16  C   UNL     1      -0.607   5.548  24.908  0.00  0.00    +0.099 A 
ATOM     17  C   UNL     1      -0.555   4.730  24.994  0.00  0.00    +0.021 A 
ATOM     18  C   UNL     1      -1.231   4.291  25.171  0.00  0.00    +0.008 A 
ENDBRANCH  11  13
ENDBRANCH   7   8
ENDBRANCH   6   7
BRANCH  22  23
ATOM     23  C   UNL     1      -3.406   0.186  23.414  0.00  0.00    +0.076 C 
BRANCH  23  24
ATOM     24  N   UNL     1      -3.433  -0.541  23.806  0.00  0.00    -0.272 NA
ATOM     25  C   UNL     1      -4.076  -1.046  23.693  0.00  0.00    +0.073 C 
ATOM     26  C   UNL     1      -4.103  -1.771  24.084  0.00  0.00    +0.027 C 
ATOM     27  C   UNL     1      -3.487  -1.992  24.588  0.00  0.00    +0.083 C 
ATOM     28  C   UNL     1      -2.845  -1.487  24.700  0.00  0.00    +0.027 C 
ATOM     29  C   UNL     1      -2.818  -0.761  24.308  0.00  0.00    +0.073 C 
BRANCH  27  30
ATOM     30  C   UNL     1      -3.514  -2.717  24.979  0.00  0.00    +0.260 C 
ATOM     31  N   UNL     1      -3.590  -3.417  24.547  0.00  0.00    -0.088 NA
ATOM     32  O   UNL     1      -3.466  -2.745  25.802  0.00  0.00    -0.272 OA
ENDBRANCH  27  30
ENDBRANCH  23  24
ENDBRANCH  22  23
TORSDOF 7
ENDMDL
MODEL 2
REMARK VINA RESULT:     -11.4      1.312      2.134
REMARK  Name = 
REMARK  7 active torsions:
REMARK  status: ('A' for Active; 'I' for Inactive)
REMARK    1  A    between atoms: C_2  and  C_4
REMARK    2  A    between atoms: C_6  and  C_7
REMARK    3  A    between atoms: C_7  and  C_8
REMARK    4  A    between atoms: C_11  and  C_13
REMARK    5  A    between atoms: C_22  and  C_23
REMARK    6  A    between atoms: C_23  and  N_24
REMARK    7  A    between atoms: C_27  and  C_30
REMARK                            x       y       z     vdW  Elec       q    Type
REMARK                         _______ _______ _______ _____ _____    ______ ____
ROOT
ATOM      4  C   UNL     1      -4.638   1.575  24.685  0.00  0.00    +0.006 C 
ATOM      5  C   UNL     1      -4.224   2.263  24.498  0.00  0.00    +0.005 C 
ATOM      6  C   UNL     1      -3.586   2.232  23.975  0.00  0.00    +0.027 C 
ATOM     19  C   UNL     1      -3.363   1.512  23.640  0.00  0.00    -0.048 C 
ATOM     20  C   UNL     1      -2.726   1.481  23.117  0.00  0.00    +0.026 C 
ATOM     21  C   UNL     1      -3.778   0.824  23.827  0.00  0.00    -0.034 C 
ATOM     22  C   UNL     1      -4.415   0.855  24.350  0.00  0.00    +0.037 C 
ENDROOT
BRANCH   4   2
ATOM      1  C   UNL     1      -5.140   1.609  26.023  0.00  0.00    +0.000 C 
ATOM      2  C   UNL     1      -5.275   1.607  25.208  0.00  0.00    +0.000 C 
ATOM      3  C   UNL     1      -6.046   1.637  24.918  0.00  0.00    +0.000 C 
ENDBRANCH   4   2
BRANCH   6   7
ATOM      7  C   UNL     1      -3.173   2.920  23.788  0.00  0.00    +0.091 C 
BRANCH   7   8
ATOM      8  C   UNL     1      -2.608   3.217  24.310  0.00  0.00    +0.227 A 
ATOM      9  N   UNL     1      -2.576   3.988  24.603  0.00  0.00    -0.111 NA
ATOM     10  N   UNL     1      -1.923   4.043  25.105  0.00  0.00    -0.107 NA
ATOM     11  C   UNL     1      -1.552   3.306  25.122  0.00  0.00    +0.251 A 
ATOM     12  O   UNL     1      -1.975   2.796  24.630  0.00  0.00    -0.419 OA
BRANCH  11  13
ATOM     13  C   UNL     1      -0.877   3.113  25.554  0.00  0.00    +0.074 A 
ATOM     14  C   UNL     1      -0.132   3.176  25.206  0.00  0.00    +0.104 A 
ATOM     15  N   UNL     1       0.545   2.983  25.637  0.00  0.00    -0.242 NA
ATOM     16  C   UNL     1       0.475   2.727  26.419  0.00  0.00    +0.099 A 
ATOM     17  C   UNL     1      -0.269   2.664  26.768  0.00  0.00    +0.021 A 
ATOM     18  C   UNL     1      -0.946   2.857  26.335  0.00  0.00    +0.008 A 
ENDBRANCH  11  13
ENDBRANCH   7   8
ENDBRANCH   6   7
BRANCH  22  23
ATOM     23  C   UNL     1      -4.829   0.167  24.537  0.00  0.00    +0.076 C 
BRANCH  23  24
ATOM     24  N   UNL     1      -4.438  -0.561  24.544  0.00  0.00    -0.272 NA
ATOM     25  C   UNL     1      -3.975  -0.774  25.192  0.00  0.00    +0.073 C 
ATOM     26  C   UNL     1      -3.585  -1.501  25.198  0.00  0.00    +0.027 C 
ATOM     27  C   UNL     1      -3.659  -2.015  24.556  0.00  0.00    +0.083 C 
ATOM     28  C   UNL     1      -4.123  -1.801  23.909  0.00  0.00    +0.027 C 
ATOM     29  C   UNL     1      -4.512  -1.074  23.902  0.00  0.00    +0.073 C 
BRANCH  27  30
ATOM     30  C   UNL     1      -3.269  -2.741  24.563  0.00  0.00    +0.260 C 
ATOM     31  N   UNL     1      -2.476  -2.786  24.339  0.00  0.00    -0.088 NA
ATOM     32  O   UNL     1      -3.672  -3.424  24.792  0.00  0.00    -0.272 OA
ENDBRANCH  27  30
ENDBRANCH  23  24
ENDBRANCH  22  23
TORSDOF 7
ENDMDL
MODEL 3
REMARK VINA RESULT:     -11.2      2.085      3.503
REMARK  Name = 
REMARK  7 active torsions:
REMARK  status: ('A' for Active; 'I' for Inactive)
REMARK    1  A    between atoms: C_2  and  C_4
REMARK    2  A    between atoms: C_6  and  C_7
REMARK    3  A    between atoms: C_7  and  C_8
REMARK    4  A    between atoms: C_11  and  C_13
REMARK    5  A    between atoms: C_22  and  C_23
REMARK    6  A    between atoms: C_23  and  N_24
REMARK    7  A    between atoms: C_27  and  C_30
REMARK                            x       y       z     vdW  Elec       q    Type
REMARK                         _______ _______ _______ _____ _____    ______ ____
ROOT
ATOM      4  C   UNL     1      -1.244   2.459  24.668  0.00  0.00    +0.006 C 
ATOM      5  C   UNL     1      -1.880   2.894  24.375  0.00  0.00    +0.005 C 
ATOM      6  C   UNL     1      -2.364   2.573  23.788  0.00  0.00    +0.027 C 
ATOM     19  C   UNL     1      -2.211   1.817  23.495  0.00  0.00    -0.048 C 
ATOM     20  C   UNL     1      -2.694   1.496  22.909  0.00  0.00    +0.026 C 
ATOM     21  C   UNL     1      -1.574   1.382  23.789  0.00  0.00    -0.034 C 
ATOM     22  C   UNL     1      -1.090   1.703  24.375  0.00  0.00    +0.037 C 
ENDROOT
BRANCH   4   2
ATOM      1  C   UNL     1      -1.009   2.775  26.042  0.00  0.00    +0.000 C 
ATOM      2  C   UNL     1      -0.760   2.780  25.254  0.00  0.00    +0.000 C 
ATOM      3  C   UNL     1      -0.031   3.106  25.055  0.00  0.00    +0.000 C 
ENDBRANCH   4   2
BRANCH   6   7
ATOM      7  C   UNL     1      -3.000   3.008  23.495  0.00  0.00    +0.091 C 
BRANCH   7   8
ATOM      8  C   UNL     1      -3.642   3.180  23.983  0.00  0.00    +0.227 A 
ATOM      9  N   UNL     1      -3.913   3.935  24.179  0.00  0.00    -0.111 NA
ATOM     10  N   UNL     1      -4.565   3.849  24.679  0.00  0.00    -0.107 NA
ATOM     11  C   UNL     1      -4.696   3.042  24.791  0.00  0.00    +0.251 A 
ATOM     12  O   UNL     1      -4.125   2.629  24.361  0.00  0.00    -0.419 OA
BRANCH  11  13
ATOM     13  C   UNL     1      -5.292   2.707  25.252  0.00  0.00    +0.074 A 
ATOM     14  C   UNL     1      -5.429   2.986  26.016  0.00  0.00    +0.104 A 
ATOM     15  N   UNL     1      -6.025   2.652  26.478  0.00  0.00    -0.242 NA
ATOM     16  C   UNL     1      -6.485   2.037  26.174  0.00  0.00    +0.099 A 
ATOM     17  C   UNL     1      -6.350   1.758  25.410  0.00  0.00    +0.021 A 
ATOM     18  C   UNL     1      -5.752   2.094  24.949  0.00  0.00    +0.008 A 
ENDBRANCH  11  13
ENDBRANCH   7   8
ENDBRANCH   6   7
BRANCH  22  23
ATOM     23  C   UNL     1      -0.454   1.268  24.668  0.00  0.00    +0.076 C 
BRANCH  23  24
ATOM     24  N   UNL     1      -0.518   0.449  24.753  0.00  0.00    -0.272 NA
ATOM     25  C   UNL     1      -0.179  -0.051  24.192  0.00  0.00    +0.073 C 
ATOM     26  C   UNL     1      -0.242  -0.869  24.277  0.00  0.00    +0.027 C 
ATOM     27  C   UNL     1      -0.645  -1.187  24.923  0.00  0.00    +0.083 C 
ATOM     28  C   UNL     1      -0.984  -0.686  25.484  0.00  0.00    +0.027 C 
ATOM     29  C   UNL     1      -0.920   0.132  25.399  0.00  0.00    +0.073 C 
BRANCH  27  30
ATOM     30  C   UNL     1      -0.709  -2.004  25.008  0.00  0.00    +0.260 C 
ATOM     31  N   UNL     1      -1.354  -2.404  24.684  0.00  0.00    -0.088 NA
ATOM     32  O   UNL     1      -0.128  -2.424  25.417  0.00  0.00    -0.272 OA
ENDBRANCH  27  30
ENDBRANCH  23  24
ENDBRANCH  22  23
TORSDOF 7
ENDMDL
MODEL 4
REMARK VINA RESULT:     -11.0      1.252      5.438
REMARK  Name = 
REMARK  7 active torsions:
REMARK  status: ('A' for Active; 'I' for Inactive)
REMARK    1  A    between atoms: C_2  and  C_4
REMARK    2  A    between atoms: C_6  and  C_7
REMARK    3  A    between atoms: C_7  and  C_8
REMARK    4  A    between atoms: C_11  and  C_13
REMARK    5  A    between atoms: C_22  and  C_23
REMARK    6  A    between atoms: C_23  and  N_24
REMARK    7  A    between atoms: C_27  and  C_30
REMARK                            x       y       z     vdW  Elec       q    Type
REMARK                         _______ _______ _______ _____ _____    ______ ____
ROOT
ATOM      4  C   UNL     1      -4.748   1.731  24.911  0.00  0.00    +0.006 C 
ATOM      5  C   UNL     1      -4.701   0.983  24.567  0.00  0.00    +0.005 C 
ATOM      6  C   UNL     1      -4.124   0.827  23.997  0.00  0.00    +0.027 C 
ATOM     19  C   UNL     1      -3.597   1.420  23.770  0.00  0.00    -0.048 C 
ATOM     20  C   UNL     1      -3.022   1.264  23.201  0.00  0.00    +0.026 C 
ATOM     21  C   UNL     1      -3.646   2.168  24.115  0.00  0.00    -0.034 C 
ATOM     22  C   UNL     1      -4.221   2.324  24.684  0.00  0.00    +0.037 C 
ENDROOT
BRANCH   4   2
ATOM      1  C   UNL     1      -6.025   2.265  25.265  0.00  0.00    +0.000 C 
ATOM      2  C   UNL     1      -5.324   1.887  25.481  0.00  0.00    +0.000 C 
ATOM      3  C   UNL     1      -5.199   1.664  26.264  0.00  0.00    +0.000 C 
ENDBRANCH   4   2
BRANCH   6   7
ATOM      7  C   UNL     1      -4.077   0.079  23.653  0.00  0.00    +0.091 C 
BRANCH   7   8
ATOM      8  C   UNL     1      -3.724  -0.542  24.064  0.00  0.00    +0.227 A 
ATOM      9  N   UNL     1      -4.119  -1.159  24.445  0.00  0.00    -0.111 NA
ATOM     10  N   UNL     1      -3.552  -1.654  24.783  0.00  0.00    -0.107 NA
ATOM     11  C   UNL     1      -2.807  -1.343  24.612  0.00  0.00    +0.251 A 
ATOM     12  O   UNL     1      -2.913  -0.656  24.168  0.00  0.00    -0.419 OA
BRANCH  11  13
ATOM     13  C   UNL     1      -2.083  -1.663  24.844  0.00  0.00    +0.074 A 
ATOM     14  C   UNL     1      -1.858  -2.411  24.578  0.00  0.00    +0.104 A 
ATOM     15  N   UNL     1      -1.134  -2.732  24.809  0.00  0.00    -0.242 NA
ATOM     16  C   UNL     1      -0.635  -2.304  25.308  0.00  0.00    +0.099 A 
ATOM     17  C   UNL     1      -0.858  -1.556  25.574  0.00  0.00    +0.021 A 
ATOM     18  C   UNL     1      -1.584  -1.236  25.342  0.00  0.00    +0.008 A 
ENDBRANCH  11  13
ENDBRANCH   7   8
ENDBRANCH   6   7
BRANCH  22  23
ATOM     23  C   UNL     1      -4.269   3.072  25.028  0.00  0.00    +0.076 C 
BRANCH  23  24
ATOM     24  N   UNL     1      -3.598   3.552  25.067  0.00  0.00    -0.272 NA
ATOM     25  C   UNL     1      -3.086   3.492  25.711  0.00  0.00    +0.073 C 
ATOM     26  C   UNL     1      -2.416   3.972  25.751  0.00  0.00    +0.027 C 
ATOM     27  C   UNL     1      -2.258   4.511  25.146  0.00  0.00    +0.083 C 
ATOM     28  C   UNL     1      -2.771   4.571  24.503  0.00  0.00    +0.027 C 
ATOM     29  C   UNL     1      -3.441   4.091  24.464  0.00  0.00    +0.073 C 
BRANCH  27  30
ATOM     30  C   UNL     1      -1.589   4.991  25.185  0.00  0.00    +0.260 C 
ATOM     31  N   UNL     1      -0.839   4.662  25.077  0.00  0.00    -0.088 NA
ATOM     32  O   UNL     1      -1.667   5.798  25.333  0.00  0.00    -0.272 OA
ENDBRANCH  27  30
ENDBRANCH  23  24
ENDBRANCH  22  23
TORSDOF 7
ENDMDL
MODEL 5
REMARK VINA RESULT:     -10.8      1.972      5.193
REMARK  Name = 
REMARK  7 active torsions:
REMARK  status: ('A' for Active; 'I' for Inactive)
REMARK    1  A    between atoms: C_2  and  C_4
REMARK    2  A    between atoms: C_6  and  C_7
REMARK    3  A    between atoms: C_7  and  C_8
REMARK    4  A    between atoms: C_11  and  C_13
REMARK    5  A    between atoms: C_22  and  C_23
REMARK    6  A    between atoms: C_23  and  N_24
REMARK    7  A    between atoms: C_27  and  C_30
REMARK                            x       y       z     vdW  Elec       q    Type
REMARK                         _______ _______ _______ _____ _____    ______ ____
ROOT
ATOM      4  C   UNL     1      -1.316   2.968  24.728  0.00  0.00    +0.006 C 
ATOM      5  C   UNL     1      -0.931   2.411  24.257  0.00  0.00    +0.005 C 
ATOM      6  C   UNL     1      -1.344   2.024  23.655  0.00  0.00    +0.027 C 
ATOM     19  C   UNL     1      -2.141   2.195  23.526  0.00  0.00    -0.048 C 
ATOM     20  C   UNL     1      -2.553   1.808  22.926  0.00  0.00    +0.026 C 
ATOM     21  C   UNL     1      -2.525   2.753  23.998  0.00  0.00    -0.034 C 
ATOM     22  C   UNL     1      -2.113   3.139  24.598  0.00  0.00    +0.037 C 
ENDROOT
BRANCH   4   2
ATOM      1  C   UNL     1      -0.620   4.120  25.207  0.00  0.00    +0.000 C 
ATOM      2  C   UNL     1      -0.903   3.354  25.328  0.00  0.00    +0.000 C 
ATOM      3  C   UNL     1      -0.773   2.976  26.049  0.00  0.00    +0.000 C 
ENDBRANCH   4   2
BRANCH   6   7
ATOM      7  C   UNL     1      -0.960   1.467  23.184  0.00  0.00    +0.091 C 
BRANCH   7   8
ATOM      8  C   UNL     1      -0.675   0.770  23.519  0.00  0.00    +0.227 A 
ATOM      9  N   UNL     1       0.117   0.541  23.562  0.00  0.00    -0.111 NA
ATOM     10  N   UNL     1       0.151  -0.192  23.940  0.00  0.00    -0.107 NA
ATOM     11  C   UNL     1      -0.620  -0.416  24.130  0.00  0.00    +0.251 A 
ATOM     12  O   UNL     1      -1.130   0.179  23.870  0.00  0.00    -0.419 OA
BRANCH  11  13
ATOM     13  C   UNL     1      -0.843  -1.112  24.513  0.00  0.00    +0.074 A 
ATOM     14  C   UNL     1      -0.476  -1.329  25.220  0.00  0.00    +0.104 A 
ATOM     15  N   UNL     1      -0.698  -2.025  25.604  0.00  0.00    -0.242 NA
ATOM     16  C   UNL     1      -1.288  -2.504  25.280  0.00  0.00    +0.099 A 
ATOM     17  C   UNL     1      -1.655  -2.287  24.574  0.00  0.00    +0.021 A 
ATOM     18  C   UNL     1      -1.432  -1.590  24.191  0.00  0.00    +0.008 A 
ENDBRANCH  11  13
ENDBRANCH   7   8
ENDBRANCH   6   7
BRANCH  22  23
ATOM     23  C   UNL     1      -2.497   3.696  25.069  0.00  0.00    +0.076 C 
BRANCH  23  24
ATOM     24  N   UNL     1      -3.310   3.636  25.201  0.00  0.00    -0.272 NA
ATOM     25  C   UNL     1      -3.836   4.057  24.725  0.00  0.00    +0.073 C 
ATOM     26  C   UNL     1      -4.649   3.997  24.857  0.00  0.00    +0.027 C 
ATOM     27  C   UNL     1      -4.934   3.515  25.463  0.00  0.00    +0.083 C 
ATOM     28  C   UNL     1      -4.407   3.094  25.938  0.00  0.00    +0.027 C 
ATOM     29  C   UNL     1      -3.594   3.154  25.807  0.00  0.00    +0.073 C 
BRANCH  27  30
ATOM     30  C   UNL     1      -5.745   3.454  25.595  0.00  0.00    +0.260 C 
ATOM     31  N   UNL     1      -6.113   2.716  25.574  0.00  0.00    -0.088 NA
ATOM     32  O   UNL     1      -6.191   4.132  25.747  0.00  0.00    -0.272 OA
ENDBRANCH  27  30
ENDBRANCH  23  24
ENDBRANCH  22  23
TORSDOF 7
ENDMDL
MODEL 6
REMARK VINA RESULT:     -10.7      2.570      4.874
REMARK  Name = 
REMARK  7 active torsions:
REMARK  status: ('A' for Active; 'I' for Inactive)
REMARK    1  A    between atoms: C_2  and  C_4
REMARK    2  A    between atoms: C_6  and  C_7
REMARK    3  A    between atoms: C_7  and  C_8
REMARK    4  A    between atoms: C_11  and  C_13
REMARK    5  A    between atoms: C_22  and  C_23
REMARK    6  A    between atoms: C_23  and  N_24
REMARK    7  A    between atoms: C_27  and  C_30
REMARK                            x       y       z     vdW  Elec       q    Type
REMARK                         _______ _______ _______ _____ _____    ______ ____
ROOT
ATOM      4  C   UNL     1      -3.121  -0.200  24.610  0.00  0.00    +0.006 C 
ATOM      5  C   UNL     1      -2.345  -0.379  24.823  0.00  0.00    +0.005 C 
ATOM      6  C   UNL     1      -1.838   0.221  25.078  0.00  0.00    +0.027 C 
ATOM     19  C   UNL     1      -2.109   0.999  25.120  0.00  0.00    -0.048 C 
ATOM     20  C   UNL     1      -1.603   1.598  25.375  0.00  0.00    +0.026 C 
ATOM     21  C   UNL     1      -2.886   1.177  24.907  0.00  0.00    -0.034 C 
ATOM     22  C   UNL     1      -3.392   0.578  24.652  0.00  0.00    +0.037 C 
ENDROOT
BRANCH   4   2
ATOM      1  C   UNL     1      -3.984  -1.300  24.907  0.00  0.00    +0.000 C 
ATOM      2  C   UNL     1      -3.626  -0.800  24.355  0.00  0.00    +0.000 C 
ATOM      3  C   UNL     1      -3.775  -0.901  23.551  0.00  0.00    +0.000 C 
ENDBRANCH   4   2
BRANCH   6   7
ATOM      7  C   UNL     1      -1.062   0.042  25.291  0.00  0.00    +0.091 C 
BRANCH   7   8
ATOM      8  C   UNL     1      -0.553  -0.306  24.743  0.00  0.00    +0.227 A 
ATOM      9  N   UNL     1      -0.434  -1.116  24.639  0.00  0.00    -0.111 NA
ATOM     10  N   UNL     1       0.119  -1.216  24.034  0.00  0.00    -0.107 NA
ATOM     11  C   UNL     1       0.340  -0.468  23.765  0.00  0.00    +0.251 A 
ATOM     12  O   UNL     1      -0.075   0.094  24.204  0.00  0.00    -0.419 OA
BRANCH  11  13
ATOM     13  C   UNL     1       0.882  -0.310  23.164  0.00  0.00    +0.074 A 
ATOM     14  C   UNL     1       1.606   0.043  23.343  0.00  0.00    +0.104 A 
ATOM     15  N   UNL     1       2.149   0.202  22.742  0.00  0.00    -0.242 NA
ATOM     16  C   UNL     1       1.967   0.007  21.961  0.00  0.00    +0.099 A 
ATOM     17  C   UNL     1       1.243  -0.345  21.781  0.00  0.00    +0.021 A 
ATOM     18  C   UNL     1       0.701  -0.504  22.383  0.00  0.00    +0.008 A 
ENDBRANCH  11  13
ENDBRANCH   7   8
ENDBRANCH   6   7
BRANCH  22  23
ATOM     23  C   UNL     1      -4.168   0.756  24.439  0.00  0.00    +0.076 C 
BRANCH  23  24
ATOM     24  N   UNL     1      -4.516   1.459  24.698  0.00  0.00    -0.272 NA
ATOM     25  C   UNL     1      -4.426   2.151  24.256  0.00  0.00    +0.073 C 
ATOM     26  C   UNL     1      -4.773   2.853  24.515  0.00  0.00    +0.027 C 
ATOM     27  C   UNL     1      -5.211   2.863  25.215  0.00  0.00    +0.083 C 
ATOM     28  C   UNL     1      -5.301   2.172  25.655  0.00  0.00    +0.027 C 
ATOM     29  C   UNL     1      -4.953   1.470  25.397  0.00  0.00    +0.073 C 
BRANCH  27  30
ATOM     30  C   UNL     1      -5.558   3.565  25.473  0.00  0.00    +0.260 C 
ATOM     31  N   UNL     1      -5.151   4.279  25.398  0.00  0.00    -0.088 NA
ATOM     32  O   UNL     1      -6.313   3.554  25.806  0.00  0.00    -0.272 OA
ENDBRANCH  27  30
ENDBRANCH  23  24
ENDBRANCH  22  23
TORSDOF 7
ENDMDL
MODEL 7
REMARK VINA RESULT:     -10.5      2.719      4.319
REMARK  Name = 
REMARK  7 active torsions:
REMARK  status: ('A' for Active; 'I' for Inactive)
REMARK    1  A    between atoms: C_2  and  C_4
REMARK    2  A    between atoms: C_6  and  C_7
REMARK    3  A    between atoms: C_7  and  C_8
REMARK    4  A    between atoms: C_11  and  C_13
REMARK    5  A    between atoms: C_22  and  C_23
REMARK    6  A    between atoms: C_23  and  N_24
REMARK    7  A    between atoms: C_27  and  C_30
REMARK                            x       y       z     vdW  Elec       q    Type
REMARK                         _______ _______ _______ _____ _____    ______ ____
ROOT
ATOM      4  C   UNL     1      -1.252   2.483  24.751  0.00  0.00    +0.006 C 
ATOM      5  C   UNL     1      -1.926   2.870  24.474  0.00  0.00    +0.005 C 
ATOM      6  C   UNL     1      -2.289   2.619  23.777  0.00  0.00    +0.027 C 
ATOM     19  C   UNL     1      -1.978   1.980  23.357  0.00  0.00    -0.048 C 
ATOM     20  C   UNL     1      -2.340   1.729  22.661  0.00  0.00    +0.026 C 
ATOM     21  C   UNL     1      -1.304   1.593  23.635  0.00  0.00    -0.034 C 
ATOM     22  C   UNL     1      -0.941   1.845  24.331  0.00  0.00    +0.037 C 
ENDROOT
BRANCH   4   2
ATOM      1  C   UNL     1      -0.437   3.425  25.451  0.00  0.00    +0.000 C 
ATOM      2  C   UNL     1      -0.890   2.735  25.448  0.00  0.00    +0.000 C 
ATOM      3  C   UNL     1      -0.980   2.298  26.141  0.00  0.00    +0.000 C 
ENDBRANCH   4   2
BRANCH   6   7
ATOM      7  C   UNL     1      -2.962   3.006  23.500  0.00  0.00    +0.091 C 
BRANCH   7   8
ATOM      8  C   UNL     1      -3.596   3.145  24.008  0.00  0.00    +0.227 A 
ATOM      9  N   UNL     1      -3.850   3.884  24.275  0.00  0.00    -0.111 NA
ATOM     10  N   UNL     1      -4.499   3.766  24.771  0.00  0.00    -0.107 NA
ATOM     11  C   UNL     1      -4.645   2.955  24.811  0.00  0.00    +0.251 A 
ATOM     12  O   UNL     1      -4.087   2.572  24.340  0.00  0.00    -0.419 OA
BRANCH  11  13
ATOM     13  C   UNL     1      -5.244   2.591  25.246  0.00  0.00    +0.074 A 
ATOM     14  C   UNL     1      -5.418   2.854  26.009  0.00  0.00    +0.104 A 
ATOM     15  N   UNL     1      -6.017   2.491  26.445  0.00  0.00    -0.242 NA
ATOM     16  C   UNL     1      -6.442   1.864  26.117  0.00  0.00    +0.099 A 
ATOM     17  C   UNL     1      -6.270   1.601  25.355  0.00  0.00    +0.021 A 
ATOM     18  C   UNL     1      -5.670   1.965  24.919  0.00  0.00    +0.008 A 
ENDBRANCH  11  13
ENDBRANCH   7   8
ENDBRANCH   6   7
BRANCH  22  23
ATOM     23  C   UNL     1      -0.268   1.458  24.608  0.00  0.00    +0.076 C 
BRANCH  23  24
ATOM     24  N   UNL     1       0.233   1.070  24.078  0.00  0.00    -0.272 NA
ATOM     25  C   UNL     1       0.878   1.470  23.754  0.00  0.00    +0.073 C 
ATOM     26  C   UNL     1       1.379   1.082  23.224  0.00  0.00    +0.027 C 
ATOM     27  C   UNL     1       1.234   0.295  23.020  0.00  0.00    +0.083 C 
ATOM     28  C   UNL     1       0.589  -0.103  23.345  0.00  0.00    +0.027 C 
ATOM     29  C   UNL     1       0.089   0.285  23.874  0.00  0.00    +0.073 C 
BRANCH  27  30
ATOM     30  C   UNL     1       1.734  -0.092  22.491  0.00  0.00    +0.260 C 
ATOM     31  N   UNL     1       2.539  -0.161  22.660  0.00  0.00    -0.088 NA
ATOM     32  O   UNL     1       1.430  -0.409  21.793  0.00  0.00    -0.272 OA
ENDBRANCH  27  30
ENDBRANCH  23  24
ENDBRANCH  22  23
TORSDOF 7
ENDMDL
MODEL 8
REMARK VINA RESULT:     -10.4      1.928      5.960
REMARK  Name = 
REMARK  7 active torsions:
REMARK  status: ('A' for Active; 'I' for Inactive)
REMARK    1  A    between atoms: C_2  and  C_4
REMARK    2  A    between atoms: C_6  and  C_7
REMARK    3  A    between atoms: C_7  and  C_8
REMARK    4  A    between atoms: C_11  and  C_13
REMARK    5  A    between atoms: C_22  and  C_23
REMARK    6  A    between atoms: C_23  and  N_24
REMARK    7  A    between atoms: C_27  and  C_30
REMARK                            x       y       z     vdW  Elec       q    Type
REMARK                         _______ _______ _______ _____ _____    ______ ____
ROOT
ATOM      4  C   UNL     1      -0.152   0.493  24.230  0.00  0.00    +0.006 C 
ATOM      5  C   UNL     1      -0.330  -0.239  24.566  0.00  0.00    +0.005 C 
ATOM      6  C   UNL     1      -0.728  -0.275  25.289  0.00  0.00    +0.027 C 
ATOM     19  C   UNL     1      -0.947   0.421  25.674  0.00  0.00    -0.048 C 
ATOM     20  C   UNL     1      -1.344   0.385  26.396  0.00  0.00    +0.026 C 
ATOM     21  C   UNL     1      -0.768   1.152  25.337  0.00  0.00    -0.034 C 
ATOM     22  C   UNL     1      -0.371   1.189  24.616  0.00  0.00    +0.037 C 
ENDROOT
BRANCH   4   2
ATOM      1  C   UNL     1       1.069   0.596  23.494  0.00  0.00    +0.000 C 
ATOM      2  C   UNL     1       0.246   0.528  23.508  0.00  0.00    +0.000 C 
ATOM      3  C   UNL     1      -0.178   0.496  22.802  0.00  0.00    +0.000 C 
ENDBRANCH   4   2
BRANCH   6   7
ATOM      7  C   UNL     1      -0.906  -1.007  25.625  0.00  0.00    +0.091 C 
BRANCH   7   8
ATOM      8  C   UNL     1      -1.382  -1.542  25.218  0.00  0.00    +0.227 A 
ATOM      9  N   UNL     1      -1.145  -2.277  24.925  0.00  0.00    -0.111 NA
ATOM     10  N   UNL     1      -1.796  -2.627  24.558  0.00  0.00    -0.107 NA
ATOM     11  C   UNL     1      -2.435  -2.110  24.625  0.00  0.00    +0.251 A 
ATOM     12  O   UNL     1      -2.179  -1.439  25.033  0.00  0.00    -0.419 OA
BRANCH  11  13
ATOM     13  C   UNL     1      -3.196  -2.239  24.335  0.00  0.00    +0.074 A 
ATOM     14  C   UNL     1      -3.468  -3.009  24.216  0.00  0.00    +0.104 A 
ATOM     15  N   UNL     1      -4.229  -3.140  23.926  0.00  0.00    -0.242 NA
ATOM     16  C   UNL     1      -4.719  -2.498  23.755  0.00  0.00    +0.099 A 
ATOM     17  C   UNL     1      -4.450  -1.728  23.873  0.00  0.00    +0.021 A 
ATOM     18  C   UNL     1      -3.687  -1.599  24.164  0.00  0.00    +0.008 A 
ENDBRANCH  11  13
ENDBRANCH   7   8
ENDBRANCH   6   7
BRANCH  22  23
ATOM     23  C   UNL     1      -0.192   1.920  24.279  0.00  0.00    +0.076 C 
BRANCH  23  24
ATOM     24  N   UNL     1      -0.577   2.601  24.545  0.00  0.00    -0.272 NA
ATOM     25  C   UNL     1      -0.217   3.084  25.109  0.00  0.00    +0.073 C 
ATOM     26  C   UNL     1      -0.600   3.764  25.374  0.00  0.00    +0.027 C 
ATOM     27  C   UNL     1      -1.344   3.962  25.075  0.00  0.00    +0.083 C 
ATOM     28  C   UNL     1      -1.703   3.479  24.511  0.00  0.00    +0.027 C 
ATOM     29  C   UNL     1      -1.319   2.798  24.246  0.00  0.00    +0.073 C 
BRANCH  27  30
ATOM     30  C   UNL     1      -1.728   4.642  25.339  0.00  0.00    +0.260 C 
ATOM     31  N   UNL     1      -2.442   4.580  25.749  0.00  0.00    -0.088 NA
ATOM     32  O   UNL     1      -1.398   5.384  25.195  0.00  0.00    -0.272 OA
ENDBRANCH  27  30
ENDBRANCH  23  24
ENDBRANCH  22  23
TORSDOF 7
ENDMDL
MODEL 9
REMARK VINA RESULT:      -7.8     15.215     18.415
REMARK  Name = 
REMARK  7 active torsions:
REMARK  status: ('A' for Active; 'I' for Inactive)
REMARK    1  A    between atoms: C_2  and  C_4
REMARK    2  A    between atoms: C_6  and  C_7
REMARK    3  A    between atoms: C_7  and  C_8
REMARK    4  A    between atoms: C_11  and  C_13
REMARK    5  A    between atoms: C_22  and  C_23
REMARK    6  A    between atoms: C_23  and  N_24
REMARK    7  A    between atoms: C_27  and  C_30
REMARK                            x       y       z     vdW  Elec       q    Type
REMARK                         _______ _______ _______ _____ _____    ______ ____
ROOT
ATOM      4  C   UNL     1      13.941   8.409  19.965  0.00  0.00    +0.006 C 
ATOM      5  C   UNL     1      13.326   8.565  20.491  0.00  0.00    +0.005 C 
ATOM      6  C   UNL     1      12.586   8.792  20.204  0.00  0.00    +0.027 C 
ATOM     19  C   UNL     1      12.462   8.862  19.392  0.00  0.00    -0.048 C 
ATOM     20  C   UNL     1      11.723   9.088  19.106  0.00  0.00    +0.026 C 
ATOM     21  C   UNL     1      13.078   8.705  18.866  0.00  0.00    -0.034 C 
ATOM     22  C   UNL     1      13.818   8.479  19.152  0.00  0.00    +0.037 C 
ENDROOT
BRANCH   4   2
ATOM      1  C   UNL     1      14.838   7.386  20.401  0.00  0.00    +0.000 C 
ATOM      2  C   UNL     1      14.681   8.182  20.252  0.00  0.00    +0.000 C 
ATOM      3  C   UNL     1      15.261   8.750  20.390  0.00  0.00    +0.000 C 
ENDBRANCH   4   2
BRANCH   6   7
ATOM      7  C   UNL     1      11.970   8.949  20.731  0.00  0.00    +0.091 C 
BRANCH   7   8
ATOM      8  C   UNL     1      11.709   8.362  21.246  0.00  0.00    +0.227 A 
ATOM      9  N   UNL     1      11.666   8.422  22.068  0.00  0.00    -0.111 NA
ATOM     10  N   UNL     1      11.374   7.707  22.361  0.00  0.00    -0.107 NA
ATOM     11  C   UNL     1      11.237   7.206  21.721  0.00  0.00    +0.251 A 
ATOM     12  O   UNL     1      11.444   7.611  21.032  0.00  0.00    -0.419 OA
BRANCH  11  13
ATOM     13  C   UNL     1      10.945   6.436  21.761  0.00  0.00    +0.074 A 
ATOM     14  C   UNL     1      10.169   6.301  22.008  0.00  0.00    +0.104 A 
ATOM     15  N   UNL     1       9.875   5.532  22.048  0.00  0.00    -0.242 NA
ATOM     16  C   UNL     1      10.359   4.895  21.842  0.00  0.00    +0.099 A 
ATOM     17  C   UNL     1      11.135   5.029  21.596  0.00  0.00    +0.021 A 
ATOM     18  C   UNL     1      11.427   5.800  21.555  0.00  0.00    +0.008 A 
ENDBRANCH  11  13
ENDBRANCH   7   8
ENDBRANCH   6   7
BRANCH  22  23
ATOM     23  C   UNL     1      14.433   8.322  18.627  0.00  0.00    +0.076 C 
BRANCH  23  24
ATOM     24  N   UNL     1      14.301   8.362  17.812  0.00  0.00    -0.272 NA
ATOM     25  C   UNL     1      13.990   7.710  17.413  0.00  0.00    +0.073 C 
ATOM     26  C   UNL     1      13.858   7.749  16.600  0.00  0.00    +0.027 C 
ATOM     27  C   UNL     1      14.037   8.441  16.186  0.00  0.00    +0.083 C 
ATOM     28  C   UNL     1      14.347   9.092  16.586  0.00  0.00    +0.027 C 
ATOM     29  C   UNL     1      14.479   9.052  17.399  0.00  0.00    +0.073 C 
BRANCH  27  30
ATOM     30  C   UNL     1      13.905   8.480  15.373  0.00  0.00    +0.260 C 
ATOM     31  N   UNL     1      14.498   8.250  14.847  0.00  0.00    -0.088 NA
ATOM     32  O   UNL     1      13.180   8.750  15.085  0.00  0.00    -0.272 OA
ENDBRANCH  27  30
ENDBRANCH  23  24
ENDBRANCH  22  23
TORSDOF 7
ENDMDL
