MODEL 1
REMARK VINA RESULT:     -10.3      0.000      0.000
REMARK  Name = 
REMARK  6 active torsions:
REMARK  status: ('A' for Active; 'I' for Inactive)
REMARK    1  A    between atoms: N_4  and  C_24
REMARK    2  A    between atoms: C_7  and  C_8
REMARK    3  A    between atoms: C_10  and  N_11
REMARK    4  A    between atoms: N_14  and  C_15
REMARK    5  A    between atoms: C_15  and  C_16
REMARK    6  A    between atoms: C_27  and  C_30
REMARK                            x       y       z     vdW  Elec       q    Type
REMARK                         _______ _______ _______ _____ _____    ______ ____
ROOT
ATOM      1  C   UNL     1      -1.779   1.726  22.270  0.00  0.00    +0.054 C 
ATOM      2  C   UNL     1      -2.157   1.625  22.998  0.00  0.00    +0.077 A 
ATOM      3  N   UNL     1      -2.919   1.876  23.187  0.00  0.00    -0.170 NA
ATOM      4  N   UNL     1      -3.070   1.662  23.970  0.00  0.00    -0.234 N 
ATOM      5  C   UNL     1      -2.401   1.279  24.264  0.00  0.00    +0.058 A 
ATOM      6  C   UNL     1      -2.313   0.973  25.025  0.00  0.00    +0.052 C 
ATOM      7  C   UNL     1      -1.836   1.256  23.663  0.00  0.00    +0.010 A 
ENDROOT
BRANCH   4  24
ATOM     24  C   UNL     1      -3.769   1.806  24.386  0.00  0.00    +0.082 A 
ATOM     25  C   UNL     1      -4.303   1.191  24.518  0.00  0.00    +0.019 A 
ATOM     26  C   UNL     1      -5.001   1.335  24.934  0.00  0.00    -0.003 A 
ATOM     27  C   UNL     1      -5.164   2.092  25.217  0.00  0.00    -0.023 A 
ATOM     28  C   UNL     1      -4.630   2.707  25.084  0.00  0.00    -0.003 A 
ATOM     29  C   UNL     1      -3.931   2.563  24.668  0.00  0.00    +0.019 A 
BRANCH  27  30
ATOM     30  C   UNL     1      -5.863   2.236  25.633  0.00  0.00    +0.019 C 
ATOM     31  C   UNL     1      -6.561   2.379  26.048  0.00  0.00    +0.004 C 
ATOM     32  C   UNL     1      -5.485   2.832  26.060  0.00  0.00    +0.004 C 
ATOM     33  C   UNL     1      -6.240   1.639  25.205  0.00  0.00    +0.004 C 
ENDBRANCH  27  30
ENDBRANCH   4  24
BRANCH   7   8
ATOM      8  C   UNL     1      -1.083   0.923  23.719  0.00  0.00    +0.048 C 
ATOM      9  C   UNL     1      -0.369   1.334  23.715  0.00  0.00    +0.035 C 
ATOM     10  C   UNL     1       0.242   0.784  23.782  0.00  0.00    +0.119 C 
ATOM     22  C   UNL     1      -0.095   0.033  23.827  0.00  0.00    -0.009 C 
ATOM     23  C   UNL     1      -0.914   0.118  23.788  0.00  0.00    -0.025 C 
BRANCH  10  11
ATOM     11  N   UNL     1       1.049   0.955  23.801  0.00  0.00    -0.184 NA
ATOM     12  C   UNL     1       1.567   0.559  23.295  0.00  0.00    +0.340 C 
ATOM     13  O   UNL     1       1.278  -0.008  22.770  0.00  0.00    -0.249 OA
ATOM     14  N   UNL     1       2.374   0.730  23.314  0.00  0.00    -0.182 NA
BRANCH  14  15
ATOM     15  C   UNL     1       2.892   0.334  22.809  0.00  0.00    +0.143 C 
BRANCH  15  16
ATOM     16  C   UNL     1       3.691   0.272  23.004  0.00  0.00    -0.001 A 
ATOM     17  C   UNL     1       4.195   0.914  22.890  0.00  0.00    -0.003 A 
ATOM     18  C   UNL     1       4.995   0.851  23.086  0.00  0.00    -0.000 A 
ATOM     19  C   UNL     1       5.289   0.145  23.394  0.00  0.00    -0.000 A 
ATOM     20  C   UNL     1       4.785  -0.498  23.507  0.00  0.00    -0.000 A 
ATOM     21  C   UNL     1       3.986  -0.435  23.312  0.00  0.00    -0.003 A 
ENDBRANCH  15  16
ENDBRANCH  14  15
ENDBRANCH  10  11
ENDBRANCH   7   8
TORSDOF 6
ENDMDL
MODEL 2
REMARK VINA RESULT:     -10.2      0.807      1.415
REMARK  Name = 
REMARK  6 active torsions:
REMARK  status: ('A' for Active; 'I' for Inactive)
REMARK    1  A    between atoms: N_4  and  C_24
REMARK    2  A    between atoms: C_7  and  C_8
REMARK    3  A    between atoms: C_10  and  N_11
REMARK    4  A    between atoms: N_14  and  C_15
REMARK    5  A    between atoms: C_15  and  C_16
REMARK    6  A    between atoms: C_27  and  C_30
REMARK                            x       y       z     vdW  Elec       q    Type
REMARK                         _______ _______ _______ _____ _____    ______ ____
ROOT
ATOM      1  C   UNL     1      -0.946  -0.641  25.265  0.00  0.00    +0.054 C 
ATOM      2  C   UNL     1      -1.426  -0.046  24.952  0.00  0.00    +0.077 A 
ATOM      3  N   UNL     1      -2.163   0.183  25.240  0.00  0.00    -0.170 NA
ATOM      4  N   UNL     1      -2.445   0.794  24.762  0.00  0.00    -0.234 N 
ATOM      5  C   UNL     1      -1.880   0.943  24.180  0.00  0.00    +0.058 A 
ATOM      6  C   UNL     1      -1.936   1.512  23.584  0.00  0.00    +0.052 C 
ATOM      7  C   UNL     1      -1.250   0.423  24.297  0.00  0.00    +0.010 A 
ENDROOT
BRANCH   4  24
ATOM     24  C   UNL     1      -3.164   1.188  24.852  0.00  0.00    +0.082 A 
ATOM     25  C   UNL     1      -3.177   1.964  25.132  0.00  0.00    +0.019 A 
ATOM     26  C   UNL     1      -3.897   2.358  25.222  0.00  0.00    -0.003 A 
ATOM     27  C   UNL     1      -4.602   1.977  25.031  0.00  0.00    -0.023 A 
ATOM     28  C   UNL     1      -4.590   1.200  24.750  0.00  0.00    -0.003 A 
ATOM     29  C   UNL     1      -3.870   0.806  24.661  0.00  0.00    +0.019 A 
BRANCH  27  30
ATOM     30  C   UNL     1      -5.322   2.371  25.121  0.00  0.00    +0.019 C 
ATOM     31  C   UNL     1      -6.042   2.764  25.210  0.00  0.00    +0.004 C 
ATOM     32  C   UNL     1      -4.921   3.090  25.177  0.00  0.00    +0.004 C 
ATOM     33  C   UNL     1      -5.722   1.652  25.064  0.00  0.00    +0.004 C 
ENDBRANCH  27  30
ENDBRANCH   4  24
BRANCH   7   8
ATOM      8  C   UNL     1      -0.565   0.382  23.839  0.00  0.00    +0.048 C 
ATOM      9  C   UNL     1       0.156   0.744  24.008  0.00  0.00    +0.035 C 
ATOM     10  C   UNL     1       0.685   0.557  23.405  0.00  0.00    +0.119 C 
ATOM     22  C   UNL     1       0.290   0.077  22.861  0.00  0.00    -0.009 C 
ATOM     23  C   UNL     1      -0.481  -0.030  23.128  0.00  0.00    -0.025 C 
BRANCH  10  11
ATOM     11  N   UNL     1       1.470   0.803  23.353  0.00  0.00    -0.184 NA
ATOM     12  C   UNL     1       2.052   0.279  23.093  0.00  0.00    +0.340 C 
ATOM     13  O   UNL     1       1.849  -0.493  22.886  0.00  0.00    -0.249 OA
ATOM     14  N   UNL     1       2.838   0.527  23.041  0.00  0.00    -0.182 NA
BRANCH  14  15
ATOM     15  C   UNL     1       3.419   0.003  22.782  0.00  0.00    +0.143 C 
BRANCH  15  16
ATOM     16  C   UNL     1       4.170   0.020  23.122  0.00  0.00    -0.001 A 
ATOM     17  C   UNL     1       4.467  -0.649  23.503  0.00  0.00    -0.003 A 
ATOM     18  C   UNL     1       5.219  -0.631  23.842  0.00  0.00    -0.000 A 
ATOM     19  C   UNL     1       5.674   0.056  23.801  0.00  0.00    -0.000 A 
ATOM     20  C   UNL     1       5.378   0.725  23.420  0.00  0.00    -0.000 A 
ATOM     21  C   UNL     1       4.626   0.707  23.081  0.00  0.00    -0.003 A 
ENDBRANCH  15  16
ENDBRANCH  14  15
ENDBRANCH  10  11
ENDBRANCH   7   8
TORSDOF 6
ENDMDL
MODEL 3
REMARK VINA RESULT:      -9.2      3.602      4.432
REMARK  Name = 
REMARK  6 active torsions:
REMARK  status: ('A' for Active; 'I' for Inactive)
REMARK    1  A    between atoms: N_4  and  C_24
REMARK    2  A    between atoms: C_7  and  C_8
REMARK    3  A    between atoms: C_10  and  N_11
REMARK    4  A    between atoms: N_14  and  C_15
REMARK    5  A    between atoms: C_15  and  C_16
REMARK    6  A    between atoms: C_27  and  C_30
REMARK                            x       y       z     vdW  Elec       q    Type
REMARK                         _______ _______ _______ _____ _____    ______ ____
ROOT
ATOM      1  C   UNL     1      -3.078   2.642  24.994  0.00  0.00    +0.054 C 
ATOM      2  C   UNL     1      -2.857   1.852  24.892  0.00  0.00    +0.077 A 
ATOM      3  N   UNL     1      -3.368   1.222  24.747  0.00  0.00    -0.170 NA
ATOM      4  N   UNL     1      -2.914   0.536  24.682  0.00  0.00    -0.234 N 
ATOM      5  C   UNL     1      -2.122   0.743  24.788  0.00  0.00    +0.058 A 
ATOM      6  C   UNL     1      -1.479   0.227  24.768  0.00  0.00    +0.052 C 
ATOM      7  C   UNL     1      -2.087   1.558  24.918  0.00  0.00    +0.010 A 
ENDROOT
BRANCH   4  24
ATOM     24  C   UNL     1      -3.201  -0.225  24.537  0.00  0.00    +0.082 A 
ATOM     25  C   UNL     1      -3.284  -0.758  25.160  0.00  0.00    +0.019 A 
ATOM     26  C   UNL     1      -3.571  -1.519  25.015  0.00  0.00    -0.003 A 
ATOM     27  C   UNL     1      -3.774  -1.744  24.249  0.00  0.00    -0.023 A 
ATOM     28  C   UNL     1      -3.690  -1.209  23.625  0.00  0.00    -0.003 A 
ATOM     29  C   UNL     1      -3.403  -0.449  23.770  0.00  0.00    +0.019 A 
BRANCH  27  30
ATOM     30  C   UNL     1      -4.061  -2.504  24.104  0.00  0.00    +0.019 C 
ATOM     31  C   UNL     1      -4.348  -3.264  23.958  0.00  0.00    +0.004 C 
ATOM     32  C   UNL     1      -3.499  -2.815  24.623  0.00  0.00    +0.004 C 
ATOM     33  C   UNL     1      -4.621  -2.193  23.585  0.00  0.00    +0.004 C 
ENDBRANCH  27  30
ENDBRANCH   4  24
BRANCH   7   8
ATOM      8  C   UNL     1      -1.402   1.998  25.050  0.00  0.00    +0.048 C 
ATOM      9  C   UNL     1      -0.844   1.862  25.641  0.00  0.00    +0.035 C 
ATOM     10  C   UNL     1      -0.253   2.431  25.570  0.00  0.00    +0.119 C 
ATOM     22  C   UNL     1      -0.445   2.920  24.934  0.00  0.00    -0.009 C 
ATOM     23  C   UNL     1      -1.155   2.652  24.612  0.00  0.00    -0.025 C 
BRANCH  10  11
ATOM     11  N   UNL     1       0.415   2.501  26.050  0.00  0.00    -0.184 NA
ATOM     12  C   UNL     1       0.330   2.619  26.862  0.00  0.00    +0.340 C 
ATOM     13  O   UNL     1      -0.423   2.667  27.196  0.00  0.00    -0.249 OA
ATOM     14  N   UNL     1       0.998   2.689  27.341  0.00  0.00    -0.182 NA
BRANCH  14  15
ATOM     15  C   UNL     1       0.913   2.807  28.153  0.00  0.00    +0.143 C 
BRANCH  15  16
ATOM     16  C   UNL     1       1.555   2.688  28.657  0.00  0.00    -0.001 A 
ATOM     17  C   UNL     1       1.457   2.265  29.359  0.00  0.00    -0.003 A 
ATOM     18  C   UNL     1       2.100   2.147  29.862  0.00  0.00    -0.000 A 
ATOM     19  C   UNL     1       2.841   2.450  29.664  0.00  0.00    -0.000 A 
ATOM     20  C   UNL     1       2.939   2.872  28.962  0.00  0.00    -0.000 A 
ATOM     21  C   UNL     1       2.297   2.991  28.458  0.00  0.00    -0.003 A 
ENDBRANCH  15  16
ENDBRANCH  14  15
ENDBRANCH  10  11
ENDBRANCH   7   8
TORSDOF 6
ENDMDL
MODEL 4
REMARK VINA RESULT:      -8.8      2.142      2.869
REMARK  Name = 
REMARK  6 active torsions:
REMARK  status: ('A' for Active; 'I' for Inactive)
REMARK    1  A    between atoms: N_4  and  C_24
REMARK    2  A    between atoms: C_7  and  C_8
REMARK    3  A    between atoms: C_10  and  N_11
REMARK    4  A    between atoms: N_14  and  C_15
REMARK    5  A    between atoms: C_15  and  C_16
REMARK    6  A    between atoms: C_27  and  C_30
REMARK                            x       y       z     vdW  Elec       q    Type
REMARK                         _______ _______ _______ _____ _____    ______ ____
ROOT
ATOM      1  C   UNL     1      -1.181   1.734  25.770  0.00  0.00    +0.054 C 
ATOM      2  C   UNL     1      -1.357   1.107  25.262  0.00  0.00    +0.077 A 
ATOM      3  N   UNL     1      -1.964   0.559  25.362  0.00  0.00    -0.170 NA
ATOM      4  N   UNL     1      -1.938   0.033  24.726  0.00  0.00    -0.234 N 
ATOM      5  C   UNL     1      -1.315   0.257  24.234  0.00  0.00    +0.058 A 
ATOM      6  C   UNL     1      -1.091  -0.118  23.534  0.00  0.00    +0.052 C 
ATOM      7  C   UNL     1      -0.955   0.922  24.566  0.00  0.00    +0.010 A 
ENDROOT
BRANCH   4  24
ATOM     24  C   UNL     1      -2.447  -0.606  24.604  0.00  0.00    +0.082 A 
ATOM     25  C   UNL     1      -2.177  -1.376  24.724  0.00  0.00    +0.019 A 
ATOM     26  C   UNL     1      -2.686  -2.014  24.601  0.00  0.00    -0.003 A 
ATOM     27  C   UNL     1      -3.463  -1.882  24.361  0.00  0.00    -0.023 A 
ATOM     28  C   UNL     1      -3.733  -1.111  24.241  0.00  0.00    -0.003 A 
ATOM     29  C   UNL     1      -3.225  -0.473  24.363  0.00  0.00    +0.019 A 
BRANCH  27  30
ATOM     30  C   UNL     1      -3.972  -2.521  24.239  0.00  0.00    +0.019 C 
ATOM     31  C   UNL     1      -4.480  -3.159  24.117  0.00  0.00    +0.004 C 
ATOM     32  C   UNL     1      -4.403  -2.073  23.696  0.00  0.00    +0.004 C 
ATOM     33  C   UNL     1      -3.540  -2.967  24.782  0.00  0.00    +0.004 C 
ENDBRANCH  27  30
ENDBRANCH   4  24
BRANCH   7   8
ATOM      8  C   UNL     1      -0.308   1.328  24.254  0.00  0.00    +0.048 C 
ATOM      9  C   UNL     1       0.485   1.123  24.348  0.00  0.00    +0.035 C 
ATOM     10  C   UNL     1       0.942   1.678  23.946  0.00  0.00    +0.119 C 
ATOM     22  C   UNL     1       0.430   2.228  23.602  0.00  0.00    -0.009 C 
ATOM     23  C   UNL     1      -0.342   2.011  23.792  0.00  0.00    -0.025 C 
BRANCH  10  11
ATOM     11  N   UNL     1       1.765   1.685  23.894  0.00  0.00    -0.184 NA
ATOM     12  C   UNL     1       2.155   1.121  23.437  0.00  0.00    +0.340 C 
ATOM     13  O   UNL     1       1.723   0.548  23.030  0.00  0.00    -0.249 OA
ATOM     14  N   UNL     1       2.979   1.128  23.386  0.00  0.00    -0.182 NA
BRANCH  14  15
ATOM     15  C   UNL     1       3.370   0.564  22.929  0.00  0.00    +0.143 C 
BRANCH  15  16
ATOM     16  C   UNL     1       4.111   0.286  23.161  0.00  0.00    -0.001 A 
ATOM     17  C   UNL     1       4.198  -0.493  23.419  0.00  0.00    -0.003 A 
ATOM     18  C   UNL     1       4.939  -0.770  23.651  0.00  0.00    -0.000 A 
ATOM     19  C   UNL     1       5.594  -0.269  23.626  0.00  0.00    -0.000 A 
ATOM     20  C   UNL     1       5.507   0.510  23.368  0.00  0.00    -0.000 A 
ATOM     21  C   UNL     1       4.766   0.787  23.136  0.00  0.00    -0.003 A 
ENDBRANCH  15  16
ENDBRANCH  14  15
ENDBRANCH  10  11
ENDBRANCH   7   8
TORSDOF 6
ENDMDL
