REMARK  Name = 
REMARK  8 active torsions:
REMARK  status: ('A' for Active; 'I' for Inactive)
REMARK    1  A    between atoms: C_4  and  C_26
REMARK    2  A    between atoms: C_6  and  C_8
REMARK    3  A    between atoms: C_15  and  C_16
REMARK    4  A    between atoms: C_16  and  N_17
REMARK    5  A    between atoms: C_18  and  C_20
REMARK    6  A    between atoms: C_20  and  S_21
REMARK    7  A    between atoms: S_21  and  C_22
REMARK    8  A    between atoms: C_22  and  C_23
REMARK                            x       y       z     vdW  Elec       q    Type
REMARK                         _______ _______ _______ _____ _____    ______ ____
ROOT
ATOM      8  C   UNL     1       1.661  -1.343   0.000  0.00  0.00    +0.056 C 
ATOM      9  C   UNL     1       1.814  -2.106   0.000  0.00  0.00    +0.078 C 
ATOM     10  N   UNL     1       1.065  -1.759   0.000  0.00  0.00    -0.272 NA
ATOM     11  C   UNL     1       1.205  -0.720   0.000  0.00  0.00    +0.072 C 
ATOM     12  C   UNL     1       0.961  -0.114   0.000  0.00  0.00    +0.018 C 
ATOM     13  C   UNL     1       0.923  -1.010   0.000  0.00  0.00    +0.010 C 
ATOM     14  C   UNL     1       0.119  -1.362   0.000  0.00  0.00    +0.018 C 
ATOM     15  C   UNL     1       0.226  -2.118   0.000  0.00  0.00    +0.079 C 
ENDROOT
BRANCH   8   6
ATOM      1  C   UNL     1       2.707   1.317   0.000  0.00  0.00    +0.074 C 
ATOM      2  C   UNL     1       2.829   0.501   0.000  0.00  0.00    +0.139 A 
ATOM      3  N   UNL     1       3.597   0.200   0.000  0.00  0.00    -0.230 NA
ATOM      4  C   UNL     1       3.720  -0.616   0.000  0.00  0.00    +0.090 A 
ATOM      5  C   UNL     1       3.075  -1.130   0.000  0.00  0.00    +0.034 A 
ATOM      6  C   UNL     1       2.307  -0.828   0.000  0.00  0.00    +0.063 A 
ATOM      7  N   UNL     1       2.184  -0.013   0.000  0.00  0.00    -0.235 NA
BRANCH   4  26
ATOM     26  C   UNL     1       4.488  -0.918   0.000  0.00  0.00    +0.047 A 
ATOM     27  C   UNL     1       5.183  -0.474   0.000  0.00  0.00    +0.009 A 
ATOM     28  C   UNL     1       5.820  -0.998   0.000  0.00  0.00    +0.008 A 
ATOM     29  C   UNL     1       5.518  -1.766   0.000  0.00  0.00    +0.035 A 
ATOM     30  S   UNL     1       4.695  -1.716   0.000  0.00  0.00    -0.085 S 
ENDBRANCH   4  26
ENDBRANCH   8   6
BRANCH  15  16
ATOM     16  C   UNL     1      -0.179  -2.836   0.000  0.00  0.00    +0.131 C 
BRANCH  16  17
ATOM     17  N   UNL     1      -1.004  -2.845   0.000  0.00  0.00    -0.203 NA
ATOM     18  C   UNL     1      -1.408  -3.564   0.000  0.00  0.00    +0.252 C 
ATOM     19  O   UNL     1      -0.988  -4.274   0.000  0.00  0.00    -0.272 OA
BRANCH  18  20
ATOM     20  C   UNL     1      -2.233  -3.573   0.000  0.00  0.00    +0.145 C 
BRANCH  20  21
ATOM     21  S   UNL     1      -2.638  -4.292   0.000  0.00  0.00    -0.119 S 
BRANCH  21  22
ATOM     22  C   UNL     1      -3.463  -4.301   0.000  0.00  0.00    +0.172 C 
BRANCH  22  23
ATOM     23  C   UNL     1      -3.868  -5.019   0.000  0.00  0.00    +0.376 C 
ATOM     24  O   UNL     1      -4.693  -5.028   0.000  0.00  0.00    -0.245 OA
ATOM     25  O   UNL     1      -3.448  -5.729   0.000  0.00  0.00    -0.245 OA
ENDBRANCH  22  23
ENDBRANCH  21  22
ENDBRANCH  20  21
ENDBRANCH  18  20
ENDBRANCH  16  17
ENDBRANCH  15  16
TORSDOF 8
