REMARK  Name = 
REMARK  7 active torsions:
REMARK  status: ('A' for Active; 'I' for Inactive)
REMARK    1  A    between atoms: O_2  and  C_3
REMARK    2  A    between atoms: C_6  and  C_7
REMARK    3  A    between atoms: C_7  and  N_8
REMARK    4  A    between atoms: N_8  and  C_9
REMARK    5  A    between atoms: C_12  and  C_13
REMARK    6  A    between atoms: C_13  and  N_14
REMARK    7  A    between atoms: N_17  and  C_18
REMARK                            x       y       z     vdW  Elec       q    Type
REMARK                         _______ _______ _______ _____ _____    ______ ____
ROOT
ATOM      9  C   UNL     1       0.306   5.927   0.000  0.00  0.00    +0.135 C 
ATOM     10  C   UNL     1       0.719   6.641   0.000  0.00  0.00    +0.162 C 
ATOM     11  O   UNL     1       1.526   6.470   0.000  0.00  0.00    -0.350 OA
ATOM     12  C   UNL     1       1.612   5.649   0.000  0.00  0.00    +0.169 C 
ATOM     21  C   UNL     1       0.858   5.314   0.000  0.00  0.00    +0.199 C 
ATOM     22  O   UNL     1       0.687   4.507   0.000  0.00  0.00    -0.219 OA
ENDROOT
BRANCH   9   8
ATOM      8  N   UNL     1      -0.514   5.841   0.000  0.00  0.00    -0.209 NA
BRANCH   8   7
ATOM      7  C   UNL     1      -0.999   6.508   0.000  0.00  0.00    +0.115 C 
BRANCH   7   6
ATOM      3  C   UNL     1      -3.461   6.250   0.000  0.00  0.00    +0.139 A 
ATOM      4  C   UNL     1      -3.125   7.003   0.000  0.00  0.00    +0.037 A 
ATOM      5  C   UNL     1      -2.305   7.089   0.000  0.00  0.00    +0.000 A 
ATOM      6  C   UNL     1      -1.820   6.422   0.000  0.00  0.00    -0.005 A 
ATOM     23  C   UNL     1      -2.155   5.668   0.000  0.00  0.00    +0.000 A 
ATOM     24  C   UNL     1      -2.976   5.582   0.000  0.00  0.00    +0.037 A 
BRANCH   3   2
ATOM      1  C   UNL     1      -4.617   5.410   0.000  0.00  0.00    +0.252 C 
ATOM      2  O   UNL     1      -4.281   6.163   0.000  0.00  0.00    -0.471 OA
ENDBRANCH   3   2
ENDBRANCH   7   6
ENDBRANCH   8   7
ENDBRANCH   9   8
BRANCH  12  13
ATOM     13  C   UNL     1       2.326   5.237   0.000  0.00  0.00    +0.149 C 
BRANCH  13  14
ATOM     14  N   UNL     1       3.041   5.649   0.000  0.00  0.00    -0.185 NA
ATOM     15  C   UNL     1       3.755   5.237   0.000  0.00  0.00    +0.339 C 
ATOM     16  O   UNL     1       3.755   4.412   0.000  0.00  0.00    -0.249 OA
ATOM     17  N   UNL     1       4.470   5.649   0.000  0.00  0.00    -0.189 NA
BRANCH  17  18
ATOM     18  C   UNL     1       5.184   5.237   0.000  0.00  0.00    +0.097 C 
ATOM     19  C   UNL     1       5.899   5.649   0.000  0.00  0.00    +0.023 C 
ATOM     20  C   UNL     1       5.184   4.412   0.000  0.00  0.00    +0.023 C 
ENDBRANCH  17  18
ENDBRANCH  13  14
ENDBRANCH  12  13
TORSDOF 7
