MODEL 1
REMARK VINA RESULT:      -8.4      0.000      0.000
REMARK  Name = 
REMARK  5 active torsions:
REMARK  status: ('A' for Active; 'I' for Inactive)
REMARK    1  A    between atoms: O_2  and  C_3
REMARK    2  A    between atoms: C_6  and  C_9
REMARK    3  A    between atoms: C_15  and  C_18
REMARK    4  A    between atoms: C_21  and  C_23
REMARK    5  A    between atoms: N_27  and  C_28
REMARK                            x       y       z     vdW  Elec       q    Type
REMARK                         _______ _______ _______ _____ _____    ______ ____
ROOT
ATOM      9  C   UNL     1       2.042   0.457  23.061  0.00  0.00    +0.270 C 
ATOM     10  O   UNL     1       1.576  -0.003  22.558  0.00  0.00    -0.268 OA
ATOM     11  N   UNL     1       1.685   0.987  23.583  0.00  0.00    -0.157 NA
ATOM     12  C   UNL     1       0.863   1.058  23.601  0.00  0.00    +0.155 A 
ATOM     13  N   UNL     1       0.506   1.588  24.123  0.00  0.00    -0.227 NA
ATOM     14  C   UNL     1      -0.315   1.659  24.141  0.00  0.00    +0.103 A 
ATOM     15  C   UNL     1      -0.781   1.200  23.637  0.00  0.00    +0.058 A 
ATOM     16  C   UNL     1      -0.423   0.670  23.116  0.00  0.00    +0.008 A 
ATOM     17  C   UNL     1       0.398   0.599  23.098  0.00  0.00    +0.036 A 
ENDROOT
BRANCH   9   6
ATOM      3  C   UNL     1       4.507   0.243  23.007  0.00  0.00    +0.139 A 
ATOM      4  C   UNL     1       4.043  -0.391  23.261  0.00  0.00    +0.037 A 
ATOM      5  C   UNL     1       3.221  -0.320  23.280  0.00  0.00    +0.008 A 
ATOM      6  C   UNL     1       2.864   0.386  23.043  0.00  0.00    +0.056 A 
ATOM      7  C   UNL     1       3.327   1.020  22.789  0.00  0.00    +0.008 A 
ATOM      8  C   UNL     1       4.148   0.949  22.771  0.00  0.00    +0.037 A 
BRANCH   3   2
ATOM      1  C   UNL     1       5.745   0.022  23.686  0.00  0.00    +0.252 C 
ATOM      2  O   UNL     1       5.329   0.172  22.989  0.00  0.00    -0.471 OA
ENDBRANCH   3   2
ENDBRANCH   9   6
BRANCH  15  18
ATOM     18  C   UNL     1      -1.602   1.271  23.656  0.00  0.00    +0.205 A 
ATOM     19  N   UNL     1      -2.070   1.643  23.087  0.00  0.00    -0.056 NA
ATOM     20  O   UNL     1      -2.858   1.585  23.325  0.00  0.00    -0.336 OA
ATOM     21  C   UNL     1      -2.877   1.176  24.042  0.00  0.00    +0.251 A 
ATOM     22  N   UNL     1      -2.101   0.983  24.246  0.00  0.00    -0.190 NA
BRANCH  21  23
ATOM     23  C   UNL     1      -3.553   0.994  24.478  0.00  0.00    +0.138 C 
ATOM     24  C   UNL     1      -3.830   0.236  24.647  0.00  0.00    +0.027 C 
ATOM     25  C   UNL     1      -4.519   0.311  25.096  0.00  0.00    +0.019 C 
ATOM     26  C   UNL     1      -4.667   1.115  25.202  0.00  0.00    +0.072 C 
ATOM     27  N   UNL     1      -4.071   1.537  24.821  0.00  0.00    -0.268 NA
BRANCH  27  28
ATOM     28  C   UNL     1      -4.003   2.359  24.788  0.00  0.00    +0.058 C 
ATOM     29  C   UNL     1      -3.589   2.763  25.376  0.00  0.00    +0.017 C 
ATOM     30  C   UNL     1      -4.350   2.776  24.166  0.00  0.00    +0.017 C 
ENDBRANCH  27  28
ENDBRANCH  21  23
ENDBRANCH  15  18
TORSDOF 5
ENDMDL
MODEL 2
REMARK VINA RESULT:      -7.7      1.241      1.909
REMARK  Name = 
REMARK  5 active torsions:
REMARK  status: ('A' for Active; 'I' for Inactive)
REMARK    1  A    between atoms: O_2  and  C_3
REMARK    2  A    between atoms: C_6  and  C_9
REMARK    3  A    between atoms: C_15  and  C_18
REMARK    4  A    between atoms: C_21  and  C_23
REMARK    5  A    between atoms: N_27  and  C_28
REMARK                            x       y       z     vdW  Elec       q    Type
REMARK                         _______ _______ _______ _____ _____    ______ ____
ROOT
ATOM      9  C   UNL     1       0.271   0.726  23.283  0.00  0.00    +0.270 C 
ATOM     10  O   UNL     1      -0.300   0.136  23.198  0.00  0.00    -0.268 OA
ATOM     11  N   UNL     1       0.045   1.490  23.500  0.00  0.00    -0.157 NA
ATOM     12  C   UNL     1      -0.750   1.664  23.632  0.00  0.00    +0.155 A 
ATOM     13  N   UNL     1      -0.975   2.426  23.849  0.00  0.00    -0.227 NA
ATOM     14  C   UNL     1      -1.771   2.600  23.981  0.00  0.00    +0.103 A 
ATOM     15  C   UNL     1      -2.342   2.011  23.895  0.00  0.00    +0.058 A 
ATOM     16  C   UNL     1      -2.116   1.247  23.678  0.00  0.00    +0.008 A 
ATOM     17  C   UNL     1      -1.320   1.073  23.546  0.00  0.00    +0.036 A 
ENDROOT
BRANCH   9   6
ATOM      3  C   UNL     1       2.658   0.205  22.888  0.00  0.00    +0.139 A 
ATOM      4  C   UNL     1       2.071  -0.267  22.549  0.00  0.00    +0.037 A 
ATOM      5  C   UNL     1       1.275  -0.093  22.681  0.00  0.00    +0.008 A 
ATOM      6  C   UNL     1       1.067   0.552  23.151  0.00  0.00    +0.056 A 
ATOM      7  C   UNL     1       1.653   1.025  23.489  0.00  0.00    +0.008 A 
ATOM      8  C   UNL     1       2.449   0.851  23.358  0.00  0.00    +0.037 A 
BRANCH   3   2
ATOM      1  C   UNL     1       4.008   0.642  22.717  0.00  0.00    +0.252 C 
ATOM      2  O   UNL     1       3.454   0.032  22.756  0.00  0.00    -0.471 OA
ENDBRANCH   3   2
ENDBRANCH   9   6
BRANCH  15  18
ATOM     18  C   UNL     1      -3.137   2.184  24.027  0.00  0.00    +0.205 A 
ATOM     19  N   UNL     1      -3.630   2.612  23.523  0.00  0.00    -0.056 NA
ATOM     20  O   UNL     1      -4.378   2.653  23.871  0.00  0.00    -0.336 OA
ATOM     21  C   UNL     1      -4.347   2.250  24.590  0.00  0.00    +0.251 A 
ATOM     22  N   UNL     1      -3.580   1.960  24.687  0.00  0.00    -0.190 NA
BRANCH  21  23
ATOM     23  C   UNL     1      -4.971   2.154  25.120  0.00  0.00    +0.138 C 
ATOM     24  C   UNL     1      -5.417   1.468  25.223  0.00  0.00    +0.027 C 
ATOM     25  C   UNL     1      -5.982   1.616  25.806  0.00  0.00    +0.019 C 
ATOM     26  C   UNL     1      -5.885   2.394  26.062  0.00  0.00    +0.072 C 
ATOM     27  N   UNL     1      -5.261   2.726  25.638  0.00  0.00    -0.268 NA
BRANCH  27  28
ATOM     28  C   UNL     1      -4.976   3.496  25.718  0.00  0.00    +0.058 C 
ATOM     29  C   UNL     1      -5.313   4.109  25.281  0.00  0.00    +0.017 C 
ATOM     30  C   UNL     1      -4.353   3.653  26.237  0.00  0.00    +0.017 C 
ENDBRANCH  27  28
ENDBRANCH  21  23
ENDBRANCH  15  18
TORSDOF 5
ENDMDL
MODEL 3
REMARK VINA RESULT:      -7.1     15.241     16.582
REMARK  Name = 
REMARK  5 active torsions:
REMARK  status: ('A' for Active; 'I' for Inactive)
REMARK    1  A    between atoms: O_2  and  C_3
REMARK    2  A    between atoms: C_6  and  C_9
REMARK    3  A    between atoms: C_15  and  C_18
REMARK    4  A    between atoms: C_21  and  C_23
REMARK    5  A    between atoms: N_27  and  C_28
REMARK                            x       y       z     vdW  Elec       q    Type
REMARK                         _______ _______ _______ _____ _____    ______ ____
ROOT
ATOM      9  C   UNL     1      -5.227 -10.564  16.109  0.00  0.00    +0.270 C 
ATOM     10  O   UNL     1      -4.506 -10.781  15.771  0.00  0.00    -0.268 OA
ATOM     11  N   UNL     1      -5.848 -10.308  15.628  0.00  0.00    -0.157 NA
ATOM     12  C   UNL     1      -5.747 -10.268  14.810  0.00  0.00    +0.155 A 
ATOM     13  N   UNL     1      -6.367 -10.012  14.331  0.00  0.00    -0.227 NA
ATOM     14  C   UNL     1      -6.266  -9.973  13.513  0.00  0.00    +0.103 A 
ATOM     15  C   UNL     1      -5.545 -10.189  13.175  0.00  0.00    +0.058 A 
ATOM     16  C   UNL     1      -4.925 -10.446  13.655  0.00  0.00    +0.008 A 
ATOM     17  C   UNL     1      -5.026 -10.485  14.473  0.00  0.00    +0.036 A 
ENDROOT
BRANCH   9   6
ATOM      3  C   UNL     1      -5.530 -10.682  18.563  0.00  0.00    +0.139 A 
ATOM      4  C   UNL     1      -4.774 -10.587  18.244  0.00  0.00    +0.037 A 
ATOM      5  C   UNL     1      -4.673 -10.548  17.426  0.00  0.00    +0.008 A 
ATOM      6  C   UNL     1      -5.328 -10.603  16.927  0.00  0.00    +0.056 A 
ATOM      7  C   UNL     1      -6.084 -10.698  17.245  0.00  0.00    +0.008 A 
ATOM      8  C   UNL     1      -6.185 -10.738  18.063  0.00  0.00    +0.037 A 
BRANCH   3   2
ATOM      1  C   UNL     1      -6.311 -10.409  19.727  0.00  0.00    +0.252 C 
ATOM      2  O   UNL     1      -5.631 -10.722  19.380  0.00  0.00    -0.471 OA
ENDBRANCH   3   2
ENDBRANCH   9   6
BRANCH  15  18
ATOM     18  C   UNL     1      -5.445 -10.150  12.357  0.00  0.00    +0.205 A 
ATOM     19  N   UNL     1      -5.634 -10.743  11.816  0.00  0.00    -0.056 NA
ATOM     20  O   UNL     1      -5.443 -10.470  11.060  0.00  0.00    -0.336 OA
ATOM     21  C   UNL     1      -5.135  -9.708  11.135  0.00  0.00    +0.251 A 
ATOM     22  N   UNL     1      -5.136  -9.510  11.936  0.00  0.00    -0.190 NA
BRANCH  21  23
ATOM     23  C   UNL     1      -4.873  -9.228  10.518  0.00  0.00    +0.138 C 
ATOM     24  C   UNL     1      -5.268  -8.572  10.213  0.00  0.00    +0.027 C 
ATOM     25  C   UNL     1      -4.808  -8.258   9.603  0.00  0.00    +0.019 C 
ATOM     26  C   UNL     1      -4.130  -8.722   9.532  0.00  0.00    +0.072 C 
ATOM     27  N   UNL     1      -4.169  -9.321  10.097  0.00  0.00    -0.268 NA
BRANCH  27  28
ATOM     28  C   UNL     1      -3.605  -9.910  10.219  0.00  0.00    +0.058 C 
ATOM     29  C   UNL     1      -2.955  -9.764  10.704  0.00  0.00    +0.017 C 
ATOM     30  C   UNL     1      -3.691 -10.645   9.854  0.00  0.00    +0.017 C 
ENDBRANCH  27  28
ENDBRANCH  21  23
ENDBRANCH  15  18
TORSDOF 5
ENDMDL
MODEL 4
REMARK VINA RESULT:      -6.3     15.457     17.176
REMARK  Name = 
REMARK  5 active torsions:
REMARK  status: ('A' for Active; 'I' for Inactive)
REMARK    1  A    between atoms: O_2  and  C_3
REMARK    2  A    between atoms: C_6  and  C_9
REMARK    3  A    between atoms: C_15  and  C_18
REMARK    4  A    between atoms: C_21  and  C_23
REMARK    5  A    between atoms: N_27  and  C_28
REMARK                            x       y       z     vdW  Elec       q    Type
REMARK                         _______ _______ _______ _____ _____    ______ ____
ROOT
ATOM      9  C   UNL     1      -7.060 -10.089  15.563  0.00  0.00    +0.270 C 
ATOM     10  O   UNL     1      -6.283 -10.359  15.633  0.00  0.00    -0.268 OA
ATOM     11  N   UNL     1      -7.364  -9.896  14.820  0.00  0.00    -0.157 NA
ATOM     12  C   UNL     1      -6.892  -9.973  14.148  0.00  0.00    +0.155 A 
ATOM     13  N   UNL     1      -7.196  -9.781  13.406  0.00  0.00    -0.227 NA
ATOM     14  C   UNL     1      -6.724  -9.858  12.734  0.00  0.00    +0.103 A 
ATOM     15  C   UNL     1      -5.948 -10.128  12.804  0.00  0.00    +0.058 A 
ATOM     16  C   UNL     1      -5.643 -10.321  13.547  0.00  0.00    +0.008 A 
ATOM     17  C   UNL     1      -6.116 -10.243  14.219  0.00  0.00    +0.036 A 
ENDROOT
BRANCH   9   6
ATOM      3  C   UNL     1      -8.477  -9.857  17.579  0.00  0.00    +0.139 A 
ATOM      4  C   UNL     1      -8.165 -10.594  17.376  0.00  0.00    +0.037 A 
ATOM      5  C   UNL     1      -7.693 -10.671  16.704  0.00  0.00    +0.008 A 
ATOM      6  C   UNL     1      -7.532 -10.012  16.235  0.00  0.00    +0.056 A 
ATOM      7  C   UNL     1      -7.843  -9.275  16.437  0.00  0.00    +0.008 A 
ATOM      8  C   UNL     1      -8.316  -9.197  17.109  0.00  0.00    +0.037 A 
BRANCH   3   2
ATOM      1  C   UNL     1      -9.714 -10.089  18.255  0.00  0.00    +0.252 C 
ATOM      2  O   UNL     1      -8.949  -9.780  18.251  0.00  0.00    -0.471 OA
ENDBRANCH   3   2
ENDBRANCH   9   6
BRANCH  15  18
ATOM     18  C   UNL     1      -5.476 -10.205  12.132  0.00  0.00    +0.205 A 
ATOM     19  N   UNL     1      -5.555 -10.781  11.546  0.00  0.00    -0.056 NA
ATOM     20  O   UNL     1      -4.970 -10.652  10.980  0.00  0.00    -0.336 OA
ATOM     21  C   UNL     1      -4.527  -9.996  11.215  0.00  0.00    +0.251 A 
ATOM     22  N   UNL     1      -4.840  -9.720  11.927  0.00  0.00    -0.190 NA
BRANCH  21  23
ATOM     23  C   UNL     1      -3.886  -9.673  10.810  0.00  0.00    +0.138 C 
ATOM     24  C   UNL     1      -3.090  -9.798  10.985  0.00  0.00    +0.027 C 
ATOM     25  C   UNL     1      -2.639  -9.370  10.441  0.00  0.00    +0.019 C 
ATOM     26  C   UNL     1      -3.157  -8.982   9.931  0.00  0.00    +0.072 C 
ATOM     27  N   UNL     1      -3.927  -9.169  10.158  0.00  0.00    -0.268 NA
BRANCH  27  28
ATOM     28  C   UNL     1      -4.618  -8.898   9.797  0.00  0.00    +0.058 C 
ATOM     29  C   UNL     1      -4.960  -8.188  10.040  0.00  0.00    +0.017 C 
ATOM     30  C   UNL     1      -4.967  -9.339   9.193  0.00  0.00    +0.017 C 
ENDBRANCH  27  28
ENDBRANCH  21  23
ENDBRANCH  15  18
TORSDOF 5
ENDMDL
MODEL 5
REMARK VINA RESULT:      -5.9     17.544     18.979
REMARK  Name = 
REMARK  5 active torsions:
REMARK  status: ('A' for Active; 'I' for Inactive)
REMARK    1  A    between atoms: O_2  and  C_3
REMARK    2  A    between atoms: C_6  and  C_9
REMARK    3  A    between atoms: C_15  and  C_18
REMARK    4  A    between atoms: C_21  and  C_23
REMARK    5  A    between atoms: N_27  and  C_28
REMARK                            x       y       z     vdW  Elec       q    Type
REMARK                         _______ _______ _______ _____ _____    ______ ____
ROOT
ATOM      9  C   UNL     1      17.107  -4.526  24.013  0.00  0.00    +0.270 C 
ATOM     10  O   UNL     1      17.280  -5.122  23.468  0.00  0.00    -0.268 OA
ATOM     11  N   UNL     1      16.914  -4.722  24.791  0.00  0.00    -0.157 NA
ATOM     12  C   UNL     1      16.893  -5.513  25.025  0.00  0.00    +0.155 A 
ATOM     13  N   UNL     1      16.701  -5.708  25.802  0.00  0.00    -0.227 NA
ATOM     14  C   UNL     1      16.680  -6.499  26.035  0.00  0.00    +0.103 A 
ATOM     15  C   UNL     1      16.851  -7.095  25.491  0.00  0.00    +0.058 A 
ATOM     16  C   UNL     1      17.044  -6.899  24.713  0.00  0.00    +0.008 A 
ATOM     17  C   UNL     1      17.065  -6.108  24.479  0.00  0.00    +0.036 A 
ENDROOT
BRANCH   9   6
ATOM      3  C   UNL     1      17.171  -2.152  23.313  0.00  0.00    +0.139 A 
ATOM      4  C   UNL     1      17.405  -2.744  22.787  0.00  0.00    +0.037 A 
ATOM      5  C   UNL     1      17.384  -3.535  23.021  0.00  0.00    +0.008 A 
ATOM      6  C   UNL     1      17.128  -3.734  23.779  0.00  0.00    +0.056 A 
ATOM      7  C   UNL     1      16.894  -3.143  24.305  0.00  0.00    +0.008 A 
ATOM      8  C   UNL     1      16.915  -2.352  24.072  0.00  0.00    +0.037 A 
BRANCH   3   2
ATOM      1  C   UNL     1      16.607  -1.064  22.579  0.00  0.00    +0.252 C 
ATOM      2  O   UNL     1      17.192  -1.361  23.080  0.00  0.00    -0.471 OA
ENDBRANCH   3   2
ENDBRANCH   9   6
BRANCH  15  18
ATOM     18  C   UNL     1      16.830  -7.886  25.724  0.00  0.00    +0.205 A 
ATOM     19  N   UNL     1      17.405  -8.454  25.563  0.00  0.00    -0.056 NA
ATOM     20  O   UNL     1      17.161  -9.167  25.899  0.00  0.00    -0.336 OA
ATOM     21  C   UNL     1      16.434  -9.039  26.268  0.00  0.00    +0.251 A 
ATOM     22  N   UNL     1      16.230  -8.247  26.160  0.00  0.00    -0.190 NA
BRANCH  21  23
ATOM     23  C   UNL     1      15.990  -9.604  26.674  0.00  0.00    +0.138 C 
ATOM     24  C   UNL     1      15.967  -9.705  27.492  0.00  0.00    +0.027 C 
ATOM     25  C   UNL     1      15.453 -10.330  27.656  0.00  0.00    +0.019 C 
ATOM     26  C   UNL     1      15.160 -10.614  26.940  0.00  0.00    +0.072 C 
ATOM     27  N   UNL     1      15.491 -10.165  26.333  0.00  0.00    -0.268 NA
BRANCH  27  28
ATOM     28  C   UNL     1      15.349 -10.261  25.526  0.00  0.00    +0.058 C 
ATOM     29  C   UNL     1      15.849 -10.734  25.072  0.00  0.00    +0.017 C 
ATOM     30  C   UNL     1      14.705  -9.883  25.173  0.00  0.00    +0.017 C 
ENDBRANCH  27  28
ENDBRANCH  21  23
ENDBRANCH  15  18
TORSDOF 5
ENDMDL
