MODEL 1
REMARK VINA RESULT:     -12.1      0.000      0.000
REMARK  Name = 
REMARK  8 active torsions:
REMARK  status: ('A' for Active; 'I' for Inactive)
REMARK    1  A    between atoms: C_2  and  C_4
REMARK    2  A    between atoms: C_4  and  C_5
REMARK    3  A    between atoms: C_5  and  N_6
REMARK    4  A    between atoms: C_7  and  C_9
REMARK    5  A    between atoms: C_11  and  N_12
REMARK    6  A    between atoms: N_12  and  S_13
REMARK    7  A    between atoms: S_13  and  C_16
REMARK    8  A    between atoms: C_18  and  C_22
REMARK                            x       y       z     vdW  Elec       q    Type
REMARK                         _______ _______ _______ _____ _____    ______ ____
ROOT
ATOM      9  C   UNL     1      -4.600   1.300  24.902  0.00  0.00    +0.033 C 
ATOM     10  C   UNL     1      -4.216   2.013  24.746  0.00  0.00    -0.004 C 
ATOM     11  C   UNL     1      -4.540   2.724  25.010  0.00  0.00    +0.152 C 
ATOM     26  C   UNL     1      -5.249   2.722  25.432  0.00  0.00    +0.204 C 
ATOM     27  O   UNL     1      -5.573   3.432  25.696  0.00  0.00    -0.218 OA
ATOM     28  C   UNL     1      -5.634   2.009  25.588  0.00  0.00    +0.188 C 
ATOM     29  O   UNL     1      -6.344   2.007  26.010  0.00  0.00    -0.220 OA
ATOM     30  C   UNL     1      -5.310   1.298  25.324  0.00  0.00    +0.066 C 
ENDROOT
BRANCH   9   7
ATOM      6  N   UNL     1      -3.975   0.046  25.180  0.00  0.00    -0.201 NA
ATOM      7  C   UNL     1      -4.276   0.589  24.638  0.00  0.00    +0.261 C 
ATOM      8  O   UNL     1      -4.254   0.422  23.830  0.00  0.00    -0.269 OA
BRANCH   6   5
ATOM      5  C   UNL     1      -3.651  -0.666  24.915  0.00  0.00    +0.125 C 
BRANCH   5   4
ATOM      4  C   UNL     1      -3.313  -1.191  25.453  0.00  0.00    +0.112 C 
BRANCH   4   2
ATOM      1  N   UNL     1      -2.282  -2.037  24.939  0.00  0.00    -0.088 NA
ATOM      2  C   UNL     1      -3.057  -1.934  25.201  0.00  0.00    +0.263 C 
ATOM      3  O   UNL     1      -3.578  -2.573  25.210  0.00  0.00    -0.272 OA
ENDBRANCH   4   2
ENDBRANCH   5   4
ENDBRANCH   6   5
ENDBRANCH   9   7
BRANCH  11  12
ATOM     12  N   UNL     1      -4.156   3.436  24.854  0.00  0.00    -0.072 NA
BRANCH  12  13
ATOM     13  S   UNL     1      -3.354   3.521  25.030  0.00  0.00    +0.077 S 
ATOM     14  O   UNL     1      -3.167   3.384  24.239  0.00  0.00    -0.152 OA
ATOM     15  O   UNL     1      -3.543   3.657  25.822  0.00  0.00    -0.152 OA
BRANCH  13  16
ATOM     16  C   UNL     1      -2.552   3.605  25.205  0.00  0.00    +0.124 A 
ATOM     17  C   UNL     1      -2.155   4.295  24.990  0.00  0.00    +0.024 A 
ATOM     18  C   UNL     1      -1.352   4.380  25.165  0.00  0.00    +0.073 A 
ATOM     19  C   UNL     1      -0.949   3.776  25.554  0.00  0.00    +0.004 A 
ATOM     20  C   UNL     1      -1.348   3.085  25.770  0.00  0.00    +0.001 A 
ATOM     21  C   UNL     1      -2.149   3.001  25.595  0.00  0.00    +0.020 A 
BRANCH  18  22
ATOM     22  C   UNL     1      -0.954   5.070  24.950  0.00  0.00    +0.419 C 
ATOM     23  F   UNL     1      -0.556   5.760  24.735  0.00  0.00    -0.166 F 
ATOM     24  F   UNL     1      -1.421   5.503  25.474  0.00  0.00    -0.166 F 
ATOM     25  F   UNL     1      -0.487   4.637  24.425  0.00  0.00    -0.166 F 
ENDBRANCH  18  22
ENDBRANCH  13  16
ENDBRANCH  12  13
ENDBRANCH  11  12
TORSDOF 8
ENDMDL
MODEL 2
REMARK VINA RESULT:     -12.1      3.032      4.796
REMARK  Name = 
REMARK  8 active torsions:
REMARK  status: ('A' for Active; 'I' for Inactive)
REMARK    1  A    between atoms: C_2  and  C_4
REMARK    2  A    between atoms: C_4  and  C_5
REMARK    3  A    between atoms: C_5  and  N_6
REMARK    4  A    between atoms: C_7  and  C_9
REMARK    5  A    between atoms: C_11  and  N_12
REMARK    6  A    between atoms: N_12  and  S_13
REMARK    7  A    between atoms: S_13  and  C_16
REMARK    8  A    between atoms: C_18  and  C_22
REMARK                            x       y       z     vdW  Elec       q    Type
REMARK                         _______ _______ _______ _____ _____    ______ ____
ROOT
ATOM      9  C   UNL     1      -3.316   2.438  24.804  0.00  0.00    +0.033 C 
ATOM     10  C   UNL     1      -3.633   1.707  24.593  0.00  0.00    -0.004 C 
ATOM     11  C   UNL     1      -4.444   1.572  24.660  0.00  0.00    +0.152 C 
ATOM     26  C   UNL     1      -4.939   2.171  24.939  0.00  0.00    +0.204 C 
ATOM     27  O   UNL     1      -5.750   2.037  25.006  0.00  0.00    -0.218 OA
ATOM     28  C   UNL     1      -4.622   2.903  25.150  0.00  0.00    +0.188 C 
ATOM     29  O   UNL     1      -5.117   3.502  25.429  0.00  0.00    -0.220 OA
ATOM     30  C   UNL     1      -3.811   3.037  25.082  0.00  0.00    +0.066 C 
ENDROOT
BRANCH   9   7
ATOM      6  N   UNL     1      -1.998   2.352  25.348  0.00  0.00    -0.201 NA
ATOM      7  C   UNL     1      -2.505   2.572  24.736  0.00  0.00    +0.261 C 
ATOM      8  O   UNL     1      -2.201   2.927  24.056  0.00  0.00    -0.269 OA
BRANCH   6   5
ATOM      5  C   UNL     1      -1.186   2.486  25.280  0.00  0.00    +0.125 C 
BRANCH   5   4
ATOM      4  C   UNL     1      -0.663   2.127  25.807  0.00  0.00    +0.112 C 
BRANCH   4   2
ATOM      1  N   UNL     1       0.482   2.720  26.423  0.00  0.00    -0.088 NA
ATOM      2  C   UNL     1       0.139   2.320  25.789  0.00  0.00    +0.263 C 
ATOM      3  O   UNL     1       0.597   2.113  25.135  0.00  0.00    -0.272 OA
ENDBRANCH   4   2
ENDBRANCH   5   4
ENDBRANCH   6   5
ENDBRANCH   9   7
BRANCH  11  12
ATOM     12  N   UNL     1      -4.761   0.841  24.450  0.00  0.00    -0.072 NA
BRANCH  12  13
ATOM     13  S   UNL     1      -4.395   0.145  24.700  0.00  0.00    +0.077 S 
ATOM     14  O   UNL     1      -4.010   0.088  23.973  0.00  0.00    -0.152 OA
ATOM     15  O   UNL     1      -4.782   0.203  25.427  0.00  0.00    -0.152 OA
BRANCH  13  16
ATOM     16  C   UNL     1      -4.029  -0.551  24.949  0.00  0.00    +0.124 A 
ATOM     17  C   UNL     1      -3.998  -1.203  24.444  0.00  0.00    +0.024 A 
ATOM     18  C   UNL     1      -3.631  -1.900  24.692  0.00  0.00    +0.073 A 
ATOM     19  C   UNL     1      -3.298  -1.944  25.445  0.00  0.00    +0.004 A 
ATOM     20  C   UNL     1      -3.330  -1.292  25.950  0.00  0.00    +0.001 A 
ATOM     21  C   UNL     1      -3.696  -0.596  25.701  0.00  0.00    +0.020 A 
BRANCH  18  22
ATOM     22  C   UNL     1      -3.599  -2.552  24.187  0.00  0.00    +0.419 C 
ATOM     23  F   UNL     1      -3.568  -3.203  23.683  0.00  0.00    -0.166 F 
ATOM     24  F   UNL     1      -4.412  -2.659  24.275  0.00  0.00    -0.166 F 
ATOM     25  F   UNL     1      -2.786  -2.444  24.100  0.00  0.00    -0.166 F 
ENDBRANCH  18  22
ENDBRANCH  13  16
ENDBRANCH  12  13
ENDBRANCH  11  12
TORSDOF 8
ENDMDL
MODEL 3
REMARK VINA RESULT:     -11.5      2.479      4.014
REMARK  Name = 
REMARK  8 active torsions:
REMARK  status: ('A' for Active; 'I' for Inactive)
REMARK    1  A    between atoms: C_2  and  C_4
REMARK    2  A    between atoms: C_4  and  C_5
REMARK    3  A    between atoms: C_5  and  N_6
REMARK    4  A    between atoms: C_7  and  C_9
REMARK    5  A    between atoms: C_11  and  N_12
REMARK    6  A    between atoms: N_12  and  S_13
REMARK    7  A    between atoms: S_13  and  C_16
REMARK    8  A    between atoms: C_18  and  C_22
REMARK                            x       y       z     vdW  Elec       q    Type
REMARK                         _______ _______ _______ _____ _____    ______ ____
ROOT
ATOM      9  C   UNL     1      -1.128   3.035  25.491  0.00  0.00    +0.033 C 
ATOM     10  C   UNL     1      -1.893   3.234  25.726  0.00  0.00    -0.004 C 
ATOM     11  C   UNL     1      -2.175   4.001  25.609  0.00  0.00    +0.152 C 
ATOM     26  C   UNL     1      -1.691   4.569  25.258  0.00  0.00    +0.204 C 
ATOM     27  O   UNL     1      -1.972   5.335  25.142  0.00  0.00    -0.218 OA
ATOM     28  C   UNL     1      -0.925   4.370  25.024  0.00  0.00    +0.188 C 
ATOM     29  O   UNL     1      -0.441   4.938  24.672  0.00  0.00    -0.220 OA
ATOM     30  C   UNL     1      -0.644   3.604  25.140  0.00  0.00    +0.066 C 
ENDROOT
BRANCH   9   7
ATOM      6  N   UNL     1      -0.971   1.691  25.033  0.00  0.00    -0.201 NA
ATOM      7  C   UNL     1      -0.846   2.269  25.608  0.00  0.00    +0.261 C 
ATOM      8  O   UNL     1      -0.439   2.080  26.300  0.00  0.00    -0.269 OA
BRANCH   6   5
ATOM      5  C   UNL     1      -0.689   0.924  25.149  0.00  0.00    +0.125 C 
BRANCH   5   4
ATOM      4  C   UNL     1      -0.983   0.303  24.695  0.00  0.00    +0.112 C 
BRANCH   4   2
ATOM      1  N   UNL     1      -0.763  -1.018  25.194  0.00  0.00    -0.088 NA
ATOM      2  C   UNL     1      -0.577  -0.415  24.664  0.00  0.00    +0.263 C 
ATOM      3  O   UNL     1       0.016  -0.529  24.101  0.00  0.00    -0.272 OA
ENDBRANCH   4   2
ENDBRANCH   5   4
ENDBRANCH   6   5
ENDBRANCH   9   7
BRANCH  11  12
ATOM     12  N   UNL     1      -2.940   4.199  25.844  0.00  0.00    -0.072 NA
BRANCH  12  13
ATOM     13  S   UNL     1      -3.574   3.708  25.646  0.00  0.00    +0.077 S 
ATOM     14  O   UNL     1      -3.593   3.424  26.420  0.00  0.00    -0.152 OA
ATOM     15  O   UNL     1      -3.553   3.993  24.872  0.00  0.00    -0.152 OA
BRANCH  13  16
ATOM     16  C   UNL     1      -4.207   3.217  25.450  0.00  0.00    +0.124 A 
ATOM     17  C   UNL     1      -4.065   2.448  25.190  0.00  0.00    +0.024 A 
ATOM     18  C   UNL     1      -4.698   1.956  24.993  0.00  0.00    +0.073 A 
ATOM     19  C   UNL     1      -5.471   2.234  25.057  0.00  0.00    +0.004 A 
ATOM     20  C   UNL     1      -5.613   3.004  25.318  0.00  0.00    +0.001 A 
ATOM     21  C   UNL     1      -4.980   3.495  25.514  0.00  0.00    +0.020 A 
BRANCH  18  22
ATOM     22  C   UNL     1      -4.557   1.185  24.732  0.00  0.00    +0.419 C 
ATOM     23  F   UNL     1      -4.416   0.416  24.472  0.00  0.00    -0.166 F 
ATOM     24  F   UNL     1      -4.371   1.474  23.983  0.00  0.00    -0.166 F 
ATOM     25  F   UNL     1      -4.743   0.897  25.483  0.00  0.00    -0.166 F 
ENDBRANCH  18  22
ENDBRANCH  13  16
ENDBRANCH  12  13
ENDBRANCH  11  12
TORSDOF 8
ENDMDL
MODEL 4
REMARK VINA RESULT:     -11.4      3.226      5.692
REMARK  Name = 
REMARK  8 active torsions:
REMARK  status: ('A' for Active; 'I' for Inactive)
REMARK    1  A    between atoms: C_2  and  C_4
REMARK    2  A    between atoms: C_4  and  C_5
REMARK    3  A    between atoms: C_5  and  N_6
REMARK    4  A    between atoms: C_7  and  C_9
REMARK    5  A    between atoms: C_11  and  N_12
REMARK    6  A    between atoms: N_12  and  S_13
REMARK    7  A    between atoms: S_13  and  C_16
REMARK    8  A    between atoms: C_18  and  C_22
REMARK                            x       y       z     vdW  Elec       q    Type
REMARK                         _______ _______ _______ _____ _____    ______ ____
ROOT
ATOM      9  C   UNL     1      -1.093   1.124  24.681  0.00  0.00    +0.033 C 
ATOM     10  C   UNL     1      -1.217   0.349  24.934  0.00  0.00    -0.004 C 
ATOM     11  C   UNL     1      -0.720  -0.256  24.672  0.00  0.00    +0.152 C 
ATOM     26  C   UNL     1      -0.099  -0.085  24.157  0.00  0.00    +0.204 C 
ATOM     27  O   UNL     1       0.397  -0.689  23.896  0.00  0.00    -0.218 OA
ATOM     28  C   UNL     1       0.024   0.691  23.904  0.00  0.00    +0.188 C 
ATOM     29  O   UNL     1       0.646   0.862  23.388  0.00  0.00    -0.220 OA
ATOM     30  C   UNL     1      -0.472   1.295  24.165  0.00  0.00    +0.066 C 
ENDROOT
BRANCH   9   7
ATOM      6  N   UNL     1      -2.283   1.901  24.530  0.00  0.00    -0.201 NA
ATOM      7  C   UNL     1      -1.590   1.729  24.942  0.00  0.00    +0.261 C 
ATOM      8  O   UNL     1      -1.393   2.161  25.617  0.00  0.00    -0.269 OA
BRANCH   6   5
ATOM      5  C   UNL     1      -2.779   2.506  24.791  0.00  0.00    +0.125 C 
BRANCH   5   4
ATOM      4  C   UNL     1      -3.525   2.603  24.454  0.00  0.00    +0.112 C 
BRANCH   4   2
ATOM      1  N   UNL     1      -4.602   3.182  25.194  0.00  0.00    -0.088 NA
ATOM      2  C   UNL     1      -3.986   3.258  24.651  0.00  0.00    +0.263 C 
ATOM      3  O   UNL     1      -3.831   3.990  24.304  0.00  0.00    -0.272 OA
ENDBRANCH   4   2
ENDBRANCH   5   4
ENDBRANCH   6   5
ENDBRANCH   9   7
BRANCH  11  12
ATOM     12  N   UNL     1      -0.844  -1.030  24.926  0.00  0.00    -0.072 NA
BRANCH  12  13
ATOM     13  S   UNL     1      -1.581  -1.387  24.819  0.00  0.00    +0.077 S 
ATOM     14  O   UNL     1      -1.386  -1.551  24.035  0.00  0.00    -0.152 OA
ATOM     15  O   UNL     1      -1.774  -1.223  25.604  0.00  0.00    -0.152 OA
BRANCH  13  16
ATOM     16  C   UNL     1      -2.316  -1.745  24.711  0.00  0.00    +0.124 A 
ATOM     17  C   UNL     1      -2.967  -1.288  24.493  0.00  0.00    +0.024 A 
ATOM     18  C   UNL     1      -3.704  -1.645  24.385  0.00  0.00    +0.073 A 
ATOM     19  C   UNL     1      -3.788  -2.457  24.495  0.00  0.00    +0.004 A 
ATOM     20  C   UNL     1      -3.136  -2.914  24.714  0.00  0.00    +0.001 A 
ATOM     21  C   UNL     1      -2.401  -2.557  24.822  0.00  0.00    +0.020 A 
BRANCH  18  22
ATOM     22  C   UNL     1      -4.356  -1.188  24.166  0.00  0.00    +0.419 C 
ATOM     23  F   UNL     1      -5.006  -0.731  23.947  0.00  0.00    -0.166 F 
ATOM     24  F   UNL     1      -4.415  -0.904  24.937  0.00  0.00    -0.166 F 
ATOM     25  F   UNL     1      -4.295  -1.472  23.393  0.00  0.00    -0.166 F 
ENDBRANCH  18  22
ENDBRANCH  13  16
ENDBRANCH  12  13
ENDBRANCH  11  12
TORSDOF 8
ENDMDL
MODEL 5
REMARK VINA RESULT:     -11.3      2.371      3.625
REMARK  Name = 
REMARK  8 active torsions:
REMARK  status: ('A' for Active; 'I' for Inactive)
REMARK    1  A    between atoms: C_2  and  C_4
REMARK    2  A    between atoms: C_4  and  C_5
REMARK    3  A    between atoms: C_5  and  N_6
REMARK    4  A    between atoms: C_7  and  C_9
REMARK    5  A    between atoms: C_11  and  N_12
REMARK    6  A    between atoms: N_12  and  S_13
REMARK    7  A    between atoms: S_13  and  C_16
REMARK    8  A    between atoms: C_18  and  C_22
REMARK                            x       y       z     vdW  Elec       q    Type
REMARK                         _______ _______ _______ _____ _____    ______ ____
ROOT
ATOM      9  C   UNL     1      -1.495   1.179  25.075  0.00  0.00    +0.033 C 
ATOM     10  C   UNL     1      -1.975   1.811  24.853  0.00  0.00    -0.004 C 
ATOM     11  C   UNL     1      -1.769   2.581  25.065  0.00  0.00    +0.152 C 
ATOM     26  C   UNL     1      -1.081   2.718  25.500  0.00  0.00    +0.204 C 
ATOM     27  O   UNL     1      -0.875   3.488  25.712  0.00  0.00    -0.218 OA
ATOM     28  C   UNL     1      -0.601   2.085  25.721  0.00  0.00    +0.188 C 
ATOM     29  O   UNL     1       0.088   2.223  26.156  0.00  0.00    -0.220 OA
ATOM     30  C   UNL     1      -0.807   1.316  25.509  0.00  0.00    +0.066 C 
ENDROOT
BRANCH   9   7
ATOM      6  N   UNL     1      -2.292   0.010  25.277  0.00  0.00    -0.201 NA
ATOM      7  C   UNL     1      -1.701   0.408  24.862  0.00  0.00    +0.261 C 
ATOM      8  O   UNL     1      -1.316   0.037  24.234  0.00  0.00    -0.269 OA
BRANCH   6   5
ATOM      5  C   UNL     1      -2.498  -0.760  25.065  0.00  0.00    +0.125 C 
BRANCH   5   4
ATOM      4  C   UNL     1      -3.126  -1.138  25.442  0.00  0.00    +0.112 C 
BRANCH   4   2
ATOM      1  N   UNL     1      -3.309  -2.534  25.193  0.00  0.00    -0.088 NA
ATOM      2  C   UNL     1      -3.529  -1.750  25.061  0.00  0.00    +0.263 C 
ATOM      3  O   UNL     1      -4.152  -1.577  24.549  0.00  0.00    -0.272 OA
ENDBRANCH   4   2
ENDBRANCH   5   4
ENDBRANCH   6   5
ENDBRANCH   9   7
BRANCH  11  12
ATOM     12  N   UNL     1      -2.249   3.213  24.843  0.00  0.00    -0.072 NA
BRANCH  12  13
ATOM     13  S   UNL     1      -3.059   3.191  24.999  0.00  0.00    +0.077 S 
ATOM     14  O   UNL     1      -3.207   3.042  24.201  0.00  0.00    -0.152 OA
ATOM     15  O   UNL     1      -2.910   3.341  25.797  0.00  0.00    -0.152 OA
BRANCH  13  16
ATOM     16  C   UNL     1      -3.869   3.169  25.153  0.00  0.00    +0.124 A 
ATOM     17  C   UNL     1      -4.299   2.483  24.996  0.00  0.00    +0.024 A 
ATOM     18  C   UNL     1      -5.110   2.461  25.150  0.00  0.00    +0.073 A 
ATOM     19  C   UNL     1      -5.489   3.123  25.461  0.00  0.00    +0.004 A 
ATOM     20  C   UNL     1      -5.058   3.809  25.618  0.00  0.00    +0.001 A 
ATOM     21  C   UNL     1      -4.248   3.832  25.464  0.00  0.00    +0.020 A 
BRANCH  18  22
ATOM     22  C   UNL     1      -5.541   1.774  24.992  0.00  0.00    +0.419 C 
ATOM     23  F   UNL     1      -5.971   1.089  24.835  0.00  0.00    -0.166 F 
ATOM     24  F   UNL     1      -5.253   1.435  25.686  0.00  0.00    -0.166 F 
ATOM     25  F   UNL     1      -5.829   2.115  24.297  0.00  0.00    -0.166 F 
ENDBRANCH  18  22
ENDBRANCH  13  16
ENDBRANCH  12  13
ENDBRANCH  11  12
TORSDOF 8
ENDMDL
