MODEL 1
REMARK VINA RESULT:      -9.1      0.000      0.000
REMARK  Name = 
REMARK  7 active torsions:
REMARK  status: ('A' for Active; 'I' for Inactive)
REMARK    1  A    between atoms: N_6  and  C_7
REMARK    2  A    between atoms: C_7  and  C_8
REMARK    3  A    between atoms: C_19  and  C_20
REMARK    4  A    between atoms: C_20  and  C_21
REMARK    5  A    between atoms: C_21  and  C_22
REMARK    6  A    between atoms: N_24  and  C_25
REMARK    7  A    between atoms: C_25  and  C_26
REMARK                            x       y       z     vdW  Elec       q    Type
REMARK                         _______ _______ _______ _____ _____    ______ ____
ROOT
ATOM      1  C   UNL     1      -1.460  -0.253  24.535  0.00  0.00    +0.090 C 
ATOM      2  N   UNL     1      -1.589   0.520  24.276  0.00  0.00    -0.271 NA
ATOM      3  C   UNL     1      -2.327   0.841  24.459  0.00  0.00    +0.083 C 
ATOM      4  C   UNL     1      -2.911   0.431  24.873  0.00  0.00    +0.035 C 
ATOM      5  C   UNL     1      -3.565   0.927  24.949  0.00  0.00    +0.074 C 
ATOM      6  N   UNL     1      -3.386   1.645  24.582  0.00  0.00    -0.262 NA
ATOM     14  C   UNL     1      -2.620   1.591  24.279  0.00  0.00    +0.151 C 
ATOM     15  C   UNL     1      -2.249   2.205  23.873  0.00  0.00    +0.257 C 
ATOM     16  O   UNL     1      -2.692   2.895  23.782  0.00  0.00    -0.272 OA
ATOM     17  N   UNL     1      -1.492   2.221  23.546  0.00  0.00    -0.203 NA
ATOM     18  C   UNL     1      -0.919   1.626  23.544  0.00  0.00    +0.131 C 
ATOM     19  C   UNL     1      -0.962   0.870  23.869  0.00  0.00    +0.080 C 
ENDROOT
BRANCH   6   7
ATOM      7  C   UNL     1      -3.884   2.300  24.528  0.00  0.00    +0.100 C 
BRANCH   7   8
ATOM      8  C   UNL     1      -4.620   2.290  24.903  0.00  0.00    -0.006 A 
ATOM      9  C   UNL     1      -5.247   1.870  24.570  0.00  0.00    -0.003 A 
ATOM     10  C   UNL     1      -5.981   1.861  24.946  0.00  0.00    -0.000 A 
ATOM     11  C   UNL     1      -6.088   2.272  25.653  0.00  0.00    -0.000 A 
ATOM     12  C   UNL     1      -5.461   2.692  25.985  0.00  0.00    -0.000 A 
ATOM     13  C   UNL     1      -4.727   2.701  25.610  0.00  0.00    -0.003 A 
ENDBRANCH   7   8
ENDBRANCH   6   7
BRANCH  19  20
ATOM     20  C   UNL     1      -0.291   0.400  23.774  0.00  0.00    +0.027 C 
BRANCH  20  21
ATOM     21  C   UNL     1       0.409   0.732  23.492  0.00  0.00    +0.088 C 
BRANCH  21  22
ATOM     22  C   UNL     1       0.996   0.248  23.172  0.00  0.00    +0.242 C 
ATOM     23  O   UNL     1       0.803  -0.502  22.889  0.00  0.00    -0.273 OA
ATOM     24  N   UNL     1       1.775   0.514  23.135  0.00  0.00    -0.200 NA
BRANCH  24  25
ATOM     25  C   UNL     1       2.362   0.031  22.815  0.00  0.00    +0.148 C 
BRANCH  25  26
ATOM     26  C   UNL     1       3.151   0.269  22.837  0.00  0.00    +0.029 A 
ATOM     27  C   UNL     1       3.454   0.975  22.537  0.00  0.00    +0.004 A 
ATOM     28  C   UNL     1       4.267   0.986  22.678  0.00  0.00    +0.007 A 
ATOM     29  C   UNL     1       4.466   0.285  23.065  0.00  0.00    +0.035 A 
ATOM     30  S   UNL     1       3.778  -0.158  23.164  0.00  0.00    -0.089 S 
ENDBRANCH  25  26
ENDBRANCH  24  25
ENDBRANCH  21  22
ENDBRANCH  20  21
ENDBRANCH  19  20
TORSDOF 7
ENDMDL
MODEL 2
REMARK VINA RESULT:      -8.9      0.772      1.335
REMARK  Name = 
REMARK  7 active torsions:
REMARK  status: ('A' for Active; 'I' for Inactive)
REMARK    1  A    between atoms: N_6  and  C_7
REMARK    2  A    between atoms: C_7  and  C_8
REMARK    3  A    between atoms: C_19  and  C_20
REMARK    4  A    between atoms: C_20  and  C_21
REMARK    5  A    between atoms: C_21  and  C_22
REMARK    6  A    between atoms: N_24  and  C_25
REMARK    7  A    between atoms: C_25  and  C_26
REMARK                            x       y       z     vdW  Elec       q    Type
REMARK                         _______ _______ _______ _____ _____    ______ ____
ROOT
ATOM      1  C   UNL     1      -1.020   1.889  23.038  0.00  0.00    +0.090 C 
ATOM      2  N   UNL     1      -1.295   1.347  23.597  0.00  0.00    -0.271 NA
ATOM      3  C   UNL     1      -2.047   1.496  23.901  0.00  0.00    +0.083 C 
ATOM      4  C   UNL     1      -2.510   2.140  23.673  0.00  0.00    +0.035 C 
ATOM      5  C   UNL     1      -3.220   2.104  24.092  0.00  0.00    +0.074 C 
ATOM      6  N   UNL     1      -3.196   1.438  24.578  0.00  0.00    -0.262 NA
ATOM     14  C   UNL     1      -2.471   1.062  24.460  0.00  0.00    +0.151 C 
ATOM     15  C   UNL     1      -2.248   0.373  24.853  0.00  0.00    +0.257 C 
ATOM     16  O   UNL     1      -2.799   0.069  25.386  0.00  0.00    -0.272 OA
ATOM     17  N   UNL     1      -1.545  -0.054  24.785  0.00  0.00    -0.203 NA
ATOM     18  C   UNL     1      -0.892   0.105  24.306  0.00  0.00    +0.131 C 
ATOM     19  C   UNL     1      -0.781   0.727  23.777  0.00  0.00    +0.080 C 
ENDROOT
BRANCH   6   7
ATOM      7  C   UNL     1      -3.792   1.191  25.093  0.00  0.00    +0.100 C 
BRANCH   7   8
ATOM      8  C   UNL     1      -4.489   1.629  25.156  0.00  0.00    -0.006 A 
ATOM      9  C   UNL     1      -4.494   2.338  25.578  0.00  0.00    -0.003 A 
ATOM     10  C   UNL     1      -5.191   2.775  25.640  0.00  0.00    -0.000 A 
ATOM     11  C   UNL     1      -5.882   2.503  25.281  0.00  0.00    -0.000 A 
ATOM     12  C   UNL     1      -5.877   1.794  24.859  0.00  0.00    -0.000 A 
ATOM     13  C   UNL     1      -5.180   1.357  24.797  0.00  0.00    -0.003 A 
ENDBRANCH   7   8
ENDBRANCH   6   7
BRANCH  19  20
ATOM     20  C   UNL     1      -0.060   0.733  23.375  0.00  0.00    +0.027 C 
BRANCH  20  21
ATOM     21  C   UNL     1       0.464   0.102  23.459  0.00  0.00    +0.088 C 
BRANCH  21  22
ATOM     22  C   UNL     1       1.067  -0.011  22.907  0.00  0.00    +0.242 C 
ATOM     23  O   UNL     1       0.893  -0.334  22.168  0.00  0.00    -0.273 OA
ATOM     24  N   UNL     1       1.842   0.199  23.092  0.00  0.00    -0.200 NA
BRANCH  24  25
ATOM     25  C   UNL     1       2.444   0.086  22.540  0.00  0.00    +0.148 C 
BRANCH  25  26
ATOM     26  C   UNL     1       3.220   0.292  22.727  0.00  0.00    +0.029 A 
ATOM     27  C   UNL     1       3.564   1.035  22.624  0.00  0.00    +0.004 A 
ATOM     28  C   UNL     1       4.346   0.993  22.883  0.00  0.00    +0.007 A 
ATOM     29  C   UNL     1       4.485   0.224  23.147  0.00  0.00    +0.035 A 
ATOM     30  S   UNL     1       3.791  -0.210  23.050  0.00  0.00    -0.089 S 
ENDBRANCH  25  26
ENDBRANCH  24  25
ENDBRANCH  21  22
ENDBRANCH  20  21
ENDBRANCH  19  20
TORSDOF 7
ENDMDL
MODEL 3
REMARK VINA RESULT:      -8.2      3.374      4.746
REMARK  Name = 
REMARK  7 active torsions:
REMARK  status: ('A' for Active; 'I' for Inactive)
REMARK    1  A    between atoms: N_6  and  C_7
REMARK    2  A    between atoms: C_7  and  C_8
REMARK    3  A    between atoms: C_19  and  C_20
REMARK    4  A    between atoms: C_20  and  C_21
REMARK    5  A    between atoms: C_21  and  C_22
REMARK    6  A    between atoms: N_24  and  C_25
REMARK    7  A    between atoms: C_25  and  C_26
REMARK                            x       y       z     vdW  Elec       q    Type
REMARK                         _______ _______ _______ _____ _____    ______ ____
ROOT
ATOM      1  C   UNL     1      -0.765   0.695  23.585  0.00  0.00    +0.090 C 
ATOM      2  N   UNL     1      -0.706   0.973  24.359  0.00  0.00    -0.271 NA
ATOM      3  C   UNL     1      -0.705   1.793  24.446  0.00  0.00    +0.083 C 
ATOM      4  C   UNL     1      -0.759   2.318  23.811  0.00  0.00    +0.035 C 
ATOM      5  C   UNL     1      -0.741   3.085  24.112  0.00  0.00    +0.074 C 
ATOM      6  N   UNL     1      -0.675   3.036  24.933  0.00  0.00    -0.262 NA
ATOM     14  C   UNL     1      -0.653   2.237  25.140  0.00  0.00    +0.151 C 
ATOM     15  C   UNL     1      -0.590   1.970  25.917  0.00  0.00    +0.257 C 
ATOM     16  O   UNL     1      -0.549   2.558  26.496  0.00  0.00    -0.272 OA
ATOM     17  N   UNL     1      -0.563   1.194  26.194  0.00  0.00    -0.203 NA
ATOM     18  C   UNL     1      -0.592   0.492  25.761  0.00  0.00    +0.131 C 
ATOM     19  C   UNL     1      -0.655   0.394  24.945  0.00  0.00    +0.080 C 
ENDROOT
BRANCH   6   7
ATOM      7  C   UNL     1      -0.639   3.673  25.457  0.00  0.00    +0.100 C 
BRANCH   7   8
ATOM      8  C   UNL     1      -1.014   4.383  25.267  0.00  0.00    -0.006 A 
ATOM      9  C   UNL     1      -0.598   4.978  24.876  0.00  0.00    -0.003 A 
ATOM     10  C   UNL     1      -0.974   5.688  24.687  0.00  0.00    -0.000 A 
ATOM     11  C   UNL     1      -1.765   5.802  24.890  0.00  0.00    -0.000 A 
ATOM     12  C   UNL     1      -2.181   5.207  25.281  0.00  0.00    -0.000 A 
ATOM     13  C   UNL     1      -1.805   4.498  25.470  0.00  0.00    -0.003 A 
ENDBRANCH   7   8
ENDBRANCH   6   7
BRANCH  19  20
ATOM     20  C   UNL     1      -0.671  -0.387  24.678  0.00  0.00    +0.027 C 
BRANCH  20  21
ATOM     21  C   UNL     1      -0.875  -0.996  25.194  0.00  0.00    +0.088 C 
BRANCH  21  22
ATOM     22  C   UNL     1      -1.245  -1.675  24.907  0.00  0.00    +0.242 C 
ATOM     23  O   UNL     1      -0.797  -2.342  24.719  0.00  0.00    -0.273 OA
ATOM     24  N   UNL     1      -2.064  -1.688  24.807  0.00  0.00    -0.200 NA
BRANCH  24  25
ATOM     25  C   UNL     1      -2.434  -2.367  24.519  0.00  0.00    +0.148 C 
BRANCH  25  26
ATOM     26  C   UNL     1      -3.221  -2.336  24.276  0.00  0.00    +0.029 A 
ATOM     27  C   UNL     1      -3.656  -1.652  24.124  0.00  0.00    +0.004 A 
ATOM     28  C   UNL     1      -4.416  -1.877  23.896  0.00  0.00    +0.007 A 
ATOM     29  C   UNL     1      -4.451  -2.701  23.907  0.00  0.00    +0.035 A 
ATOM     30  S   UNL     1      -3.713  -2.985  24.142  0.00  0.00    -0.089 S 
ENDBRANCH  25  26
ENDBRANCH  24  25
ENDBRANCH  21  22
ENDBRANCH  20  21
ENDBRANCH  19  20
TORSDOF 7
ENDMDL
MODEL 4
REMARK VINA RESULT:      -7.7      3.632      5.003
REMARK  Name = 
REMARK  7 active torsions:
REMARK  status: ('A' for Active; 'I' for Inactive)
REMARK    1  A    between atoms: N_6  and  C_7
REMARK    2  A    between atoms: C_7  and  C_8
REMARK    3  A    between atoms: C_19  and  C_20
REMARK    4  A    between atoms: C_20  and  C_21
REMARK    5  A    between atoms: C_21  and  C_22
REMARK    6  A    between atoms: N_24  and  C_25
REMARK    7  A    between atoms: C_25  and  C_26
REMARK                            x       y       z     vdW  Elec       q    Type
REMARK                         _______ _______ _______ _____ _____    ______ ____
ROOT
ATOM      1  C   UNL     1      -3.350   1.971  23.331  0.00  0.00    +0.090 C 
ATOM      2  N   UNL     1      -3.795   1.641  23.942  0.00  0.00    -0.271 NA
ATOM      3  C   UNL     1      -3.780   0.817  23.992  0.00  0.00    +0.083 C 
ATOM      4  C   UNL     1      -3.353   0.338  23.473  0.00  0.00    +0.035 C 
ATOM      5  C   UNL     1      -3.471  -0.447  23.695  0.00  0.00    +0.074 C 
ATOM      6  N   UNL     1      -3.972  -0.454  24.351  0.00  0.00    -0.262 NA
ATOM     14  C   UNL     1      -4.162   0.327  24.535  0.00  0.00    +0.151 C 
ATOM     15  C   UNL     1      -4.654   0.540  25.161  0.00  0.00    +0.257 C 
ATOM     16  O   UNL     1      -4.956  -0.084  25.609  0.00  0.00    -0.272 OA
ATOM     17  N   UNL     1      -4.886   1.295  25.401  0.00  0.00    -0.203 NA
ATOM     18  C   UNL     1      -4.681   2.024  25.071  0.00  0.00    +0.131 C 
ATOM     19  C   UNL     1      -4.196   2.178  24.423  0.00  0.00    +0.080 C 
ENDROOT
BRANCH   6   7
ATOM      7  C   UNL     1      -4.236  -1.125  24.754  0.00  0.00    +0.100 C 
BRANCH   7   8
ATOM      8  C   UNL     1      -3.889  -1.858  24.602  0.00  0.00    -0.006 A 
ATOM      9  C   UNL     1      -4.189  -2.342  24.005  0.00  0.00    -0.003 A 
ATOM     10  C   UNL     1      -3.842  -3.074  23.855  0.00  0.00    -0.000 A 
ATOM     11  C   UNL     1      -3.195  -3.324  24.302  0.00  0.00    -0.000 A 
ATOM     12  C   UNL     1      -2.895  -2.840  24.900  0.00  0.00    -0.000 A 
ATOM     13  C   UNL     1      -3.242  -2.108  25.050  0.00  0.00    -0.003 A 
ENDBRANCH   7   8
ENDBRANCH   6   7
BRANCH  19  20
ATOM     20  C   UNL     1      -4.099   2.974  24.228  0.00  0.00    +0.027 C 
BRANCH  20  21
ATOM     21  C   UNL     1      -4.130   3.549  24.817  0.00  0.00    +0.088 C 
BRANCH  21  22
ATOM     22  C   UNL     1      -3.646   4.216  24.769  0.00  0.00    +0.242 C 
ATOM     23  O   UNL     1      -3.915   4.894  24.384  0.00  0.00    -0.273 OA
ATOM     24  N   UNL     1      -2.893   4.205  25.106  0.00  0.00    -0.200 NA
BRANCH  24  25
ATOM     25  C   UNL     1      -2.409   4.872  25.057  0.00  0.00    +0.148 C 
BRANCH  25  26
ATOM     26  C   UNL     1      -1.589   4.787  25.044  0.00  0.00    +0.029 A 
ATOM     27  C   UNL     1      -1.050   5.332  24.740  0.00  0.00    +0.004 A 
ATOM     28  C   UNL     1      -0.291   5.023  24.841  0.00  0.00    +0.007 A 
ATOM     29  C   UNL     1      -0.362   4.288  25.207  0.00  0.00    +0.035 A 
ATOM     30  S   UNL     1      -1.164   4.141  25.333  0.00  0.00    -0.089 S 
ENDBRANCH  25  26
ENDBRANCH  24  25
ENDBRANCH  21  22
ENDBRANCH  20  21
ENDBRANCH  19  20
TORSDOF 7
ENDMDL
MODEL 5
REMARK VINA RESULT:      -7.7      1.573      2.218
REMARK  Name = 
REMARK  7 active torsions:
REMARK  status: ('A' for Active; 'I' for Inactive)
REMARK    1  A    between atoms: N_6  and  C_7
REMARK    2  A    between atoms: C_7  and  C_8
REMARK    3  A    between atoms: C_19  and  C_20
REMARK    4  A    between atoms: C_20  and  C_21
REMARK    5  A    between atoms: C_21  and  C_22
REMARK    6  A    between atoms: N_24  and  C_25
REMARK    7  A    between atoms: C_25  and  C_26
REMARK                            x       y       z     vdW  Elec       q    Type
REMARK                         _______ _______ _______ _____ _____    ______ ____
ROOT
ATOM      1  C   UNL     1       0.499  -1.040  23.490  0.00  0.00    +0.090 C 
ATOM      2  N   UNL     1       0.215  -0.288  23.678  0.00  0.00    -0.271 NA
ATOM      3  C   UNL     1      -0.527  -0.266  24.038  0.00  0.00    +0.083 C 
ATOM      4  C   UNL     1      -0.972  -0.940  24.205  0.00  0.00    +0.035 C 
ATOM      5  C   UNL     1      -1.676  -0.699  24.561  0.00  0.00    +0.074 C 
ATOM      6  N   UNL     1      -1.667   0.124  24.614  0.00  0.00    -0.262 NA
ATOM     14  C   UNL     1      -0.957   0.392  24.290  0.00  0.00    +0.151 C 
ATOM     15  C   UNL     1      -0.750   1.189  24.246  0.00  0.00    +0.257 C 
ATOM     16  O   UNL     1      -1.304   1.721  24.549  0.00  0.00    -0.272 OA
ATOM     17  N   UNL     1      -0.063   1.526  23.938  0.00  0.00    -0.203 NA
ATOM     18  C   UNL     1       0.588   1.148  23.598  0.00  0.00    +0.131 C 
ATOM     19  C   UNL     1       0.711   0.341  23.483  0.00  0.00    +0.080 C 
ENDROOT
BRANCH   6   7
ATOM      7  C   UNL     1      -2.263   0.597  24.933  0.00  0.00    +0.100 C 
BRANCH   7   8
ATOM      8  C   UNL     1      -3.044   0.330  24.934  0.00  0.00    -0.006 A 
ATOM      9  C   UNL     1      -3.306  -0.182  25.525  0.00  0.00    -0.003 A 
ATOM     10  C   UNL     1      -4.086  -0.448  25.524  0.00  0.00    -0.000 A 
ATOM     11  C   UNL     1      -4.605  -0.201  24.932  0.00  0.00    -0.000 A 
ATOM     12  C   UNL     1      -4.344   0.311  24.340  0.00  0.00    -0.000 A 
ATOM     13  C   UNL     1      -3.563   0.576  24.341  0.00  0.00    -0.003 A 
ENDBRANCH   7   8
ENDBRANCH   6   7
BRANCH  19  20
ATOM     20  C   UNL     1       1.426   0.135  23.125  0.00  0.00    +0.027 C 
BRANCH  20  21
ATOM     21  C   UNL     1       2.020   0.699  23.034  0.00  0.00    +0.088 C 
BRANCH  21  22
ATOM     22  C   UNL     1       2.750   0.483  22.715  0.00  0.00    +0.242 C 
ATOM     23  O   UNL     1       2.803   0.260  21.923  0.00  0.00    -0.273 OA
ATOM     24  N   UNL     1       3.425   0.490  23.188  0.00  0.00    -0.200 NA
BRANCH  24  25
ATOM     25  C   UNL     1       4.155   0.274  22.869  0.00  0.00    +0.148 C 
BRANCH  25  26
ATOM     26  C   UNL     1       4.793   0.119  23.366  0.00  0.00    +0.029 A 
ATOM     27  C   UNL     1       5.346   0.670  23.635  0.00  0.00    +0.004 A 
ATOM     28  C   UNL     1       5.886   0.276  24.118  0.00  0.00    +0.007 A 
ATOM     29  C   UNL     1       5.667  -0.519  24.148  0.00  0.00    +0.035 A 
ATOM     30  S   UNL     1       4.992  -0.617  23.684  0.00  0.00    -0.089 S 
ENDBRANCH  25  26
ENDBRANCH  24  25
ENDBRANCH  21  22
ENDBRANCH  20  21
ENDBRANCH  19  20
TORSDOF 7
ENDMDL
MODEL 6
REMARK VINA RESULT:      -7.1      3.292      4.606
REMARK  Name = 
REMARK  7 active torsions:
REMARK  status: ('A' for Active; 'I' for Inactive)
REMARK    1  A    between atoms: N_6  and  C_7
REMARK    2  A    between atoms: C_7  and  C_8
REMARK    3  A    between atoms: C_19  and  C_20
REMARK    4  A    between atoms: C_20  and  C_21
REMARK    5  A    between atoms: C_21  and  C_22
REMARK    6  A    between atoms: N_24  and  C_25
REMARK    7  A    between atoms: C_25  and  C_26
REMARK                            x       y       z     vdW  Elec       q    Type
REMARK                         _______ _______ _______ _____ _____    ______ ____
ROOT
ATOM      1  C   UNL     1      -0.097   0.012  23.908  0.00  0.00    +0.090 C 
ATOM      2  N   UNL     1      -0.658  -0.037  24.510  0.00  0.00    -0.271 NA
ATOM      3  C   UNL     1      -1.154  -0.696  24.486  0.00  0.00    +0.083 C 
ATOM      4  C   UNL     1      -1.107  -1.279  23.905  0.00  0.00    +0.035 C 
ATOM      5  C   UNL     1      -1.687  -1.844  24.063  0.00  0.00    +0.074 C 
ATOM      6  N   UNL     1      -2.093  -1.610  24.742  0.00  0.00    -0.262 NA
ATOM     14  C   UNL     1      -1.764  -0.900  25.004  0.00  0.00    +0.151 C 
ATOM     15  C   UNL     1      -2.027  -0.497  25.672  0.00  0.00    +0.257 C 
ATOM     16  O   UNL     1      -2.654  -0.847  26.079  0.00  0.00    -0.272 OA
ATOM     17  N   UNL     1      -1.747   0.211  25.990  0.00  0.00    -0.203 NA
ATOM     18  C   UNL     1      -1.134   0.691  25.716  0.00  0.00    +0.131 C 
ATOM     19  C   UNL     1      -0.649   0.580  25.058  0.00  0.00    +0.080 C 
ENDROOT
BRANCH   6   7
ATOM      7  C   UNL     1      -2.718  -2.015  25.097  0.00  0.00    +0.100 C 
BRANCH   7   8
ATOM      8  C   UNL     1      -3.294  -2.375  24.628  0.00  0.00    -0.006 A 
ATOM      9  C   UNL     1      -3.292  -3.194  24.529  0.00  0.00    -0.003 A 
ATOM     10  C   UNL     1      -3.868  -3.554  24.061  0.00  0.00    -0.000 A 
ATOM     11  C   UNL     1      -4.445  -3.094  23.692  0.00  0.00    -0.000 A 
ATOM     12  C   UNL     1      -4.447  -2.275  23.791  0.00  0.00    -0.000 A 
ATOM     13  C   UNL     1      -3.871  -1.916  24.259  0.00  0.00    -0.003 A 
ENDBRANCH   7   8
ENDBRANCH   6   7
BRANCH  19  20
ATOM     20  C   UNL     1      -0.080   1.164  24.930  0.00  0.00    +0.027 C 
BRANCH  20  21
ATOM     21  C   UNL     1      -0.055   1.830  25.414  0.00  0.00    +0.088 C 
BRANCH  21  22
ATOM     22  C   UNL     1       0.053   2.578  25.083  0.00  0.00    +0.242 C 
ATOM     23  O   UNL     1       0.707   2.725  24.602  0.00  0.00    -0.273 OA
ATOM     24  N   UNL     1      -0.492   3.179  25.233  0.00  0.00    -0.200 NA
BRANCH  24  25
ATOM     25  C   UNL     1      -0.384   3.927  24.902  0.00  0.00    +0.148 C 
BRANCH  25  26
ATOM     26  C   UNL     1      -0.958   4.510  25.003  0.00  0.00    +0.029 A 
ATOM     27  C   UNL     1      -0.872   5.312  24.828  0.00  0.00    +0.004 A 
ATOM     28  C   UNL     1      -1.580   5.691  25.015  0.00  0.00    +0.007 A 
ATOM     29  C   UNL     1      -2.103   5.125  25.306  0.00  0.00    +0.035 A 
ATOM     30  S   UNL     1      -1.720   4.394  25.299  0.00  0.00    -0.089 S 
ENDBRANCH  25  26
ENDBRANCH  24  25
ENDBRANCH  21  22
ENDBRANCH  20  21
ENDBRANCH  19  20
TORSDOF 7
ENDMDL
MODEL 7
REMARK VINA RESULT:      -7.0      3.491      4.543
REMARK  Name = 
REMARK  7 active torsions:
REMARK  status: ('A' for Active; 'I' for Inactive)
REMARK    1  A    between atoms: N_6  and  C_7
REMARK    2  A    between atoms: C_7  and  C_8
REMARK    3  A    between atoms: C_19  and  C_20
REMARK    4  A    between atoms: C_20  and  C_21
REMARK    5  A    between atoms: C_21  and  C_22
REMARK    6  A    between atoms: N_24  and  C_25
REMARK    7  A    between atoms: C_25  and  C_26
REMARK                            x       y       z     vdW  Elec       q    Type
REMARK                         _______ _______ _______ _____ _____    ______ ____
ROOT
ATOM      1  C   UNL     1      -3.233   0.941  23.231  0.00  0.00    +0.090 C 
ATOM      2  N   UNL     1      -3.506   1.326  23.908  0.00  0.00    -0.271 NA
ATOM      3  C   UNL     1      -3.168   2.063  24.061  0.00  0.00    +0.083 C 
ATOM      4  C   UNL     1      -2.592   2.408  23.581  0.00  0.00    +0.035 C 
ATOM      5  C   UNL     1      -2.390   3.137  23.909  0.00  0.00    +0.074 C 
ATOM      6  N   UNL     1      -2.841   3.243  24.592  0.00  0.00    -0.262 NA
ATOM     14  C   UNL     1      -3.321   2.579  24.686  0.00  0.00    +0.151 C 
ATOM     15  C   UNL     1      -3.851   2.486  25.312  0.00  0.00    +0.257 C 
ATOM     16  O   UNL     1      -3.877   3.108  25.854  0.00  0.00    -0.272 OA
ATOM     17  N   UNL     1      -4.358   1.854  25.467  0.00  0.00    -0.203 NA
ATOM     18  C   UNL     1      -4.460   1.159  25.035  0.00  0.00    +0.131 C 
ATOM     19  C   UNL     1      -4.081   0.924  24.341  0.00  0.00    +0.080 C 
ENDROOT
BRANCH   6   7
ATOM      7  C   UNL     1      -2.816   3.898  25.093  0.00  0.00    +0.100 C 
BRANCH   7   8
ATOM      8  C   UNL     1      -2.163   4.404  25.078  0.00  0.00    -0.006 A 
ATOM      9  C   UNL     1      -2.254   5.188  24.841  0.00  0.00    -0.003 A 
ATOM     10  C   UNL     1      -1.601   5.692  24.826  0.00  0.00    -0.000 A 
ATOM     11  C   UNL     1      -0.858   5.411  25.048  0.00  0.00    -0.000 A 
ATOM     12  C   UNL     1      -0.767   4.626  25.285  0.00  0.00    -0.000 A 
ATOM     13  C   UNL     1      -1.420   4.122  25.300  0.00  0.00    -0.003 A 
ENDBRANCH   7   8
ENDBRANCH   6   7
BRANCH  19  20
ATOM     20  C   UNL     1      -4.307   0.189  24.041  0.00  0.00    +0.027 C 
BRANCH  20  21
ATOM     21  C   UNL     1      -4.486  -0.430  24.554  0.00  0.00    +0.088 C 
BRANCH  21  22
ATOM     22  C   UNL     1      -4.209  -1.191  24.397  0.00  0.00    +0.242 C 
ATOM     23  O   UNL     1      -4.644  -1.696  23.912  0.00  0.00    -0.273 OA
ATOM     24  N   UNL     1      -3.497  -1.446  24.725  0.00  0.00    -0.200 NA
BRANCH  24  25
ATOM     25  C   UNL     1      -3.219  -2.208  24.568  0.00  0.00    +0.148 C 
BRANCH  25  26
ATOM     26  C   UNL     1      -2.412  -2.369  24.610  0.00  0.00    +0.029 A 
ATOM     27  C   UNL     1      -1.973  -2.797  24.058  0.00  0.00    +0.004 A 
ATOM     28  C   UNL     1      -1.190  -2.824  24.319  0.00  0.00    +0.007 A 
ATOM     29  C   UNL     1      -1.146  -2.413  25.033  0.00  0.00    +0.035 A 
ATOM     30  S   UNL     1      -1.901  -2.132  25.213  0.00  0.00    -0.089 S 
ENDBRANCH  25  26
ENDBRANCH  24  25
ENDBRANCH  21  22
ENDBRANCH  20  21
ENDBRANCH  19  20
TORSDOF 7
ENDMDL
MODEL 8
REMARK VINA RESULT:      -6.8     15.336     16.599
REMARK  Name = 
REMARK  7 active torsions:
REMARK  status: ('A' for Active; 'I' for Inactive)
REMARK    1  A    between atoms: N_6  and  C_7
REMARK    2  A    between atoms: C_7  and  C_8
REMARK    3  A    between atoms: C_19  and  C_20
REMARK    4  A    between atoms: C_20  and  C_21
REMARK    5  A    between atoms: C_21  and  C_22
REMARK    6  A    between atoms: N_24  and  C_25
REMARK    7  A    between atoms: C_25  and  C_26
REMARK                            x       y       z     vdW  Elec       q    Type
REMARK                         _______ _______ _______ _____ _____    ______ ____
ROOT
ATOM      1  C   UNL     1      -3.673 -10.781  14.048  0.00  0.00    +0.090 C 
ATOM      2  N   UNL     1      -4.380 -10.457  13.774  0.00  0.00    -0.271 NA
ATOM      3  C   UNL     1      -4.411 -10.294  12.965  0.00  0.00    +0.083 C 
ATOM      4  C   UNL     1      -3.784 -10.439  12.449  0.00  0.00    +0.035 C 
ATOM      5  C   UNL     1      -4.018 -10.207  11.693  0.00  0.00    +0.074 C 
ATOM      6  N   UNL     1      -4.790  -9.919  11.742  0.00  0.00    -0.262 NA
ATOM     14  C   UNL     1      -5.033  -9.973  12.528  0.00  0.00    +0.151 C 
ATOM     15  C   UNL     1      -5.777  -9.736  12.791  0.00  0.00    +0.257 C 
ATOM     16  O   UNL     1      -6.282  -9.433  12.213  0.00  0.00    -0.272 OA
ATOM     17  N   UNL     1      -6.084  -9.761  13.556  0.00  0.00    -0.203 NA
ATOM     18  C   UNL     1      -5.722 -10.030  14.248  0.00  0.00    +0.131 C 
ATOM     19  C   UNL     1      -4.965 -10.339  14.344  0.00  0.00    +0.080 C 
ENDROOT
BRANCH   6   7
ATOM      7  C   UNL     1      -5.240  -9.629  11.114  0.00  0.00    +0.100 C 
BRANCH   7   8
ATOM      8  C   UNL     1      -4.894  -9.526  10.372  0.00  0.00    -0.006 A 
ATOM      9  C   UNL     1      -4.929 -10.131   9.812  0.00  0.00    -0.003 A 
ATOM     10  C   UNL     1      -4.583 -10.027   9.071  0.00  0.00    -0.000 A 
ATOM     11  C   UNL     1      -4.201  -9.318   8.890  0.00  0.00    -0.000 A 
ATOM     12  C   UNL     1      -4.166  -8.713   9.450  0.00  0.00    -0.000 A 
ATOM     13  C   UNL     1      -4.512  -8.817  10.191  0.00  0.00    -0.003 A 
ENDBRANCH   7   8
ENDBRANCH   6   7
BRANCH  19  20
ATOM     20  C   UNL     1      -4.763 -10.561  15.113  0.00  0.00    +0.027 C 
BRANCH  20  21
ATOM     21  C   UNL     1      -5.186 -10.261  15.754  0.00  0.00    +0.088 C 
BRANCH  21  22
ATOM     22  C   UNL     1      -5.007 -10.509  16.520  0.00  0.00    +0.242 C 
ATOM     23  O   UNL     1      -4.244 -10.765  16.703  0.00  0.00    -0.273 OA
ATOM     24  N   UNL     1      -5.590 -10.502  17.104  0.00  0.00    -0.200 NA
BRANCH  24  25
ATOM     25  C   UNL     1      -5.410 -10.750  17.870  0.00  0.00    +0.148 C 
BRANCH  25  26
ATOM     26  C   UNL     1      -5.990 -10.733  18.456  0.00  0.00    +0.029 A 
ATOM     27  C   UNL     1      -6.805 -10.771  18.334  0.00  0.00    +0.004 A 
ATOM     28  C   UNL     1      -7.176 -10.736  19.070  0.00  0.00    +0.007 A 
ATOM     29  C   UNL     1      -6.589 -10.677  19.647  0.00  0.00    +0.035 A 
ATOM     30  S   UNL     1      -5.857 -10.675  19.268  0.00  0.00    -0.089 S 
ENDBRANCH  25  26
ENDBRANCH  24  25
ENDBRANCH  21  22
ENDBRANCH  20  21
ENDBRANCH  19  20
TORSDOF 7
ENDMDL
MODEL 9
REMARK VINA RESULT:      -6.3     16.575     17.217
REMARK  Name = 
REMARK  7 active torsions:
REMARK  status: ('A' for Active; 'I' for Inactive)
REMARK    1  A    between atoms: N_6  and  C_7
REMARK    2  A    between atoms: C_7  and  C_8
REMARK    3  A    between atoms: C_19  and  C_20
REMARK    4  A    between atoms: C_20  and  C_21
REMARK    5  A    between atoms: C_21  and  C_22
REMARK    6  A    between atoms: N_24  and  C_25
REMARK    7  A    between atoms: C_25  and  C_26
REMARK                            x       y       z     vdW  Elec       q    Type
REMARK                         _______ _______ _______ _____ _____    ______ ____
ROOT
ATOM      1  C   UNL     1      -3.570  -9.268  10.520  0.00  0.00    +0.090 C 
ATOM      2  N   UNL     1      -4.272  -9.535  10.861  0.00  0.00    -0.271 NA
ATOM      3  C   UNL     1      -4.965  -9.332  10.463  0.00  0.00    +0.083 C 
ATOM      4  C   UNL     1      -4.976  -8.889   9.767  0.00  0.00    +0.035 C 
ATOM      5  C   UNL     1      -5.762  -8.798   9.535  0.00  0.00    +0.074 C 
ATOM      6  N   UNL     1      -6.238  -9.184  10.087  0.00  0.00    -0.262 NA
ATOM     14  C   UNL     1      -5.745  -9.514  10.661  0.00  0.00    +0.151 C 
ATOM     15  C   UNL     1      -6.024  -9.945  11.306  0.00  0.00    +0.257 C 
ATOM     16  O   UNL     1      -6.843 -10.032  11.352  0.00  0.00    -0.272 OA
ATOM     17  N   UNL     1      -5.593 -10.300  11.913  0.00  0.00    -0.203 NA
ATOM     18  C   UNL     1      -4.775 -10.312  12.024  0.00  0.00    +0.131 C 
ATOM     19  C   UNL     1      -4.188  -9.972  11.557  0.00  0.00    +0.080 C 
ENDROOT
BRANCH   6   7
ATOM      7  C   UNL     1      -7.061  -9.232  10.070  0.00  0.00    +0.100 C 
BRANCH   7   8
ATOM      8  C   UNL     1      -7.478  -8.926   9.426  0.00  0.00    -0.006 A 
ATOM      9  C   UNL     1      -7.716  -8.137   9.425  0.00  0.00    -0.003 A 
ATOM     10  C   UNL     1      -8.132  -7.833   8.782  0.00  0.00    -0.000 A 
ATOM     11  C   UNL     1      -8.310  -8.318   8.139  0.00  0.00    -0.000 A 
ATOM     12  C   UNL     1      -8.071  -9.108   8.139  0.00  0.00    -0.000 A 
ATOM     13  C   UNL     1      -7.655  -9.412   8.783  0.00  0.00    -0.003 A 
ENDBRANCH   7   8
ENDBRANCH   6   7
BRANCH  19  20
ATOM     20  C   UNL     1      -3.412 -10.082  11.817  0.00  0.00    +0.027 C 
BRANCH  20  21
ATOM     21  C   UNL     1      -3.266 -10.496  12.515  0.00  0.00    +0.088 C 
BRANCH  21  22
ATOM     22  C   UNL     1      -2.519 -10.468  12.864  0.00  0.00    +0.242 C 
ATOM     23  O   UNL     1      -1.844 -10.445  12.390  0.00  0.00    -0.273 OA
ATOM     24  N   UNL     1      -2.446 -10.464  13.685  0.00  0.00    -0.200 NA
BRANCH  24  25
ATOM     25  C   UNL     1      -1.699 -10.436  14.033  0.00  0.00    +0.148 C 
BRANCH  25  26
ATOM     26  C   UNL     1      -1.624 -10.469  14.854  0.00  0.00    +0.029 A 
ATOM     27  C   UNL     1      -2.222 -10.661  15.388  0.00  0.00    +0.004 A 
ATOM     28  C   UNL     1      -1.906 -10.627  16.149  0.00  0.00    +0.007 A 
ATOM     29  C   UNL     1      -1.111 -10.414  16.085  0.00  0.00    +0.035 A 
ATOM     30  S   UNL     1      -0.936 -10.317  15.284  0.00  0.00    -0.089 S 
ENDBRANCH  25  26
ENDBRANCH  24  25
ENDBRANCH  21  22
ENDBRANCH  20  21
ENDBRANCH  19  20
TORSDOF 7
ENDMDL
MODEL 10
REMARK VINA RESULT:      -5.9     15.712     17.136
REMARK  Name = 
REMARK  7 active torsions:
REMARK  status: ('A' for Active; 'I' for Inactive)
REMARK    1  A    between atoms: N_6  and  C_7
REMARK    2  A    between atoms: C_7  and  C_8
REMARK    3  A    between atoms: C_19  and  C_20
REMARK    4  A    between atoms: C_20  and  C_21
REMARK    5  A    between atoms: C_21  and  C_22
REMARK    6  A    between atoms: N_24  and  C_25
REMARK    7  A    between atoms: C_25  and  C_26
REMARK                            x       y       z     vdW  Elec       q    Type
REMARK                         _______ _______ _______ _____ _____    ______ ____
ROOT
ATOM      1  C   UNL     1      -5.649 -10.410  14.442  0.00  0.00    +0.090 C 
ATOM      2  N   UNL     1      -6.124 -10.126  13.831  0.00  0.00    -0.271 NA
ATOM      3  C   UNL     1      -5.748 -10.021  13.104  0.00  0.00    +0.083 C 
ATOM      4  C   UNL     1      -4.949 -10.183  12.978  0.00  0.00    +0.035 C 
ATOM      5  C   UNL     1      -4.775 -10.011  12.190  0.00  0.00    +0.074 C 
ATOM      6  N   UNL     1      -5.466  -9.742  11.829  0.00  0.00    -0.262 NA
ATOM     14  C   UNL     1      -6.068  -9.748  12.394  0.00  0.00    +0.151 C 
ATOM     15  C   UNL     1      -6.842  -9.514  12.235  0.00  0.00    +0.257 C 
ATOM     16  O   UNL     1      -6.990  -9.266  11.462  0.00  0.00    -0.272 OA
ATOM     17  N   UNL     1      -7.489  -9.494  12.747  0.00  0.00    -0.203 NA
ATOM     18  C   UNL     1      -7.520  -9.704  13.545  0.00  0.00    +0.131 C 
ATOM     19  C   UNL     1      -6.913  -9.985  14.026  0.00  0.00    +0.080 C 
ENDROOT
BRANCH   6   7
ATOM      7  C   UNL     1      -5.543  -9.508  11.041  0.00  0.00    +0.100 C 
BRANCH   7   8
ATOM      8  C   UNL     1      -4.879  -9.488  10.551  0.00  0.00    -0.006 A 
ATOM      9  C   UNL     1      -4.661 -10.158  10.122  0.00  0.00    -0.003 A 
ATOM     10  C   UNL     1      -3.998 -10.136   9.633  0.00  0.00    -0.000 A 
ATOM     11  C   UNL     1      -3.552  -9.445   9.573  0.00  0.00    -0.000 A 
ATOM     12  C   UNL     1      -3.770  -8.775  10.002  0.00  0.00    -0.000 A 
ATOM     13  C   UNL     1      -4.433  -8.796  10.491  0.00  0.00    -0.003 A 
ENDBRANCH   7   8
ENDBRANCH   6   7
BRANCH  19  20
ATOM     20  C   UNL     1      -7.121 -10.147  14.808  0.00  0.00    +0.027 C 
BRANCH  20  21
ATOM     21  C   UNL     1      -7.904 -10.063  15.053  0.00  0.00    +0.088 C 
BRANCH  21  22
ATOM     22  C   UNL     1      -8.088 -10.066  15.857  0.00  0.00    +0.242 C 
ATOM     23  O   UNL     1      -7.694 -10.580  16.368  0.00  0.00    -0.273 OA
ATOM     24  N   UNL     1      -8.666  -9.556  16.150  0.00  0.00    -0.200 NA
BRANCH  24  25
ATOM     25  C   UNL     1      -8.850  -9.558  16.955  0.00  0.00    +0.148 C 
BRANCH  25  26
ATOM     26  C   UNL     1      -9.455  -9.078  17.241  0.00  0.00    +0.029 A 
ATOM     27  C   UNL     1      -9.501  -8.257  17.165  0.00  0.00    +0.004 A 
ATOM     28  C   UNL     1     -10.196  -8.005  17.531  0.00  0.00    +0.007 A 
ATOM     29  C   UNL     1     -10.579  -8.670  17.835  0.00  0.00    +0.035 A 
ATOM     30  S   UNL     1     -10.122  -9.333  17.656  0.00  0.00    -0.089 S 
ENDBRANCH  25  26
ENDBRANCH  24  25
ENDBRANCH  21  22
ENDBRANCH  20  21
ENDBRANCH  19  20
TORSDOF 7
ENDMDL
