MODEL 1
REMARK VINA RESULT:     -13.5      0.000      0.000
REMARK  Name = 
REMARK  3 active torsions:
REMARK  status: ('A' for Active; 'I' for Inactive)
REMARK    1  A    between atoms: C_7  and  C_9
REMARK    2  A    between atoms: N_12  and  C_13
REMARK    3  A    between atoms: C_13  and  C_14
REMARK                            x       y       z     vdW  Elec       q    Type
REMARK                         _______ _______ _______ _____ _____    ______ ____
ROOT
ATOM      9  C   UNL     1      -4.492   1.055  24.843  0.00  0.00    +0.076 C 
ATOM     10  C   UNL     1      -5.190   1.360  25.158  0.00  0.00    +0.026 C 
ATOM     11  C   UNL     1      -5.179   2.179  25.060  0.00  0.00    +0.073 C 
ATOM     12  N   UNL     1      -4.472   2.380  24.684  0.00  0.00    -0.269 NA
ATOM     22  C   UNL     1      -4.048   1.685  24.550  0.00  0.00    +0.080 C 
ENDROOT
BRANCH   9   7
ATOM      1  C   UNL     1      -3.699  -3.101  23.989  0.00  0.00    +0.031 C 
ATOM      2  C   UNL     1      -3.727  -2.378  24.384  0.00  0.00    -0.020 A 
ATOM      3  C   UNL     1      -4.073  -1.724  24.021  0.00  0.00    +0.016 A 
ATOM      4  C   UNL     1      -4.102  -1.000  24.416  0.00  0.00    +0.100 A 
ATOM      5  C   UNL     1      -3.783  -0.931  25.174  0.00  0.00    +0.100 A 
ATOM      6  N   UNL     1      -3.890  -0.153  25.426  0.00  0.00    -0.229 NA
ATOM      7  C   UNL     1      -4.275   0.259  24.824  0.00  0.00    +0.140 A 
ATOM      8  N   UNL     1      -4.406  -0.265  24.201  0.00  0.00    -0.229 NA
ATOM     23  C   UNL     1      -3.436  -1.586  25.537  0.00  0.00    +0.020 A 
ATOM     24  C   UNL     1      -3.408  -2.309  25.141  0.00  0.00    -0.003 A 
ENDBRANCH   9   7
BRANCH  12  13
ATOM     13  C   UNL     1      -4.232   3.142  24.479  0.00  0.00    +0.099 C 
BRANCH  13  14
ATOM     14  C   UNL     1      -3.577   3.483  24.849  0.00  0.00    -0.004 A 
ATOM     15  C   UNL     1      -3.651   3.803  25.606  0.00  0.00    +0.029 A 
ATOM     16  C   UNL     1      -2.997   4.143  25.975  0.00  0.00    +0.167 A 
ATOM     17  F   UNL     1      -3.071   4.464  26.732  0.00  0.00    -0.202 F 
ATOM     18  C   UNL     1      -2.269   4.164  25.588  0.00  0.00    +0.167 A 
ATOM     19  F   UNL     1      -1.615   4.505  25.957  0.00  0.00    -0.202 F 
ATOM     20  C   UNL     1      -2.195   3.844  24.831  0.00  0.00    +0.032 A 
ATOM     21  C   UNL     1      -2.849   3.503  24.461  0.00  0.00    -0.000 A 
ENDBRANCH  13  14
ENDBRANCH  12  13
TORSDOF 3
ENDMDL
MODEL 2
REMARK VINA RESULT:     -13.0      1.776      2.461
REMARK  Name = 
REMARK  3 active torsions:
REMARK  status: ('A' for Active; 'I' for Inactive)
REMARK    1  A    between atoms: C_7  and  C_9
REMARK    2  A    between atoms: N_12  and  C_13
REMARK    3  A    between atoms: C_13  and  C_14
REMARK                            x       y       z     vdW  Elec       q    Type
REMARK                         _______ _______ _______ _____ _____    ______ ____
ROOT
ATOM      9  C   UNL     1      -1.639   0.871  24.759  0.00  0.00    +0.076 C 
ATOM     10  C   UNL     1      -0.986   1.054  24.289  0.00  0.00    +0.026 C 
ATOM     11  C   UNL     1      -0.611   1.711  24.617  0.00  0.00    +0.073 C 
ATOM     12  N   UNL     1      -1.032   1.935  25.290  0.00  0.00    -0.269 NA
ATOM     22  C   UNL     1      -1.668   1.416  25.377  0.00  0.00    +0.080 C 
ENDROOT
BRANCH   9   7
ATOM      1  C   UNL     1      -3.797  -2.846  24.362  0.00  0.00    +0.031 C 
ATOM      2  C   UNL     1      -3.622  -2.041  24.345  0.00  0.00    -0.020 A 
ATOM      3  C   UNL     1      -2.878  -1.776  24.582  0.00  0.00    +0.016 A 
ATOM      4  C   UNL     1      -2.702  -0.970  24.564  0.00  0.00    +0.100 A 
ATOM      5  C   UNL     1      -3.271  -0.429  24.310  0.00  0.00    +0.100 A 
ATOM      6  N   UNL     1      -2.942   0.326  24.352  0.00  0.00    -0.229 NA
ATOM      7  C   UNL     1      -2.170   0.252  24.632  0.00  0.00    +0.140 A 
ATOM      8  N   UNL     1      -2.022  -0.548  24.763  0.00  0.00    -0.229 NA
ATOM     23  C   UNL     1      -4.016  -0.695  24.072  0.00  0.00    +0.020 A 
ATOM     24  C   UNL     1      -4.191  -1.501  24.090  0.00  0.00    -0.003 A 
ENDBRANCH   9   7
BRANCH  12  13
ATOM     13  C   UNL     1      -0.851   2.567  25.788  0.00  0.00    +0.099 C 
BRANCH  13  14
ATOM     14  C   UNL     1      -1.105   3.329  25.599  0.00  0.00    -0.004 A 
ATOM     15  C   UNL     1      -0.611   3.835  25.173  0.00  0.00    +0.029 A 
ATOM     16  C   UNL     1      -0.866   4.596  24.984  0.00  0.00    +0.167 A 
ATOM     17  F   UNL     1      -0.372   5.103  24.559  0.00  0.00    -0.202 F 
ATOM     18  C   UNL     1      -1.614   4.852  25.220  0.00  0.00    +0.167 A 
ATOM     19  F   UNL     1      -1.868   5.613  25.030  0.00  0.00    -0.202 F 
ATOM     20  C   UNL     1      -2.108   4.346  25.645  0.00  0.00    +0.032 A 
ATOM     21  C   UNL     1      -1.854   3.584  25.834  0.00  0.00    -0.000 A 
ENDBRANCH  13  14
ENDBRANCH  12  13
TORSDOF 3
ENDMDL
MODEL 3
REMARK VINA RESULT:     -13.0      2.470      5.320
REMARK  Name = 
REMARK  3 active torsions:
REMARK  status: ('A' for Active; 'I' for Inactive)
REMARK    1  A    between atoms: C_7  and  C_9
REMARK    2  A    between atoms: N_12  and  C_13
REMARK    3  A    between atoms: C_13  and  C_14
REMARK                            x       y       z     vdW  Elec       q    Type
REMARK                         _______ _______ _______ _____ _____    ______ ____
ROOT
ATOM      9  C   UNL     1      -3.167   1.650  24.330  0.00  0.00    +0.076 C 
ATOM     10  C   UNL     1      -3.150   1.292  23.587  0.00  0.00    +0.026 C 
ATOM     11  C   UNL     1      -3.603   0.604  23.624  0.00  0.00    +0.073 C 
ATOM     12  N   UNL     1      -3.901   0.536  24.390  0.00  0.00    -0.269 NA
ATOM     22  C   UNL     1      -3.631   1.183  24.827  0.00  0.00    +0.080 C 
ENDROOT
BRANCH   9   7
ATOM      1  C   UNL     1      -0.548   5.019  24.981  0.00  0.00    +0.031 C 
ATOM      2  C   UNL     1      -1.210   4.529  25.012  0.00  0.00    -0.020 A 
ATOM      3  C   UNL     1      -1.206   3.804  24.619  0.00  0.00    +0.016 A 
ATOM      4  C   UNL     1      -1.868   3.313  24.649  0.00  0.00    +0.100 A 
ATOM      5  C   UNL     1      -2.536   3.548  25.074  0.00  0.00    +0.100 A 
ATOM      6  N   UNL     1      -3.103   2.953  25.007  0.00  0.00    -0.229 NA
ATOM      7  C   UNL     1      -2.787   2.351  24.540  0.00  0.00    +0.140 A 
ATOM      8  N   UNL     1      -2.024   2.574  24.319  0.00  0.00    -0.229 NA
ATOM     23  C   UNL     1      -2.540   4.273  25.469  0.00  0.00    +0.020 A 
ATOM     24  C   UNL     1      -1.877   4.763  25.437  0.00  0.00    -0.003 A 
ENDBRANCH   9   7
BRANCH  12  13
ATOM     13  C   UNL     1      -4.383  -0.071  24.672  0.00  0.00    +0.099 C 
BRANCH  13  14
ATOM     14  C   UNL     1      -4.075  -0.831  24.771  0.00  0.00    -0.004 A 
ATOM     15  C   UNL     1      -4.186  -1.401  24.184  0.00  0.00    +0.029 A 
ATOM     16  C   UNL     1      -3.878  -2.159  24.285  0.00  0.00    +0.167 A 
ATOM     17  F   UNL     1      -3.988  -2.730  23.698  0.00  0.00    -0.202 F 
ATOM     18  C   UNL     1      -3.460  -2.349  24.970  0.00  0.00    +0.167 A 
ATOM     19  F   UNL     1      -3.153  -3.108  25.070  0.00  0.00    -0.202 F 
ATOM     20  C   UNL     1      -3.350  -1.779  25.557  0.00  0.00    +0.032 A 
ATOM     21  C   UNL     1      -3.658  -1.019  25.457  0.00  0.00    -0.000 A 
ENDBRANCH  13  14
ENDBRANCH  12  13
TORSDOF 3
ENDMDL
