MODEL 1
REMARK VINA RESULT:     -10.3      0.000      0.000
REMARK  Name = 
REMARK  1 active torsions:
REMARK  status: ('A' for Active; 'I' for Inactive)
REMARK    1  A    between atoms: N_6  and  C_12
REMARK                            x       y       z     vdW  Elec       q    Type
REMARK                         _______ _______ _______ _____ _____    ______ ____
ROOT
ATOM      1  C   UNL     1      -5.518   3.895  25.510  0.00  0.00    +0.117 C 
ATOM      2  N   UNL     1      -5.090   3.222  25.296  0.00  0.00    -0.261 N 
ATOM      3  C   UNL     1      -5.314   2.440  25.437  0.00  0.00    +0.116 C 
ATOM      4  C   UNL     1      -4.727   1.948  25.132  0.00  0.00    +0.113 C 
ATOM      5  C   UNL     1      -4.650   1.127  25.111  0.00  0.00    +0.094 C 
ATOM      6  N   UNL     1      -3.987   0.783  24.762  0.00  0.00    -0.271 NA
ATOM      7  C   UNL     1      -3.400   1.261  24.433  0.00  0.00    +0.094 C 
ATOM      8  C   UNL     1      -3.476   2.082  24.453  0.00  0.00    +0.112 C 
ATOM      9  N   UNL     1      -4.140   2.426  24.803  0.00  0.00    -0.261 N 
ATOM     10  C   UNL     1      -4.364   3.213  24.905  0.00  0.00    +0.307 C 
ATOM     11  O   UNL     1      -3.938   3.875  24.658  0.00  0.00    -0.252 OA
ENDROOT
BRANCH   6  12
ATOM     12  C   UNL     1      -3.910  -0.038  24.741  0.00  0.00    +0.061 C 
ATOM     13  C   UNL     1      -4.142  -0.457  24.069  0.00  0.00    +0.038 C 
ATOM     14  C   UNL     1      -4.065  -1.277  24.047  0.00  0.00    +0.095 C 
ATOM     15  N   UNL     1      -3.756  -1.680  24.698  0.00  0.00    -0.279 N 
ATOM     16  C   UNL     1      -3.524  -1.262  25.370  0.00  0.00    +0.095 C 
ATOM     17  C   UNL     1      -3.601  -0.440  25.391  0.00  0.00    +0.038 C 
ATOM     18  C   UNL     1      -3.680  -2.501  24.676  0.00  0.00    +0.226 C 
ATOM     19  C   UNL     1      -3.912  -2.920  24.004  0.00  0.00    +0.095 C 
ATOM     20  O   UNL     1      -3.370  -2.904  25.327  0.00  0.00    -0.275 OA
ENDBRANCH   6  12
TORSDOF 1
ENDMDL
MODEL 2
REMARK VINA RESULT:     -10.1      0.638      1.179
REMARK  Name = 
REMARK  1 active torsions:
REMARK  status: ('A' for Active; 'I' for Inactive)
REMARK    1  A    between atoms: N_6  and  C_12
REMARK                            x       y       z     vdW  Elec       q    Type
REMARK                         _______ _______ _______ _____ _____    ______ ____
ROOT
ATOM      1  C   UNL     1      -2.763   4.174  24.998  0.00  0.00    +0.117 C 
ATOM      2  N   UNL     1      -3.122   3.431  24.980  0.00  0.00    -0.261 N 
ATOM      3  C   UNL     1      -2.735   2.706  24.905  0.00  0.00    +0.116 C 
ATOM      4  C   UNL     1      -3.305   2.111  24.914  0.00  0.00    +0.113 C 
ATOM      5  C   UNL     1      -3.246   1.290  24.859  0.00  0.00    +0.094 C 
ATOM      6  N   UNL     1      -3.927   0.825  24.884  0.00  0.00    -0.271 NA
ATOM      7  C   UNL     1      -4.667   1.181  24.964  0.00  0.00    +0.094 C 
ATOM      8  C   UNL     1      -4.726   2.002  25.019  0.00  0.00    +0.112 C 
ATOM      9  N   UNL     1      -4.044   2.467  24.994  0.00  0.00    -0.261 N 
ATOM     10  C   UNL     1      -3.932   3.283  25.035  0.00  0.00    +0.307 C 
ATOM     11  O   UNL     1      -4.525   3.851  25.117  0.00  0.00    -0.252 OA
ENDROOT
BRANCH   6  12
ATOM     12  C   UNL     1      -3.869   0.004  24.829  0.00  0.00    +0.061 C 
ATOM     13  C   UNL     1      -4.030  -0.374  24.113  0.00  0.00    +0.038 C 
ATOM     14  C   UNL     1      -3.973  -1.195  24.057  0.00  0.00    +0.095 C 
ATOM     15  N   UNL     1      -3.753  -1.639  24.717  0.00  0.00    -0.279 N 
ATOM     16  C   UNL     1      -3.591  -1.261  25.433  0.00  0.00    +0.095 C 
ATOM     17  C   UNL     1      -3.649  -0.440  25.488  0.00  0.00    +0.038 C 
ATOM     18  C   UNL     1      -3.695  -2.460  24.661  0.00  0.00    +0.226 C 
ATOM     19  C   UNL     1      -3.857  -2.837  23.945  0.00  0.00    +0.095 C 
ATOM     20  O   UNL     1      -3.475  -2.903  25.321  0.00  0.00    -0.275 OA
ENDBRANCH   6  12
TORSDOF 1
ENDMDL
MODEL 3
REMARK VINA RESULT:      -9.1      0.838      4.649
REMARK  Name = 
REMARK  1 active torsions:
REMARK  status: ('A' for Active; 'I' for Inactive)
REMARK    1  A    between atoms: N_6  and  C_12
REMARK                            x       y       z     vdW  Elec       q    Type
REMARK                         _______ _______ _______ _____ _____    ______ ____
ROOT
ATOM      1  C   UNL     1      -1.853  -2.804  24.623  0.00  0.00    +0.117 C 
ATOM      2  N   UNL     1      -2.374  -2.166  24.573  0.00  0.00    -0.261 N 
ATOM      3  C   UNL     1      -2.186  -1.374  24.710  0.00  0.00    +0.116 C 
ATOM      4  C   UNL     1      -2.870  -0.927  24.599  0.00  0.00    +0.113 C 
ATOM      5  C   UNL     1      -3.017  -0.117  24.659  0.00  0.00    +0.094 C 
ATOM      6  N   UNL     1      -3.772   0.177  24.513  0.00  0.00    -0.271 NA
ATOM      7  C   UNL     1      -4.383  -0.338  24.307  0.00  0.00    +0.094 C 
ATOM      8  C   UNL     1      -4.238  -1.148  24.248  0.00  0.00    +0.112 C 
ATOM      9  N   UNL     1      -3.481  -1.443  24.394  0.00  0.00    -0.261 N 
ATOM     10  C   UNL     1      -3.174  -2.208  24.378  0.00  0.00    +0.307 C 
ATOM     11  O   UNL     1      -3.595  -2.895  24.198  0.00  0.00    -0.252 OA
ENDROOT
BRANCH   6  12
ATOM     12  C   UNL     1      -3.919   0.987  24.572  0.00  0.00    +0.061 C 
ATOM     13  C   UNL     1      -4.457   1.269  25.131  0.00  0.00    +0.038 C 
ATOM     14  C   UNL     1      -4.604   2.078  25.191  0.00  0.00    +0.095 C 
ATOM     15  N   UNL     1      -4.213   2.606  24.692  0.00  0.00    -0.279 N 
ATOM     16  C   UNL     1      -3.675   2.325  24.133  0.00  0.00    +0.095 C 
ATOM     17  C   UNL     1      -3.528   1.515  24.074  0.00  0.00    +0.038 C 
ATOM     18  C   UNL     1      -4.360   3.416  24.752  0.00  0.00    +0.226 C 
ATOM     19  C   UNL     1      -4.898   3.697  25.311  0.00  0.00    +0.095 C 
ATOM     20  O   UNL     1      -3.969   3.944  24.253  0.00  0.00    -0.275 OA
ENDBRANCH   6  12
TORSDOF 1
ENDMDL
MODEL 4
REMARK VINA RESULT:      -8.9      1.619      4.631
REMARK  Name = 
REMARK  1 active torsions:
REMARK  status: ('A' for Active; 'I' for Inactive)
REMARK    1  A    between atoms: N_6  and  C_12
REMARK                            x       y       z     vdW  Elec       q    Type
REMARK                         _______ _______ _______ _____ _____    ______ ____
ROOT
ATOM      1  C   UNL     1      -3.468  -2.373  25.135  0.00  0.00    +0.117 C 
ATOM      2  N   UNL     1      -3.405  -1.573  24.942  0.00  0.00    -0.261 N 
ATOM      3  C   UNL     1      -2.956  -1.011  25.345  0.00  0.00    +0.116 C 
ATOM      4  C   UNL     1      -3.053  -0.286  24.964  0.00  0.00    +0.113 C 
ATOM      5  C   UNL     1      -2.745   0.464  25.115  0.00  0.00    +0.094 C 
ATOM      6  N   UNL     1      -2.944   1.099  24.629  0.00  0.00    -0.271 NA
ATOM      7  C   UNL     1      -3.453   0.984  23.990  0.00  0.00    +0.094 C 
ATOM      8  C   UNL     1      -3.762   0.235  23.837  0.00  0.00    +0.112 C 
ATOM      9  N   UNL     1      -3.562  -0.401  24.325  0.00  0.00    -0.261 N 
ATOM     10  C   UNL     1      -3.779  -1.196  24.311  0.00  0.00    +0.307 C 
ATOM     11  O   UNL     1      -4.283  -1.552  23.763  0.00  0.00    -0.252 OA
ENDROOT
BRANCH   6  12
ATOM     12  C   UNL     1      -2.635   1.849  24.780  0.00  0.00    +0.061 C 
ATOM     13  C   UNL     1      -1.857   2.024  24.571  0.00  0.00    +0.038 C 
ATOM     14  C   UNL     1      -1.547   2.773  24.722  0.00  0.00    +0.095 C 
ATOM     15  N   UNL     1      -2.017   3.348  25.082  0.00  0.00    -0.279 N 
ATOM     16  C   UNL     1      -2.796   3.173  25.292  0.00  0.00    +0.095 C 
ATOM     17  C   UNL     1      -3.104   2.423  25.140  0.00  0.00    +0.038 C 
ATOM     18  C   UNL     1      -1.707   4.098  25.233  0.00  0.00    +0.226 C 
ATOM     19  C   UNL     1      -0.929   4.273  25.024  0.00  0.00    +0.095 C 
ATOM     20  O   UNL     1      -2.177   4.673  25.594  0.00  0.00    -0.275 OA
ENDBRANCH   6  12
TORSDOF 1
ENDMDL
MODEL 5
REMARK VINA RESULT:      -8.8      2.123      4.382
REMARK  Name = 
REMARK  1 active torsions:
REMARK  status: ('A' for Active; 'I' for Inactive)
REMARK    1  A    between atoms: N_6  and  C_12
REMARK                            x       y       z     vdW  Elec       q    Type
REMARK                         _______ _______ _______ _____ _____    ______ ____
ROOT
ATOM      1  C   UNL     1      -0.218  -1.779  25.007  0.00  0.00    +0.117 C 
ATOM      2  N   UNL     1      -0.719  -1.143  24.850  0.00  0.00    -0.261 N 
ATOM      3  C   UNL     1      -1.462  -1.017  25.188  0.00  0.00    +0.116 C 
ATOM      4  C   UNL     1      -1.767  -0.318  24.875  0.00  0.00    +0.113 C 
ATOM      5  C   UNL     1      -2.478   0.081  25.004  0.00  0.00    +0.094 C 
ATOM      6  N   UNL     1      -2.636   0.784  24.604  0.00  0.00    -0.271 NA
ATOM      7  C   UNL     1      -2.083   1.090  24.074  0.00  0.00    +0.094 C 
ATOM      8  C   UNL     1      -1.372   0.692  23.944  0.00  0.00    +0.112 C 
ATOM      9  N   UNL     1      -1.214  -0.012  24.345  0.00  0.00    -0.261 N 
ATOM     10  C   UNL     1      -0.567  -0.522  24.330  0.00  0.00    +0.307 C 
ATOM     11  O   UNL     1       0.115  -0.428  23.873  0.00  0.00    -0.252 OA
ENDROOT
BRANCH   6  12
ATOM     12  C   UNL     1      -3.347   1.183  24.733  0.00  0.00    +0.061 C 
ATOM     13  C   UNL     1      -3.339   1.968  24.985  0.00  0.00    +0.038 C 
ATOM     14  C   UNL     1      -4.049   2.368  25.114  0.00  0.00    +0.095 C 
ATOM     15  N   UNL     1      -4.768   1.981  24.992  0.00  0.00    -0.279 N 
ATOM     16  C   UNL     1      -4.776   1.195  24.740  0.00  0.00    +0.095 C 
ATOM     17  C   UNL     1      -4.065   0.797  24.611  0.00  0.00    +0.038 C 
ATOM     18  C   UNL     1      -5.478   2.380  25.121  0.00  0.00    +0.226 C 
ATOM     19  C   UNL     1      -5.470   3.166  25.373  0.00  0.00    +0.095 C 
ATOM     20  O   UNL     1      -6.197   1.993  24.998  0.00  0.00    -0.275 OA
ENDBRANCH   6  12
TORSDOF 1
ENDMDL
MODEL 6
REMARK VINA RESULT:      -8.7      1.853      2.208
REMARK  Name = 
REMARK  1 active torsions:
REMARK  status: ('A' for Active; 'I' for Inactive)
REMARK    1  A    between atoms: N_6  and  C_12
REMARK                            x       y       z     vdW  Elec       q    Type
REMARK                         _______ _______ _______ _____ _____    ______ ____
ROOT
ATOM      1  C   UNL     1      -5.432   3.654  25.398  0.00  0.00    +0.117 C 
ATOM      2  N   UNL     1      -5.040   2.939  25.271  0.00  0.00    -0.261 N 
ATOM      3  C   UNL     1      -4.223   2.827  25.274  0.00  0.00    +0.116 C 
ATOM      4  C   UNL     1      -4.075   2.029  25.124  0.00  0.00    +0.113 C 
ATOM      5  C   UNL     1      -3.374   1.599  25.062  0.00  0.00    +0.094 C 
ATOM      6  N   UNL     1      -3.398   0.791  24.904  0.00  0.00    -0.271 NA
ATOM      7  C   UNL     1      -4.123   0.410  24.809  0.00  0.00    +0.094 C 
ATOM      8  C   UNL     1      -4.825   0.839  24.871  0.00  0.00    +0.112 C 
ATOM      9  N   UNL     1      -4.801   1.649  25.029  0.00  0.00    -0.261 N 
ATOM     10  C   UNL     1      -5.397   2.211  25.120  0.00  0.00    +0.307 C 
ATOM     11  O   UNL     1      -6.209   2.071  25.068  0.00  0.00    -0.252 OA
ENDROOT
BRANCH   6  12
ATOM     12  C   UNL     1      -2.696   0.361  24.842  0.00  0.00    +0.061 C 
ATOM     13  C   UNL     1      -2.560  -0.281  25.343  0.00  0.00    +0.038 C 
ATOM     14  C   UNL     1      -1.859  -0.711  25.282  0.00  0.00    +0.095 C 
ATOM     15  N   UNL     1      -1.293  -0.500  24.719  0.00  0.00    -0.279 N 
ATOM     16  C   UNL     1      -1.429   0.141  24.218  0.00  0.00    +0.095 C 
ATOM     17  C   UNL     1      -2.131   0.571  24.280  0.00  0.00    +0.038 C 
ATOM     18  C   UNL     1      -0.593  -0.930  24.657  0.00  0.00    +0.226 C 
ATOM     19  C   UNL     1      -0.457  -1.572  25.158  0.00  0.00    +0.095 C 
ATOM     20  O   UNL     1      -0.027  -0.719  24.094  0.00  0.00    -0.275 OA
ENDBRANCH   6  12
TORSDOF 1
ENDMDL
MODEL 7
REMARK VINA RESULT:      -8.0      2.211      2.643
REMARK  Name = 
REMARK  1 active torsions:
REMARK  status: ('A' for Active; 'I' for Inactive)
REMARK    1  A    between atoms: N_6  and  C_12
REMARK                            x       y       z     vdW  Elec       q    Type
REMARK                         _______ _______ _______ _____ _____    ______ ____
ROOT
ATOM      1  C   UNL     1      -1.414   4.982  24.998  0.00  0.00    +0.117 C 
ATOM      2  N   UNL     1      -1.651   4.192  24.998  0.00  0.00    -0.261 N 
ATOM      3  C   UNL     1      -1.151   3.535  24.999  0.00  0.00    +0.116 C 
ATOM      4  C   UNL     1      -1.621   2.857  24.999  0.00  0.00    +0.113 C 
ATOM      5  C   UNL     1      -1.433   2.054  24.999  0.00  0.00    +0.094 C 
ATOM      6  N   UNL     1      -2.033   1.489  24.999  0.00  0.00    -0.271 NA
ATOM      7  C   UNL     1      -2.823   1.727  24.998  0.00  0.00    +0.094 C 
ATOM      8  C   UNL     1      -3.013   2.529  24.998  0.00  0.00    +0.112 C 
ATOM      9  N   UNL     1      -2.411   3.095  24.998  0.00  0.00    -0.261 N 
ATOM     10  C   UNL     1      -2.430   3.919  24.998  0.00  0.00    +0.307 C 
ATOM     11  O   UNL     1      -3.108   4.390  24.998  0.00  0.00    -0.252 OA
ENDROOT
BRANCH   6  12
ATOM     12  C   UNL     1      -1.845   0.686  24.999  0.00  0.00    +0.061 C 
ATOM     13  C   UNL     1      -2.343   0.145  24.624  0.00  0.00    +0.038 C 
ATOM     14  C   UNL     1      -2.156  -0.658  24.624  0.00  0.00    +0.095 C 
ATOM     15  N   UNL     1      -1.469  -0.921  24.999  0.00  0.00    -0.279 N 
ATOM     16  C   UNL     1      -0.970  -0.381  25.374  0.00  0.00    +0.095 C 
ATOM     17  C   UNL     1      -1.159   0.422  25.373  0.00  0.00    +0.038 C 
ATOM     18  C   UNL     1      -1.281  -1.724  24.998  0.00  0.00    +0.226 C 
ATOM     19  C   UNL     1      -1.780  -2.264  24.623  0.00  0.00    +0.095 C 
ATOM     20  O   UNL     1      -0.595  -1.988  25.373  0.00  0.00    -0.275 OA
ENDBRANCH   6  12
TORSDOF 1
ENDMDL
