MODEL 1
REMARK VINA RESULT:     -16.8      0.000      0.000
REMARK  Name = 
REMARK  3 active torsions:
REMARK  status: ('A' for Active; 'I' for Inactive)
REMARK    1  A    between atoms: O_2  and  C_3
REMARK    2  A    between atoms: C_6  and  C_9
REMARK    3  A    between atoms: C_20  and  C_21
REMARK                            x       y       z     vdW  Elec       q    Type
REMARK                         _______ _______ _______ _____ _____    ______ ____
ROOT
ATOM      9  C   UNL     1      -5.086   1.256  24.820  0.00  0.00    +0.249 C 
ATOM     10  O   UNL     1      -5.905   1.581  24.935  0.00  0.00    -0.270 OA
ATOM     11  N   UNL     1      -4.626   1.944  24.753  0.00  0.00    -0.276 N 
ATOM     12  C   UNL     1      -4.584   2.778  24.744  0.00  0.00    +0.096 C 
ATOM     13  C   UNL     1      -3.613   2.893  24.607  0.00  0.00    +0.043 C 
ATOM     14  C   UNL     1      -2.849   3.154  24.498  0.00  0.00    +0.011 C 
ATOM     15  C   UNL     1      -3.185   2.540  24.548  0.00  0.00    +0.058 C 
ATOM     16  C   UNL     1      -4.126   2.445  24.681  0.00  0.00    +0.099 C 
ATOM     17  C   UNL     1      -3.036   1.634  24.530  0.00  0.00    +0.041 A 
ATOM     18  C   UNL     1      -2.425   1.086  24.446  0.00  0.00    +0.013 A 
ATOM     19  C   UNL     1      -2.589   0.278  24.472  0.00  0.00    +0.002 A 
ATOM     20  C   UNL     1      -3.364   0.017  24.582  0.00  0.00    +0.034 A 
ATOM     27  C   UNL     1      -3.975   0.565  24.666  0.00  0.00    +0.257 A 
ATOM     28  O   UNL     1      -4.991   0.563  24.810  0.00  0.00    -0.267 OA
ATOM     29  N   UNL     1      -3.811   1.373  24.640  0.00  0.00    -0.299 N 
ATOM     30  C   UNL     1      -3.467   1.945  24.590  0.00  0.00    +0.110 C 
ENDROOT
BRANCH   9   6
ATOM      3  C   UNL     1      -3.223  -1.007  24.588  0.00  0.00    +0.139 A 
ATOM      4  C   UNL     1      -3.571  -0.457  23.965  0.00  0.00    +0.037 A 
ATOM      5  C   UNL     1      -4.163   0.266  24.020  0.00  0.00    +0.008 A 
ATOM      6  C   UNL     1      -4.480   0.521  24.738  0.00  0.00    +0.054 A 
ATOM      7  C   UNL     1      -4.278   0.138  25.439  0.00  0.00    +0.008 A 
ATOM      8  C   UNL     1      -3.903  -0.338  25.501  0.00  0.00    +0.037 A 
BRANCH   3   2
ATOM      1  C   UNL     1      -1.663  -2.119  24.365  0.00  0.00    +0.252 C 
ATOM      2  O   UNL     1      -2.536  -1.833  24.465  0.00  0.00    -0.471 OA
ENDBRANCH   3   2
ENDBRANCH   9   6
BRANCH  20  21
ATOM     21  C   UNL     1      -3.526  -0.791  24.608  0.00  0.00    +0.027 C 
ATOM     22  C   UNL     1      -3.822  -1.173  23.939  0.00  0.00    +0.005 C 
ATOM     23  C   UNL     1      -3.985  -1.981  23.964  0.00  0.00    +0.000 C 
ATOM     24  C   UNL     1      -3.853  -2.407  24.658  0.00  0.00    +0.000 C 
ATOM     25  C   UNL     1      -3.557  -2.026  25.327  0.00  0.00    +0.000 C 
ATOM     26  C   UNL     1      -3.394  -1.216  25.302  0.00  0.00    +0.005 C 
ENDBRANCH  20  21
TORSDOF 3
ENDMDL
MODEL 2
REMARK VINA RESULT:     -15.8      1.143      3.736
REMARK  Name = 
REMARK  3 active torsions:
REMARK  status: ('A' for Active; 'I' for Inactive)
REMARK    1  A    between atoms: O_2  and  C_3
REMARK    2  A    between atoms: C_6  and  C_9
REMARK    3  A    between atoms: C_20  and  C_21
REMARK                            x       y       z     vdW  Elec       q    Type
REMARK                         _______ _______ _______ _____ _____    ______ ____
ROOT
ATOM      9  C   UNL     1      -1.751  -0.519  24.505  0.00  0.00    +0.249 C 
ATOM     10  O   UNL     1      -0.876  -0.670  24.490  0.00  0.00    -0.270 OA
ATOM     11  N   UNL     1      -2.068  -1.286  24.515  0.00  0.00    -0.276 N 
ATOM     12  C   UNL     1      -1.941  -2.112  24.518  0.00  0.00    +0.096 C 
ATOM     13  C   UNL     1      -2.879  -2.423  24.536  0.00  0.00    +0.043 C 
ATOM     14  C   UNL     1      -3.582  -2.834  24.551  0.00  0.00    +0.011 C 
ATOM     15  C   UNL     1      -3.373  -2.164  24.543  0.00  0.00    +0.058 C 
ATOM     16  C   UNL     1      -2.462  -1.879  24.526  0.00  0.00    +0.099 C 
ATOM     17  C   UNL     1      -3.702  -1.306  24.544  0.00  0.00    +0.041 A 
ATOM     18  C   UNL     1      -4.417  -0.894  24.554  0.00  0.00    +0.013 A 
ATOM     19  C   UNL     1      -4.418  -0.070  24.549  0.00  0.00    +0.002 A 
ATOM     20  C   UNL     1      -3.704   0.344  24.534  0.00  0.00    +0.034 A 
ATOM     27  C   UNL     1      -2.989  -0.068  24.524  0.00  0.00    +0.257 A 
ATOM     28  O   UNL     1      -1.985   0.140  24.505  0.00  0.00    -0.267 OA
ATOM     29  N   UNL     1      -2.988  -0.893  24.529  0.00  0.00    -0.299 N 
ATOM     30  C   UNL     1      -3.214  -1.523  24.537  0.00  0.00    +0.110 C 
ENDROOT
BRANCH   9   6
ATOM      3  C   UNL     1      -4.047   1.319  24.512  0.00  0.00    +0.139 A 
ATOM      4  C   UNL     1      -3.669   0.837  25.174  0.00  0.00    +0.037 A 
ATOM      5  C   UNL     1      -2.940   0.249  25.189  0.00  0.00    +0.008 A 
ATOM      6  C   UNL     1      -2.499   0.077  24.514  0.00  0.00    +0.054 A 
ATOM      7  C   UNL     1      -2.692   0.427  23.793  0.00  0.00    +0.008 A 
ATOM      8  C   UNL     1      -3.146   0.819  23.687  0.00  0.00    +0.037 A 
BRANCH   3   2
ATOM      1  C   UNL     1      -5.800   2.099  24.706  0.00  0.00    +0.252 C 
ATOM      2  O   UNL     1      -4.895   1.987  24.552  0.00  0.00    -0.471 OA
ENDBRANCH   3   2
ENDBRANCH   9   6
BRANCH  20  21
ATOM     21  C   UNL     1      -3.705   1.168  24.529  0.00  0.00    +0.027 C 
ATOM     22  C   UNL     1      -3.793   1.576  23.817  0.00  0.00    +0.005 C 
ATOM     23  C   UNL     1      -3.795   2.401  23.811  0.00  0.00    +0.000 C 
ATOM     24  C   UNL     1      -3.709   2.818  24.517  0.00  0.00    +0.000 C 
ATOM     25  C   UNL     1      -3.621   2.412  25.230  0.00  0.00    +0.000 C 
ATOM     26  C   UNL     1      -3.620   1.586  25.235  0.00  0.00    +0.005 C 
ENDBRANCH  20  21
TORSDOF 3
ENDMDL
