REMARK  Name = 
REMARK  9 active torsions:
REMARK  status: ('A' for Active; 'I' for Inactive)
REMARK    1  A    between atoms: C_2  and  N_4
REMARK    2  A    between atoms: N_7  and  C_8
REMARK    3  A    between atoms: C_8  and  C_9
REMARK    4  A    between atoms: C_13  and  C_14
REMARK    5  A    between atoms: C_14  and  C_15
REMARK    6  A    between atoms: N_17  and  C_18
REMARK    7  A    between atoms: C_18  and  C_19
REMARK    8  A    between atoms: C_22  and  C_25
REMARK    9  A    between atoms: C_28  and  C_29
REMARK                            x       y       z     vdW  Elec       q    Type
REMARK                         _______ _______ _______ _____ _____    ______ ____
ROOT
ATOM      9  C   UNL     1       7.145  -9.075   0.000  0.00  0.00    +0.043 C 
ATOM     10  C   UNL     1       7.859  -8.662   0.000  0.00  0.00    -0.033 C 
ATOM     11  C   UNL     1       8.574  -9.075   0.000  0.00  0.00    -0.048 C 
ATOM     12  C   UNL     1       9.288  -8.662   0.000  0.00  0.00    +0.026 C 
ATOM     13  C   UNL     1       8.574  -9.900   0.000  0.00  0.00    +0.027 C 
ATOM     27  C   UNL     1       7.859 -10.312   0.000  0.00  0.00    +0.005 C 
ATOM     28  C   UNL     1       7.145  -9.900   0.000  0.00  0.00    +0.006 C 
ENDROOT
BRANCH  28  29
ATOM     29  C   UNL     1       6.430 -10.312   0.000  0.00  0.00    +0.000 C 
ATOM     30  C   UNL     1       5.716  -9.900   0.000  0.00  0.00    +0.000 C 
ATOM     31  C   UNL     1       6.430 -11.137   0.000  0.00  0.00    +0.000 C 
ENDBRANCH  28  29
BRANCH   9   8
ATOM      8  C   UNL     1       6.430  -8.662   0.000  0.00  0.00    +0.121 C 
BRANCH   8   7
ATOM      4  N   UNL     1       4.287  -9.075   0.000  0.00  0.00    -0.189 NA
ATOM      5  C   UNL     1       5.001  -8.662   0.000  0.00  0.00    +0.339 C 
ATOM      6  O   UNL     1       5.001  -7.838   0.000  0.00  0.00    -0.249 OA
ATOM      7  N   UNL     1       5.716  -9.075   0.000  0.00  0.00    -0.187 NA
BRANCH   4   2
ATOM      1  C   UNL     1       2.858  -9.075   0.000  0.00  0.00    +0.023 C 
ATOM      2  C   UNL     1       3.572  -8.662   0.000  0.00  0.00    +0.097 C 
ATOM      3  C   UNL     1       3.572  -7.838   0.000  0.00  0.00    +0.023 C 
ENDBRANCH   4   2
ENDBRANCH   8   7
ENDBRANCH   9   8
BRANCH  13  14
ATOM     14  C   UNL     1       9.288 -10.312   0.000  0.00  0.00    +0.091 C 
BRANCH  14  15
ATOM     15  C   UNL     1      10.003  -9.900   0.000  0.00  0.00    +0.242 C 
ATOM     16  O   UNL     1      10.003  -9.075   0.000  0.00  0.00    -0.273 OA
ATOM     17  N   UNL     1      10.717 -10.312   0.000  0.00  0.00    -0.201 NA
BRANCH  17  18
ATOM     18  C   UNL     1      11.431  -9.900   0.000  0.00  0.00    +0.141 C 
BRANCH  18  19
ATOM     19  C   UNL     1      12.146 -10.312   0.000  0.00  0.00    -0.001 A 
ATOM     20  C   UNL     1      12.861  -9.900   0.000  0.00  0.00    -0.002 A 
ATOM     21  C   UNL     1      13.575 -10.312   0.000  0.00  0.00    +0.010 A 
ATOM     22  C   UNL     1      13.575 -11.137   0.000  0.00  0.00    +0.068 A 
ATOM     23  C   UNL     1      12.861 -11.550   0.000  0.00  0.00    +0.010 A 
ATOM     24  C   UNL     1      12.146 -11.137   0.000  0.00  0.00    -0.002 A 
BRANCH  22  25
ATOM     25  C   UNL     1      14.289 -11.550   0.000  0.00  0.00    +0.100 C 
ATOM     26  N   UNL     1      15.004 -11.963   0.000  0.00  0.00    -0.191 NA
ENDBRANCH  22  25
ENDBRANCH  18  19
ENDBRANCH  17  18
ENDBRANCH  14  15
ENDBRANCH  13  14
TORSDOF 9
