MODEL 1
REMARK VINA RESULT:     -12.7      0.000      0.000
REMARK  Name = 
REMARK  4 active torsions:
REMARK  status: ('A' for Active; 'I' for Inactive)
REMARK    1  A    between atoms: O_2  and  C_3
REMARK    2  A    between atoms: C_8  and  C_9
REMARK    3  A    between atoms: C_12  and  C_14
REMARK    4  A    between atoms: C_23  and  C_25
REMARK                            x       y       z     vdW  Elec       q    Type
REMARK                         _______ _______ _______ _____ _____    ______ ____
ROOT
ATOM     14  C   UNL     1      -3.775   1.853  24.712  0.00  0.00    +0.100 C 
ATOM     15  C   UNL     1      -4.160   2.539  24.460  0.00  0.00    +0.033 C 
ATOM     16  C   UNL     1      -3.634   3.169  24.537  0.00  0.00    +0.094 C 
ATOM     17  N   UNL     1      -2.924   2.874  24.837  0.00  0.00    -0.278 N 
ATOM     18  C   UNL     1      -3.011   2.061  24.945  0.00  0.00    +0.103 C 
ATOM     19  C   UNL     1      -2.245   3.315  24.999  0.00  0.00    +0.220 A 
ATOM     20  N   UNL     1      -2.240   4.129  24.863  0.00  0.00    -0.212 NA
ATOM     21  C   UNL     1      -1.561   4.570  25.025  0.00  0.00    +0.103 A 
ATOM     22  C   UNL     1      -0.889   4.197  25.325  0.00  0.00    +0.044 A 
ATOM     23  C   UNL     1      -0.896   3.383  25.461  0.00  0.00    +0.157 A 
ATOM     24  N   UNL     1      -1.573   2.943  25.299  0.00  0.00    -0.210 NA
ENDROOT
BRANCH  14  12
ATOM      9  C   UNL     1      -4.228  -0.231  24.642  0.00  0.00    +0.252 A 
ATOM     10  N   UNL     1      -4.958   0.083  24.864  0.00  0.00    -0.107 NA
ATOM     11  N   UNL     1      -4.877   0.903  24.918  0.00  0.00    -0.111 NA
ATOM     12  C   UNL     1      -4.097   1.094  24.728  0.00  0.00    +0.228 A 
ATOM     13  O   UNL     1      -3.696   0.393  24.558  0.00  0.00    -0.419 OA
BRANCH   9   8
ATOM      3  C   UNL     1      -3.690  -1.466  25.119  0.00  0.00    +0.143 A 
ATOM      4  C   UNL     1      -3.522  -2.265  25.002  0.00  0.00    +0.037 A 
ATOM      5  C   UNL     1      -3.724  -2.628  24.290  0.00  0.00    +0.003 A 
ATOM      6  C   UNL     1      -4.095  -2.193  23.694  0.00  0.00    +0.000 A 
ATOM      7  C   UNL     1      -4.263  -1.394  23.812  0.00  0.00    +0.008 A 
ATOM      8  C   UNL     1      -4.060  -1.030  24.525  0.00  0.00    +0.089 A 
BRANCH   3   2
ATOM      1  C   UNL     1      -3.084  -1.527  26.412  0.00  0.00    +0.252 C 
ATOM      2  O   UNL     1      -3.488  -1.101  25.831  0.00  0.00    -0.471 OA
ENDBRANCH   3   2
ENDBRANCH   9   8
ENDBRANCH  14  12
BRANCH  23  25
ATOM     25  C   UNL     1      -0.223   3.011  25.761  0.00  0.00    +0.435 C 
ATOM     26  F   UNL     1       0.449   2.638  26.060  0.00  0.00    -0.164 F 
ATOM     27  F   UNL     1       0.100   2.984  25.002  0.00  0.00    -0.164 F 
ATOM     28  F   UNL     1      -0.546   3.037  26.519  0.00  0.00    -0.164 F 
ENDBRANCH  23  25
TORSDOF 4
ENDMDL
MODEL 2
REMARK VINA RESULT:     -12.2      2.801      5.558
REMARK  Name = 
REMARK  4 active torsions:
REMARK  status: ('A' for Active; 'I' for Inactive)
REMARK    1  A    between atoms: O_2  and  C_3
REMARK    2  A    between atoms: C_8  and  C_9
REMARK    3  A    between atoms: C_12  and  C_14
REMARK    4  A    between atoms: C_23  and  C_25
REMARK                            x       y       z     vdW  Elec       q    Type
REMARK                         _______ _______ _______ _____ _____    ______ ____
ROOT
ATOM     14  C   UNL     1      -0.738   0.938  25.084  0.00  0.00    +0.100 C 
ATOM     15  C   UNL     1      -0.126   0.572  24.668  0.00  0.00    +0.033 C 
ATOM     16  C   UNL     1      -0.369  -0.193  24.478  0.00  0.00    +0.094 C 
ATOM     17  N   UNL     1      -1.131  -0.301  24.776  0.00  0.00    -0.278 N 
ATOM     18  C   UNL     1      -1.359   0.398  25.151  0.00  0.00    +0.103 C 
ATOM     19  C   UNL     1      -1.585  -0.987  24.712  0.00  0.00    +0.220 A 
ATOM     20  N   UNL     1      -1.282  -1.647  24.320  0.00  0.00    -0.212 NA
ATOM     21  C   UNL     1      -1.736  -2.333  24.255  0.00  0.00    +0.103 A 
ATOM     22  C   UNL     1      -2.492  -2.359  24.583  0.00  0.00    +0.044 A 
ATOM     23  C   UNL     1      -2.795  -1.699  24.975  0.00  0.00    +0.157 A 
ATOM     24  N   UNL     1      -2.341  -1.014  25.039  0.00  0.00    -0.210 NA
ENDROOT
BRANCH  14  12
ATOM      9  C   UNL     1      -0.896   3.027  25.488  0.00  0.00    +0.252 A 
ATOM     10  N   UNL     1      -0.541   2.757  26.182  0.00  0.00    -0.107 NA
ATOM     11  N   UNL     1      -0.439   1.941  26.115  0.00  0.00    -0.111 NA
ATOM     12  C   UNL     1      -0.730   1.707  25.380  0.00  0.00    +0.228 A 
ATOM     13  O   UNL     1      -1.013   2.379  24.992  0.00  0.00    -0.419 OA
BRANCH   9   8
ATOM      3  C   UNL     1      -1.839   4.100  25.536  0.00  0.00    +0.143 A 
ATOM      4  C   UNL     1      -2.041   4.881  25.368  0.00  0.00    +0.037 A 
ATOM      5  C   UNL     1      -1.503   5.372  24.983  0.00  0.00    +0.003 A 
ATOM      6  C   UNL     1      -0.761   5.083  24.765  0.00  0.00    +0.000 A 
ATOM      7  C   UNL     1      -0.559   4.301  24.934  0.00  0.00    +0.008 A 
ATOM      8  C   UNL     1      -1.098   3.809  25.320  0.00  0.00    +0.089 A 
BRANCH   3   2
ATOM      1  C   UNL     1      -3.128   3.891  26.118  0.00  0.00    +0.252 C 
ATOM      2  O   UNL     1      -2.377   3.608  25.922  0.00  0.00    -0.471 OA
ENDBRANCH   3   2
ENDBRANCH   9   8
ENDBRANCH  14  12
BRANCH  23  25
ATOM     25  C   UNL     1      -3.551  -1.725  25.302  0.00  0.00    +0.435 C 
ATOM     26  F   UNL     1      -4.308  -1.751  25.630  0.00  0.00    -0.164 F 
ATOM     27  F   UNL     1      -3.226  -1.899  26.040  0.00  0.00    -0.164 F 
ATOM     28  F   UNL     1      -3.877  -1.552  24.564  0.00  0.00    -0.164 F 
ENDBRANCH  23  25
TORSDOF 4
ENDMDL
MODEL 3
REMARK VINA RESULT:     -12.0      2.242      5.080
REMARK  Name = 
REMARK  4 active torsions:
REMARK  status: ('A' for Active; 'I' for Inactive)
REMARK    1  A    between atoms: O_2  and  C_3
REMARK    2  A    between atoms: C_8  and  C_9
REMARK    3  A    between atoms: C_12  and  C_14
REMARK    4  A    between atoms: C_23  and  C_25
REMARK                            x       y       z     vdW  Elec       q    Type
REMARK                         _______ _______ _______ _____ _____    ______ ____
ROOT
ATOM     14  C   UNL     1      -3.621   1.003  24.483  0.00  0.00    +0.100 C 
ATOM     15  C   UNL     1      -4.399   0.780  24.644  0.00  0.00    +0.033 C 
ATOM     16  C   UNL     1      -4.414  -0.037  24.750  0.00  0.00    +0.094 C 
ATOM     17  N   UNL     1      -3.644  -0.321  24.655  0.00  0.00    -0.278 N 
ATOM     18  C   UNL     1      -3.154   0.323  24.490  0.00  0.00    +0.103 C 
ATOM     19  C   UNL     1      -3.406  -1.109  24.715  0.00  0.00    +0.220 A 
ATOM     20  N   UNL     1      -3.962  -1.695  24.884  0.00  0.00    -0.212 NA
ATOM     21  C   UNL     1      -3.724  -2.483  24.943  0.00  0.00    +0.103 A 
ATOM     22  C   UNL     1      -2.931  -2.684  24.834  0.00  0.00    +0.044 A 
ATOM     23  C   UNL     1      -2.377  -2.097  24.665  0.00  0.00    +0.157 A 
ATOM     24  N   UNL     1      -2.614  -1.310  24.605  0.00  0.00    -0.210 NA
ENDROOT
BRANCH  14  12
ATOM      9  C   UNL     1      -2.734   2.944  24.474  0.00  0.00    +0.252 A 
ATOM     10  N   UNL     1      -3.164   2.963  23.770  0.00  0.00    -0.107 NA
ATOM     11  N   UNL     1      -3.549   2.237  23.688  0.00  0.00    -0.111 NA
ATOM     12  C   UNL     1      -3.356   1.771  24.341  0.00  0.00    +0.228 A 
ATOM     13  O   UNL     1      -2.853   2.208  24.827  0.00  0.00    -0.419 OA
BRANCH   9   8
ATOM      3  C   UNL     1      -1.450   3.543  24.659  0.00  0.00    +0.143 A 
ATOM      4  C   UNL     1      -0.983   4.155  24.958  0.00  0.00    +0.037 A 
ATOM      5  C   UNL     1      -1.334   4.777  25.370  0.00  0.00    +0.003 A 
ATOM      6  C   UNL     1      -2.151   4.790  25.484  0.00  0.00    +0.000 A 
ATOM      7  C   UNL     1      -2.618   4.178  25.185  0.00  0.00    +0.008 A 
ATOM      8  C   UNL     1      -2.267   3.555  24.773  0.00  0.00    +0.089 A 
BRANCH   3   2
ATOM      1  C   UNL     1      -0.279   2.879  24.182  0.00  0.00    +0.252 C 
ATOM      2  O   UNL     1      -1.101   2.920  24.247  0.00  0.00    -0.471 OA
ENDBRANCH   3   2
ENDBRANCH   9   8
ENDBRANCH  14  12
BRANCH  23  25
ATOM     25  C   UNL     1      -1.584  -2.298  24.556  0.00  0.00    +0.435 C 
ATOM     26  F   UNL     1      -0.791  -2.499  24.446  0.00  0.00    -0.164 F 
ATOM     27  F   UNL     1      -1.408  -2.016  25.311  0.00  0.00    -0.164 F 
ATOM     28  F   UNL     1      -1.760  -2.580  23.801  0.00  0.00    -0.164 F 
ENDBRANCH  23  25
TORSDOF 4
ENDMDL
MODEL 4
REMARK VINA RESULT:     -11.7      1.896      2.523
REMARK  Name = 
REMARK  4 active torsions:
REMARK  status: ('A' for Active; 'I' for Inactive)
REMARK    1  A    between atoms: O_2  and  C_3
REMARK    2  A    between atoms: C_8  and  C_9
REMARK    3  A    between atoms: C_12  and  C_14
REMARK    4  A    between atoms: C_23  and  C_25
REMARK                            x       y       z     vdW  Elec       q    Type
REMARK                         _______ _______ _______ _____ _____    ______ ____
ROOT
ATOM     14  C   UNL     1      -0.902   1.060  25.139  0.00  0.00    +0.100 C 
ATOM     15  C   UNL     1      -0.191   1.305  24.800  0.00  0.00    +0.033 C 
ATOM     16  C   UNL     1      -0.198   2.128  24.757  0.00  0.00    +0.094 C 
ATOM     17  N   UNL     1      -0.914   2.394  25.070  0.00  0.00    -0.278 N 
ATOM     18  C   UNL     1      -1.349   1.733  25.306  0.00  0.00    +0.103 C 
ATOM     19  C   UNL     1      -1.154   3.181  25.136  0.00  0.00    +0.220 A 
ATOM     20  N   UNL     1      -0.657   3.786  24.874  0.00  0.00    -0.212 NA
ATOM     21  C   UNL     1      -0.896   4.573  24.940  0.00  0.00    +0.103 A 
ATOM     22  C   UNL     1      -1.632   4.755  25.266  0.00  0.00    +0.044 A 
ATOM     23  C   UNL     1      -2.128   4.149  25.527  0.00  0.00    +0.157 A 
ATOM     24  N   UNL     1      -1.889   3.363  25.462  0.00  0.00    -0.210 NA
ENDROOT
BRANCH  14  12
ATOM      9  C   UNL     1      -1.741  -0.901  25.199  0.00  0.00    +0.252 A 
ATOM     10  N   UNL     1      -1.203  -0.940  25.823  0.00  0.00    -0.107 NA
ATOM     11  N   UNL     1      -0.822  -0.209  25.876  0.00  0.00    -0.111 NA
ATOM     12  C   UNL     1      -1.126   0.280  25.286  0.00  0.00    +0.228 A 
ATOM     13  O   UNL     1      -1.694  -0.148  24.867  0.00  0.00    -0.419 OA
BRANCH   9   8
ATOM      3  C   UNL     1      -3.050  -1.464  25.095  0.00  0.00    +0.143 A 
ATOM      4  C   UNL     1      -3.549  -2.073  24.846  0.00  0.00    +0.037 A 
ATOM      5  C   UNL     1      -3.236  -2.727  24.454  0.00  0.00    +0.003 A 
ATOM      6  C   UNL     1      -2.425  -2.774  24.309  0.00  0.00    +0.000 A 
ATOM      7  C   UNL     1      -1.927  -2.165  24.558  0.00  0.00    +0.008 A 
ATOM      8  C   UNL     1      -2.239  -1.509  24.951  0.00  0.00    +0.089 A 
BRANCH   3   2
ATOM      1  C   UNL     1      -4.180  -0.701  25.522  0.00  0.00    +0.252 C 
ATOM      2  O   UNL     1      -3.362  -0.809  25.487  0.00  0.00    -0.471 OA
ENDBRANCH   3   2
ENDBRANCH   9   8
ENDBRANCH  14  12
BRANCH  23  25
ATOM     25  C   UNL     1      -2.863   4.331  25.854  0.00  0.00    +0.435 C 
ATOM     26  F   UNL     1      -3.599   4.513  26.180  0.00  0.00    -0.164 F 
ATOM     27  F   UNL     1      -2.530   4.323  26.609  0.00  0.00    -0.164 F 
ATOM     28  F   UNL     1      -3.196   4.339  25.099  0.00  0.00    -0.164 F 
ENDBRANCH  23  25
TORSDOF 4
ENDMDL
MODEL 5
REMARK VINA RESULT:     -11.5      2.982      5.114
REMARK  Name = 
REMARK  4 active torsions:
REMARK  status: ('A' for Active; 'I' for Inactive)
REMARK    1  A    between atoms: O_2  and  C_3
REMARK    2  A    between atoms: C_8  and  C_9
REMARK    3  A    between atoms: C_12  and  C_14
REMARK    4  A    between atoms: C_23  and  C_25
REMARK                            x       y       z     vdW  Elec       q    Type
REMARK                         _______ _______ _______ _____ _____    ______ ____
ROOT
ATOM     14  C   UNL     1      -2.298   0.856  24.365  0.00  0.00    +0.100 C 
ATOM     15  C   UNL     1      -1.474   0.845  24.390  0.00  0.00    +0.033 C 
ATOM     16  C   UNL     1      -1.231   0.059  24.449  0.00  0.00    +0.094 C 
ATOM     17  N   UNL     1      -1.906  -0.416  24.460  0.00  0.00    -0.278 N 
ATOM     18  C   UNL     1      -2.565   0.077  24.409  0.00  0.00    +0.103 C 
ATOM     19  C   UNL     1      -1.919  -1.240  24.514  0.00  0.00    +0.220 A 
ATOM     20  N   UNL     1      -1.211  -1.660  24.562  0.00  0.00    -0.212 NA
ATOM     21  C   UNL     1      -1.224  -2.484  24.616  0.00  0.00    +0.103 A 
ATOM     22  C   UNL     1      -1.944  -2.886  24.621  0.00  0.00    +0.044 A 
ATOM     23  C   UNL     1      -2.652  -2.464  24.573  0.00  0.00    +0.157 A 
ATOM     24  N   UNL     1      -2.639  -1.641  24.519  0.00  0.00    -0.210 NA
ENDROOT
BRANCH  14  12
ATOM      9  C   UNL     1      -3.668   2.478  24.587  0.00  0.00    +0.252 A 
ATOM     10  N   UNL     1      -3.336   2.650  23.851  0.00  0.00    -0.107 NA
ATOM     11  N   UNL     1      -2.782   2.063  23.679  0.00  0.00    -0.111 NA
ATOM     12  C   UNL     1      -2.772   1.529  24.308  0.00  0.00    +0.228 A 
ATOM     13  O   UNL     1      -3.320   1.786  24.869  0.00  0.00    -0.419 OA
BRANCH   9   8
ATOM      3  C   UNL     1      -4.030   3.554  25.454  0.00  0.00    +0.143 A 
ATOM      4  C   UNL     1      -4.609   3.998  25.840  0.00  0.00    +0.037 A 
ATOM      5  C   UNL     1      -5.405   3.808  25.743  0.00  0.00    +0.003 A 
ATOM      6  C   UNL     1      -5.624   3.175  25.261  0.00  0.00    +0.000 A 
ATOM      7  C   UNL     1      -5.045   2.732  24.875  0.00  0.00    +0.008 A 
ATOM      8  C   UNL     1      -4.247   2.921  24.972  0.00  0.00    +0.089 A 
BRANCH   3   2
ATOM      1  C   UNL     1      -3.007   4.305  26.112  0.00  0.00    +0.252 C 
ATOM      2  O   UNL     1      -3.233   3.743  25.550  0.00  0.00    -0.471 OA
ENDBRANCH   3   2
ENDBRANCH   9   8
ENDBRANCH  14  12
BRANCH  23  25
ATOM     25  C   UNL     1      -3.372  -2.866  24.578  0.00  0.00    +0.435 C 
ATOM     26  F   UNL     1      -4.092  -3.267  24.583  0.00  0.00    -0.164 F 
ATOM     27  F   UNL     1      -3.376  -2.847  25.403  0.00  0.00    -0.164 F 
ATOM     28  F   UNL     1      -3.368  -2.884  23.753  0.00  0.00    -0.164 F 
ENDBRANCH  23  25
TORSDOF 4
ENDMDL
