MODEL 1
REMARK VINA RESULT:     -12.6      0.000      0.000
REMARK  Name = 
REMARK  4 active torsions:
REMARK  status: ('A' for Active; 'I' for Inactive)
REMARK    1  A    between atoms: C_2  and  C_3
REMARK    2  A    between atoms: C_2  and  C_25
REMARK    3  A    between atoms: C_10  and  N_11
REMARK    4  A    between atoms: C_12  and  C_14
REMARK                            x       y       z     vdW  Elec       q    Type
REMARK                         _______ _______ _______ _____ _____    ______ ____
ROOT
ATOM      3  C   UNL     1      -4.523   0.627  24.835  0.00  0.00    +0.039 C 
ATOM      4  C   UNL     1      -5.196   0.899  25.227  0.00  0.00    +0.003 C 
ATOM      5  C   UNL     1      -5.257   1.694  25.439  0.00  0.00    +0.000 C 
ATOM      6  C   UNL     1      -4.645   2.216  25.259  0.00  0.00    +0.002 C 
ATOM      7  C   UNL     1      -5.317   2.488  25.650  0.00  0.00    +0.000 C 
ATOM      8  C   UNL     1      -4.705   3.012  25.471  0.00  0.00    +0.002 C 
ATOM      9  C   UNL     1      -4.093   3.534  25.291  0.00  0.00    +0.022 C 
ATOM     10  C   UNL     1      -3.419   3.261  24.899  0.00  0.00    +0.096 C 
ATOM     20  C   UNL     1      -3.359   2.467  24.688  0.00  0.00    +0.022 C 
ATOM     21  C   UNL     1      -2.686   2.194  24.296  0.00  0.00    +0.002 C 
ATOM     22  C   UNL     1      -3.971   1.943  24.867  0.00  0.00    +0.032 C 
ATOM     23  C   UNL     1      -3.911   1.149  24.656  0.00  0.00    +0.152 C 
ATOM     24  O   UNL     1      -3.238   0.876  24.264  0.00  0.00    -0.223 OA
ENDROOT
BRANCH  10  11
ATOM     11  N   UNL     1      -2.807   3.784  24.719  0.00  0.00    -0.202 NA
ATOM     12  C   UNL     1      -2.393   4.160  25.326  0.00  0.00    +0.284 C 
ATOM     13  O   UNL     1      -2.592   4.013  26.114  0.00  0.00    -0.267 OA
BRANCH  12  14
ATOM     14  C   UNL     1      -1.781   4.683  25.146  0.00  0.00    +0.155 A 
ATOM     15  C   UNL     1      -1.926   5.494  25.116  0.00  0.00    +0.123 A 
ATOM     16  N   UNL     1      -1.314   6.017  24.936  0.00  0.00    -0.239 NA
ATOM     17  C   UNL     1      -0.556   5.728  24.787  0.00  0.00    +0.120 A 
ATOM     18  C   UNL     1      -0.410   4.916  24.817  0.00  0.00    +0.120 A 
ATOM     19  N   UNL     1      -1.023   4.394  24.997  0.00  0.00    -0.236 NA
ENDBRANCH  12  14
ENDBRANCH  10  11
BRANCH   3   2
ATOM      1  C   UNL     1      -4.731  -0.422  23.886  0.00  0.00    +0.010 C 
ATOM      2  C   UNL     1      -4.463  -0.169  24.624  0.00  0.00    +0.079 C 
BRANCH   2  25
ATOM     25  C   UNL     1      -4.134  -0.712  25.151  0.00  0.00    +0.225 C 
ATOM     26  O   UNL     1      -4.022  -0.503  25.942  0.00  0.00    -0.275 OA
ATOM     27  N   UNL     1      -3.917  -1.464  24.888  0.00  0.00    -0.280 N 
ATOM     28  C   UNL     1      -3.589  -2.006  25.414  0.00  0.00    +0.093 C 
ATOM     29  C   UNL     1      -3.372  -2.757  25.152  0.00  0.00    +0.022 C 
ATOM     30  C   UNL     1      -3.484  -2.965  24.361  0.00  0.00    +0.003 C 
ATOM     31  C   UNL     1      -3.267  -3.717  24.098  0.00  0.00    +0.000 C 
ATOM     32  C   UNL     1      -3.812  -2.423  23.835  0.00  0.00    +0.022 C 
ATOM     33  C   UNL     1      -4.029  -1.671  24.097  0.00  0.00    +0.093 C 
ENDBRANCH   2  25
ENDBRANCH   3   2
TORSDOF 4
ENDMDL
MODEL 2
REMARK VINA RESULT:     -12.3      0.900      5.531
REMARK  Name = 
REMARK  4 active torsions:
REMARK  status: ('A' for Active; 'I' for Inactive)
REMARK    1  A    between atoms: C_2  and  C_3
REMARK    2  A    between atoms: C_2  and  C_25
REMARK    3  A    between atoms: C_10  and  N_11
REMARK    4  A    between atoms: C_12  and  C_14
REMARK                            x       y       z     vdW  Elec       q    Type
REMARK                         _______ _______ _______ _____ _____    ______ ____
ROOT
ATOM      3  C   UNL     1      -4.152   2.844  24.597  0.00  0.00    +0.039 C 
ATOM      4  C   UNL     1      -4.827   2.861  25.073  0.00  0.00    +0.003 C 
ATOM      5  C   UNL     1      -5.186   2.156  25.305  0.00  0.00    +0.000 C 
ATOM      6  C   UNL     1      -4.871   1.434  25.062  0.00  0.00    +0.002 C 
ATOM      7  C   UNL     1      -5.544   1.451  25.536  0.00  0.00    +0.000 C 
ATOM      8  C   UNL     1      -5.229   0.728  25.294  0.00  0.00    +0.002 C 
ATOM      9  C   UNL     1      -4.914   0.005  25.052  0.00  0.00    +0.022 C 
ATOM     10  C   UNL     1      -4.239  -0.012  24.576  0.00  0.00    +0.096 C 
ATOM     20  C   UNL     1      -3.880   0.693  24.344  0.00  0.00    +0.022 C 
ATOM     21  C   UNL     1      -3.206   0.676  23.869  0.00  0.00    +0.002 C 
ATOM     22  C   UNL     1      -4.195   1.417  24.587  0.00  0.00    +0.032 C 
ATOM     23  C   UNL     1      -3.837   2.122  24.355  0.00  0.00    +0.152 C 
ATOM     24  O   UNL     1      -3.162   2.105  23.880  0.00  0.00    -0.223 OA
ENDROOT
BRANCH  10  11
ATOM     11  N   UNL     1      -3.924  -0.735  24.334  0.00  0.00    -0.202 NA
ATOM     12  C   UNL     1      -3.689  -1.292  24.894  0.00  0.00    +0.284 C 
ATOM     13  O   UNL     1      -3.769  -1.126  25.700  0.00  0.00    -0.267 OA
BRANCH  12  14
ATOM     14  C   UNL     1      -3.374  -2.015  24.652  0.00  0.00    +0.155 A 
ATOM     15  C   UNL     1      -3.872  -2.607  24.367  0.00  0.00    +0.123 A 
ATOM     16  N   UNL     1      -3.557  -3.330  24.124  0.00  0.00    -0.239 NA
ATOM     17  C   UNL     1      -2.743  -3.460  24.167  0.00  0.00    +0.120 A 
ATOM     18  C   UNL     1      -2.245  -2.868  24.453  0.00  0.00    +0.120 A 
ATOM     19  N   UNL     1      -2.561  -2.145  24.695  0.00  0.00    -0.236 NA
ENDBRANCH  12  14
ENDBRANCH  10  11
BRANCH   3   2
ATOM      1  C   UNL     1      -3.703   3.725  23.564  0.00  0.00    +0.010 C 
ATOM      2  C   UNL     1      -3.793   3.550  24.365  0.00  0.00    +0.079 C 
BRANCH   2  25
ATOM     25  C   UNL     1      -3.525   4.082  24.936  0.00  0.00    +0.225 C 
ATOM     26  O   UNL     1      -4.044   4.368  25.511  0.00  0.00    -0.275 OA
ATOM     27  N   UNL     1      -2.737   4.330  24.931  0.00  0.00    -0.280 N 
ATOM     28  C   UNL     1      -2.469   4.862  25.500  0.00  0.00    +0.093 C 
ATOM     29  C   UNL     1      -1.682   5.110  25.496  0.00  0.00    +0.022 C 
ATOM     30  C   UNL     1      -1.164   4.824  24.921  0.00  0.00    +0.003 C 
ATOM     31  C   UNL     1      -0.377   5.072  24.917  0.00  0.00    +0.000 C 
ATOM     32  C   UNL     1      -1.432   4.293  24.352  0.00  0.00    +0.022 C 
ATOM     33  C   UNL     1      -2.219   4.045  24.356  0.00  0.00    +0.093 C 
ENDBRANCH   2  25
ENDBRANCH   3   2
TORSDOF 4
ENDMDL
MODEL 3
REMARK VINA RESULT:     -11.9      2.887      4.687
REMARK  Name = 
REMARK  4 active torsions:
REMARK  status: ('A' for Active; 'I' for Inactive)
REMARK    1  A    between atoms: C_2  and  C_3
REMARK    2  A    between atoms: C_2  and  C_25
REMARK    3  A    between atoms: C_10  and  N_11
REMARK    4  A    between atoms: C_12  and  C_14
REMARK                            x       y       z     vdW  Elec       q    Type
REMARK                         _______ _______ _______ _____ _____    ______ ____
ROOT
ATOM      3  C   UNL     1      -2.589   3.188  24.959  0.00  0.00    +0.039 C 
ATOM      4  C   UNL     1      -2.237   3.487  25.643  0.00  0.00    +0.003 C 
ATOM      5  C   UNL     1      -1.471   3.258  25.846  0.00  0.00    +0.000 C 
ATOM      6  C   UNL     1      -1.057   2.731  25.366  0.00  0.00    +0.002 C 
ATOM      7  C   UNL     1      -0.705   3.029  26.049  0.00  0.00    +0.000 C 
ATOM      8  C   UNL     1      -0.291   2.502  25.569  0.00  0.00    +0.002 C 
ATOM      9  C   UNL     1       0.123   1.975  25.088  0.00  0.00    +0.022 C 
ATOM     10  C   UNL     1      -0.229   1.676  24.404  0.00  0.00    +0.096 C 
ATOM     20  C   UNL     1      -0.995   1.905  24.201  0.00  0.00    +0.022 C 
ATOM     21  C   UNL     1      -1.347   1.606  23.517  0.00  0.00    +0.002 C 
ATOM     22  C   UNL     1      -1.410   2.432  24.681  0.00  0.00    +0.032 C 
ATOM     23  C   UNL     1      -2.175   2.661  24.479  0.00  0.00    +0.152 C 
ATOM     24  O   UNL     1      -2.527   2.362  23.795  0.00  0.00    -0.223 OA
ENDROOT
BRANCH  10  11
ATOM     11  N   UNL     1       0.185   1.148  23.924  0.00  0.00    -0.202 NA
ATOM     12  C   UNL     1       0.986   1.271  23.770  0.00  0.00    +0.284 C 
ATOM     13  O   UNL     1       1.373   1.924  24.097  0.00  0.00    -0.267 OA
BRANCH  12  14
ATOM     14  C   UNL     1       1.400   0.744  23.290  0.00  0.00    +0.155 A 
ATOM     15  C   UNL     1       1.018   0.085  22.974  0.00  0.00    +0.123 A 
ATOM     16  N   UNL     1       1.433  -0.442  22.493  0.00  0.00    -0.239 NA
ATOM     17  C   UNL     1       2.231  -0.310  22.329  0.00  0.00    +0.120 A 
ATOM     18  C   UNL     1       2.614   0.349  22.646  0.00  0.00    +0.120 A 
ATOM     19  N   UNL     1       2.198   0.876  23.126  0.00  0.00    -0.236 NA
ENDBRANCH  12  14
ENDBRANCH  10  11
BRANCH   3   2
ATOM      1  C   UNL     1      -3.548   3.565  23.967  0.00  0.00    +0.010 C 
ATOM      2  C   UNL     1      -3.355   3.417  24.756  0.00  0.00    +0.079 C 
BRANCH   2  25
ATOM     25  C   UNL     1      -3.930   3.499  25.343  0.00  0.00    +0.225 C 
ATOM     26  O   UNL     1      -3.830   4.056  25.944  0.00  0.00    -0.275 OA
ATOM     27  N   UNL     1      -4.604   3.023  25.329  0.00  0.00    -0.280 N 
ATOM     28  C   UNL     1      -5.178   3.105  25.915  0.00  0.00    +0.093 C 
ATOM     29  C   UNL     1      -5.852   2.630  25.902  0.00  0.00    +0.022 C 
ATOM     30  C   UNL     1      -5.952   2.073  25.302  0.00  0.00    +0.003 C 
ATOM     31  C   UNL     1      -6.626   1.598  25.288  0.00  0.00    +0.000 C 
ATOM     32  C   UNL     1      -5.378   1.992  24.716  0.00  0.00    +0.022 C 
ATOM     33  C   UNL     1      -4.704   2.467  24.729  0.00  0.00    +0.093 C 
ENDBRANCH   2  25
ENDBRANCH   3   2
TORSDOF 4
ENDMDL
MODEL 4
REMARK VINA RESULT:     -11.8      3.112      4.779
REMARK  Name = 
REMARK  4 active torsions:
REMARK  status: ('A' for Active; 'I' for Inactive)
REMARK    1  A    between atoms: C_2  and  C_3
REMARK    2  A    between atoms: C_2  and  C_25
REMARK    3  A    between atoms: C_10  and  N_11
REMARK    4  A    between atoms: C_12  and  C_14
REMARK                            x       y       z     vdW  Elec       q    Type
REMARK                         _______ _______ _______ _____ _____    ______ ____
ROOT
ATOM      3  C   UNL     1      -3.164   0.829  24.411  0.00  0.00    +0.039 C 
ATOM      4  C   UNL     1      -3.206   0.209  24.955  0.00  0.00    +0.003 C 
ATOM      5  C   UNL     1      -2.528  -0.223  25.140  0.00  0.00    +0.000 C 
ATOM      6  C   UNL     1      -1.810  -0.037  24.782  0.00  0.00    +0.002 C 
ATOM      7  C   UNL     1      -1.851  -0.655  25.325  0.00  0.00    +0.000 C 
ATOM      8  C   UNL     1      -1.131  -0.469  24.967  0.00  0.00    +0.002 C 
ATOM      9  C   UNL     1      -0.412  -0.282  24.610  0.00  0.00    +0.022 C 
ATOM     10  C   UNL     1      -0.371   0.338  24.066  0.00  0.00    +0.096 C 
ATOM     20  C   UNL     1      -1.048   0.770  23.881  0.00  0.00    +0.022 C 
ATOM     21  C   UNL     1      -1.006   1.389  23.337  0.00  0.00    +0.002 C 
ATOM     22  C   UNL     1      -1.768   0.583  24.238  0.00  0.00    +0.032 C 
ATOM     23  C   UNL     1      -2.445   1.015  24.053  0.00  0.00    +0.152 C 
ATOM     24  O   UNL     1      -2.403   1.635  23.510  0.00  0.00    -0.223 OA
ENDROOT
BRANCH  10  11
ATOM     11  N   UNL     1       0.349   0.524  23.708  0.00  0.00    -0.202 NA
ATOM     12  C   UNL     1       0.824  -0.075  23.400  0.00  0.00    +0.284 C 
ATOM     13  O   UNL     1       0.580  -0.862  23.449  0.00  0.00    -0.267 OA
BRANCH  12  14
ATOM     14  C   UNL     1       1.544   0.112  23.042  0.00  0.00    +0.155 A 
ATOM     15  C   UNL     1       1.745  -0.226  22.317  0.00  0.00    +0.123 A 
ATOM     16  N   UNL     1       2.465  -0.040  21.960  0.00  0.00    -0.239 NA
ATOM     17  C   UNL     1       2.984   0.486  22.328  0.00  0.00    +0.120 A 
ATOM     18  C   UNL     1       2.783   0.824  23.053  0.00  0.00    +0.120 A 
ATOM     19  N   UNL     1       2.063   0.637  23.410  0.00  0.00    -0.236 NA
ENDBRANCH  12  14
ENDBRANCH  10  11
BRANCH   3   2
ATOM      1  C   UNL     1      -3.889   1.673  23.512  0.00  0.00    +0.010 C 
ATOM      2  C   UNL     1      -3.842   1.261  24.226  0.00  0.00    +0.079 C 
BRANCH   2  25
ATOM     25  C   UNL     1      -4.475   1.281  24.755  0.00  0.00    +0.225 C 
ATOM     26  O   UNL     1      -4.813   0.577  25.022  0.00  0.00    -0.275 OA
ATOM     27  N   UNL     1      -4.770   2.006  25.018  0.00  0.00    -0.280 N 
ATOM     28  C   UNL     1      -5.401   2.027  25.547  0.00  0.00    +0.093 C 
ATOM     29  C   UNL     1      -5.697   2.750  25.810  0.00  0.00    +0.022 C 
ATOM     30  C   UNL     1      -5.358   3.454  25.543  0.00  0.00    +0.003 C 
ATOM     31  C   UNL     1      -5.653   4.179  25.806  0.00  0.00    +0.000 C 
ATOM     32  C   UNL     1      -4.727   3.433  25.015  0.00  0.00    +0.022 C 
ATOM     33  C   UNL     1      -4.432   2.710  24.751  0.00  0.00    +0.093 C 
ENDBRANCH   2  25
ENDBRANCH   3   2
TORSDOF 4
ENDMDL
MODEL 5
REMARK VINA RESULT:     -11.1      3.493      5.255
REMARK  Name = 
REMARK  4 active torsions:
REMARK  status: ('A' for Active; 'I' for Inactive)
REMARK    1  A    between atoms: C_2  and  C_3
REMARK    2  A    between atoms: C_2  and  C_25
REMARK    3  A    between atoms: C_10  and  N_11
REMARK    4  A    between atoms: C_12  and  C_14
REMARK                            x       y       z     vdW  Elec       q    Type
REMARK                         _______ _______ _______ _____ _____    ______ ____
ROOT
ATOM      3  C   UNL     1      -0.191   0.367  23.980  0.00  0.00    +0.039 C 
ATOM      4  C   UNL     1      -0.218  -0.404  24.277  0.00  0.00    +0.003 C 
ATOM      5  C   UNL     1      -0.909  -0.687  24.626  0.00  0.00    +0.000 C 
ATOM      6  C   UNL     1      -1.573  -0.202  24.679  0.00  0.00    +0.002 C 
ATOM      7  C   UNL     1      -1.600  -0.970  24.975  0.00  0.00    +0.000 C 
ATOM      8  C   UNL     1      -2.265  -0.485  25.028  0.00  0.00    +0.002 C 
ATOM      9  C   UNL     1      -2.929   0.000  25.080  0.00  0.00    +0.022 C 
ATOM     10  C   UNL     1      -2.903   0.770  24.783  0.00  0.00    +0.096 C 
ATOM     20  C   UNL     1      -2.212   1.054  24.434  0.00  0.00    +0.022 C 
ATOM     21  C   UNL     1      -2.185   1.823  24.137  0.00  0.00    +0.002 C 
ATOM     22  C   UNL     1      -1.546   0.568  24.381  0.00  0.00    +0.032 C 
ATOM     23  C   UNL     1      -0.855   0.852  24.032  0.00  0.00    +0.152 C 
ATOM     24  O   UNL     1      -0.829   1.621  23.736  0.00  0.00    -0.223 OA
ENDROOT
BRANCH  10  11
ATOM     11  N   UNL     1      -3.568   1.256  24.836  0.00  0.00    -0.202 NA
ATOM     12  C   UNL     1      -4.274   0.957  25.139  0.00  0.00    +0.284 C 
ATOM     13  O   UNL     1      -4.316   0.171  25.391  0.00  0.00    -0.267 OA
BRANCH  12  14
ATOM     14  C   UNL     1      -4.939   1.442  25.192  0.00  0.00    +0.155 A 
ATOM     15  C   UNL     1      -5.630   1.242  24.789  0.00  0.00    +0.123 A 
ATOM     16  N   UNL     1      -6.295   1.727  24.842  0.00  0.00    -0.239 NA
ATOM     17  C   UNL     1      -6.269   2.414  25.298  0.00  0.00    +0.120 A 
ATOM     18  C   UNL     1      -5.578   2.615  25.702  0.00  0.00    +0.120 A 
ATOM     19  N   UNL     1      -4.913   2.129  25.649  0.00  0.00    -0.236 NA
ENDBRANCH  12  14
ENDBRANCH  10  11
BRANCH   3   2
ATOM      1  C   UNL     1       0.832   1.361  23.886  0.00  0.00    +0.010 C 
ATOM      2  C   UNL     1       0.501   0.650  23.631  0.00  0.00    +0.079 C 
BRANCH   2  25
ATOM     25  C   UNL     1       0.863   0.221  23.026  0.00  0.00    +0.225 C 
ATOM     26  O   UNL     1       0.416  -0.298  22.563  0.00  0.00    -0.275 OA
ATOM     27  N   UNL     1       1.671   0.310  22.882  0.00  0.00    -0.280 N 
ATOM     28  C   UNL     1       2.032  -0.119  22.278  0.00  0.00    +0.093 C 
ATOM     29  C   UNL     1       2.839  -0.030  22.134  0.00  0.00    +0.022 C 
ATOM     30  C   UNL     1       3.285   0.488  22.596  0.00  0.00    +0.003 C 
ATOM     31  C   UNL     1       4.093   0.577  22.453  0.00  0.00    +0.000 C 
ATOM     32  C   UNL     1       2.924   0.916  23.200  0.00  0.00    +0.022 C 
ATOM     33  C   UNL     1       2.116   0.828  23.344  0.00  0.00    +0.093 C 
ENDBRANCH   2  25
ENDBRANCH   3   2
TORSDOF 4
ENDMDL
MODEL 6
REMARK VINA RESULT:     -10.6      1.856      2.789
REMARK  Name = 
REMARK  4 active torsions:
REMARK  status: ('A' for Active; 'I' for Inactive)
REMARK    1  A    between atoms: C_2  and  C_3
REMARK    2  A    between atoms: C_2  and  C_25
REMARK    3  A    between atoms: C_10  and  N_11
REMARK    4  A    between atoms: C_12  and  C_14
REMARK                            x       y       z     vdW  Elec       q    Type
REMARK                         _______ _______ _______ _____ _____    ______ ____
ROOT
ATOM      3  C   UNL     1      -1.622  -0.624  25.081  0.00  0.00    +0.039 C 
ATOM      4  C   UNL     1      -0.874  -0.838  24.804  0.00  0.00    +0.003 C 
ATOM      5  C   UNL     1      -0.352  -0.260  24.536  0.00  0.00    +0.000 C 
ATOM      6  C   UNL     1      -0.576   0.534  24.544  0.00  0.00    +0.002 C 
ATOM      7  C   UNL     1       0.170   0.319  24.268  0.00  0.00    +0.000 C 
ATOM      8  C   UNL     1      -0.054   1.113  24.275  0.00  0.00    +0.002 C 
ATOM      9  C   UNL     1      -0.278   1.907  24.283  0.00  0.00    +0.022 C 
ATOM     10  C   UNL     1      -1.026   2.122  24.559  0.00  0.00    +0.096 C 
ATOM     20  C   UNL     1      -1.548   1.543  24.827  0.00  0.00    +0.022 C 
ATOM     21  C   UNL     1      -2.295   1.757  25.103  0.00  0.00    +0.002 C 
ATOM     22  C   UNL     1      -1.324   0.748  24.820  0.00  0.00    +0.032 C 
ATOM     23  C   UNL     1      -1.846   0.170  25.088  0.00  0.00    +0.152 C 
ATOM     24  O   UNL     1      -2.594   0.384  25.364  0.00  0.00    -0.223 OA
ENDROOT
BRANCH  10  11
ATOM     11  N   UNL     1      -1.250   2.916  24.567  0.00  0.00    -0.202 NA
ATOM     12  C   UNL     1      -0.822   3.462  25.012  0.00  0.00    +0.284 C 
ATOM     13  O   UNL     1      -0.168   3.213  25.451  0.00  0.00    -0.267 OA
BRANCH  12  14
ATOM     14  C   UNL     1      -1.046   4.256  25.019  0.00  0.00    +0.155 A 
ATOM     15  C   UNL     1      -0.555   4.826  24.684  0.00  0.00    +0.123 A 
ATOM     16  N   UNL     1      -0.779   5.621  24.691  0.00  0.00    -0.239 NA
ATOM     17  C   UNL     1      -1.495   5.843  25.035  0.00  0.00    +0.120 A 
ATOM     18  C   UNL     1      -1.987   5.272  25.371  0.00  0.00    +0.120 A 
ATOM     19  N   UNL     1      -1.762   4.478  25.363  0.00  0.00    -0.236 NA
ENDBRANCH  12  14
ENDBRANCH  10  11
BRANCH   3   2
ATOM      1  C   UNL     1      -2.625  -1.056  26.003  0.00  0.00    +0.010 C 
ATOM      2  C   UNL     1      -2.144  -1.203  25.349  0.00  0.00    +0.079 C 
BRANCH   2  25
ATOM     25  C   UNL     1      -2.186  -1.931  24.963  0.00  0.00    +0.225 C 
ATOM     26  O   UNL     1      -1.530  -2.434  24.957  0.00  0.00    -0.275 OA
ATOM     27  N   UNL     1      -2.882  -2.157  24.581  0.00  0.00    -0.280 N 
ATOM     28  C   UNL     1      -2.923  -2.884  24.195  0.00  0.00    +0.093 C 
ATOM     29  C   UNL     1      -3.619  -3.111  23.814  0.00  0.00    +0.022 C 
ATOM     30  C   UNL     1      -4.273  -2.608  23.820  0.00  0.00    +0.003 C 
ATOM     31  C   UNL     1      -4.970  -2.835  23.438  0.00  0.00    +0.000 C 
ATOM     32  C   UNL     1      -4.232  -1.882  24.206  0.00  0.00    +0.022 C 
ATOM     33  C   UNL     1      -3.536  -1.655  24.587  0.00  0.00    +0.093 C 
ENDBRANCH   2  25
ENDBRANCH   3   2
TORSDOF 4
ENDMDL
