MODEL 1
REMARK VINA RESULT:     -13.1      0.000      0.000
REMARK  Name = 
REMARK  4 active torsions:
REMARK  status: ('A' for Active; 'I' for Inactive)
REMARK    1  A    between atoms: C_1  and  C_2
REMARK    2  A    between atoms: C_1  and  C_18
REMARK    3  A    between atoms: C_5  and  C_7
REMARK    4  A    between atoms: N_10  and  C_12
REMARK                            x       y       z     vdW  Elec       q    Type
REMARK                         _______ _______ _______ _____ _____    ______ ____
ROOT
ATOM      2  C   UNL     1      -3.331   3.473  25.352  0.00  0.00    +0.230 A 
ATOM      3  N   UNL     1      -3.740   3.650  24.658  0.00  0.00    -0.111 NA
ATOM      4  N   UNL     1      -4.136   2.968  24.414  0.00  0.00    -0.112 NA
ATOM      5  C   UNL     1      -3.971   2.369  24.958  0.00  0.00    +0.227 A 
ATOM      6  O   UNL     1      -3.473   2.681  25.538  0.00  0.00    -0.423 OA
ENDROOT
BRANCH   5   7
ATOM      7  C   UNL     1      -4.254   1.595  24.927  0.00  0.00    +0.095 C 
ATOM      8  C   UNL     1      -5.045   1.365  24.990  0.00  0.00    +0.028 C 
ATOM      9  C   UNL     1      -5.076   0.543  24.930  0.00  0.00    +0.073 C 
ATOM     10  N   UNL     1      -4.306   0.265  24.831  0.00  0.00    -0.274 NA
ATOM     11  C   UNL     1      -3.798   0.915  24.829  0.00  0.00    +0.081 C 
BRANCH  10  12
ATOM     12  C   UNL     1      -4.083  -0.525  24.748  0.00  0.00    +0.058 C 
ATOM     13  C   UNL     1      -4.254  -0.931  24.051  0.00  0.00    +0.016 C 
ATOM     14  C   UNL     1      -4.031  -1.721  23.968  0.00  0.00    +0.001 C 
ATOM     15  C   UNL     1      -3.635  -2.105  24.584  0.00  0.00    +0.000 C 
ATOM     16  C   UNL     1      -3.465  -1.698  25.280  0.00  0.00    +0.001 C 
ATOM     17  C   UNL     1      -3.688  -0.908  25.363  0.00  0.00    +0.016 C 
ENDBRANCH  10  12
ENDBRANCH   5   7
BRANCH   2   1
ATOM      1  C   UNL     1      -2.861   3.995  25.785  0.00  0.00    +0.113 C 
BRANCH   1  18
ATOM     18  C   UNL     1      -2.109   4.195  25.513  0.00  0.00    -0.013 A 
ATOM     19  C   UNL     1      -1.492   3.650  25.568  0.00  0.00    -0.004 A 
ATOM     20  C   UNL     1      -0.738   3.850  25.296  0.00  0.00    -0.000 A 
ATOM     21  C   UNL     1      -0.603   4.595  24.968  0.00  0.00    -0.000 A 
ATOM     22  C   UNL     1      -1.220   5.140  24.912  0.00  0.00    -0.000 A 
ATOM     23  C   UNL     1      -1.972   4.940  25.185  0.00  0.00    -0.004 A 
ENDBRANCH   1  18
ENDBRANCH   2   1
TORSDOF 4
ENDMDL
MODEL 2
REMARK VINA RESULT:     -12.7      1.637      5.465
REMARK  Name = 
REMARK  4 active torsions:
REMARK  status: ('A' for Active; 'I' for Inactive)
REMARK    1  A    between atoms: C_1  and  C_2
REMARK    2  A    between atoms: C_1  and  C_18
REMARK    3  A    between atoms: C_5  and  C_7
REMARK    4  A    between atoms: N_10  and  C_12
REMARK                            x       y       z     vdW  Elec       q    Type
REMARK                         _______ _______ _______ _____ _____    ______ ____
ROOT
ATOM      2  C   UNL     1      -2.579  -0.497  25.482  0.00  0.00    +0.230 A 
ATOM      3  N   UNL     1      -1.781  -0.661  25.609  0.00  0.00    -0.111 NA
ATOM      4  N   UNL     1      -1.343  -0.003  25.370  0.00  0.00    -0.112 NA
ATOM      5  C   UNL     1      -1.871   0.568  25.094  0.00  0.00    +0.227 A 
ATOM      6  O   UNL     1      -2.635   0.263  25.164  0.00  0.00    -0.423 OA
ENDROOT
BRANCH   5   7
ATOM      7  C   UNL     1      -1.671   1.312  24.801  0.00  0.00    +0.095 C 
ATOM      8  C   UNL     1      -1.351   1.470  24.057  0.00  0.00    +0.028 C 
ATOM      9  C   UNL     1      -1.238   2.285  23.996  0.00  0.00    +0.073 C 
ATOM     10  N   UNL     1      -1.489   2.631  24.702  0.00  0.00    -0.274 NA
ATOM     11  C   UNL     1      -1.757   2.029  25.199  0.00  0.00    +0.081 C 
BRANCH  10  12
ATOM     12  C   UNL     1      -1.475   3.436  24.879  0.00  0.00    +0.058 C 
ATOM     13  C   UNL     1      -2.155   3.810  25.159  0.00  0.00    +0.016 C 
ATOM     14  C   UNL     1      -2.141   4.615  25.336  0.00  0.00    +0.001 C 
ATOM     15  C   UNL     1      -1.445   5.048  25.232  0.00  0.00    +0.000 C 
ATOM     16  C   UNL     1      -0.766   4.675  24.952  0.00  0.00    +0.001 C 
ATOM     17  C   UNL     1      -0.780   3.869  24.775  0.00  0.00    +0.016 C 
ENDBRANCH  10  12
ENDBRANCH   5   7
BRANCH   2   1
ATOM      1  C   UNL     1      -3.210  -1.003  25.644  0.00  0.00    +0.113 C 
BRANCH   1  18
ATOM     18  C   UNL     1      -3.485  -1.518  25.063  0.00  0.00    -0.013 A 
ATOM     19  C   UNL     1      -4.017  -1.248  24.492  0.00  0.00    -0.004 A 
ATOM     20  C   UNL     1      -4.293  -1.764  23.909  0.00  0.00    -0.000 A 
ATOM     21  C   UNL     1      -4.037  -2.548  23.898  0.00  0.00    -0.000 A 
ATOM     22  C   UNL     1      -3.506  -2.817  24.469  0.00  0.00    -0.000 A 
ATOM     23  C   UNL     1      -3.230  -2.302  25.051  0.00  0.00    -0.004 A 
ENDBRANCH   1  18
ENDBRANCH   2   1
TORSDOF 4
ENDMDL
MODEL 3
REMARK VINA RESULT:     -12.5      1.912      2.466
REMARK  Name = 
REMARK  4 active torsions:
REMARK  status: ('A' for Active; 'I' for Inactive)
REMARK    1  A    between atoms: C_1  and  C_2
REMARK    2  A    between atoms: C_1  and  C_18
REMARK    3  A    between atoms: C_5  and  C_7
REMARK    4  A    between atoms: N_10  and  C_12
REMARK                            x       y       z     vdW  Elec       q    Type
REMARK                         _______ _______ _______ _____ _____    ______ ____
ROOT
ATOM      2  C   UNL     1      -0.571   1.976  25.551  0.00  0.00    +0.230 A 
ATOM      3  N   UNL     1      -0.168   1.713  24.881  0.00  0.00    -0.111 NA
ATOM      4  N   UNL     1      -0.443   0.957  24.697  0.00  0.00    -0.112 NA
ATOM      5  C   UNL     1      -1.017   0.753  25.252  0.00  0.00    +0.227 A 
ATOM      6  O   UNL     1      -1.097   1.382  25.781  0.00  0.00    -0.423 OA
ENDROOT
BRANCH   5   7
ATOM      7  C   UNL     1      -1.437   0.044  25.277  0.00  0.00    +0.095 C 
ATOM      8  C   UNL     1      -1.292  -0.590  25.785  0.00  0.00    +0.028 C 
ATOM      9  C   UNL     1      -1.841  -1.182  25.620  0.00  0.00    +0.073 C 
ATOM     10  N   UNL     1      -2.327  -0.915  25.009  0.00  0.00    -0.274 NA
ATOM     11  C   UNL     1      -2.078  -0.157  24.797  0.00  0.00    +0.081 C 
BRANCH  10  12
ATOM     12  C   UNL     1      -2.953  -1.332  24.670  0.00  0.00    +0.058 C 
ATOM     13  C   UNL     1      -3.591  -0.925  24.341  0.00  0.00    +0.016 C 
ATOM     14  C   UNL     1      -4.216  -1.341  24.002  0.00  0.00    +0.001 C 
ATOM     15  C   UNL     1      -4.204  -2.168  23.991  0.00  0.00    +0.000 C 
ATOM     16  C   UNL     1      -3.567  -2.574  24.320  0.00  0.00    +0.001 C 
ATOM     17  C   UNL     1      -2.941  -2.157  24.659  0.00  0.00    +0.016 C 
ENDBRANCH  10  12
ENDBRANCH   5   7
BRANCH   2   1
ATOM      1  C   UNL     1      -0.469   2.704  25.925  0.00  0.00    +0.113 C 
BRANCH   1  18
ATOM     18  C   UNL     1      -0.903   3.359  25.677  0.00  0.00    -0.013 A 
ATOM     19  C   UNL     1      -1.663   3.485  25.970  0.00  0.00    -0.004 A 
ATOM     20  C   UNL     1      -2.098   4.142  25.722  0.00  0.00    -0.000 A 
ATOM     21  C   UNL     1      -1.771   4.672  25.181  0.00  0.00    -0.000 A 
ATOM     22  C   UNL     1      -1.011   4.546  24.888  0.00  0.00    -0.000 A 
ATOM     23  C   UNL     1      -0.577   3.890  25.136  0.00  0.00    -0.004 A 
ENDBRANCH   1  18
ENDBRANCH   2   1
TORSDOF 4
ENDMDL
