MODEL 1
REMARK VINA RESULT:      -9.9      0.000      0.000
REMARK  Name = 
REMARK  8 active torsions:
REMARK  status: ('A' for Active; 'I' for Inactive)
REMARK    1  A    between atoms: C_4  and  C_7
REMARK    2  A    between atoms: C_12  and  N_28
REMARK    3  A    between atoms: C_14  and  C_15
REMARK    4  A    between atoms: N_17  and  C_18
REMARK    5  A    between atoms: C_18  and  C_19
REMARK    6  A    between atoms: C_18  and  C_25
REMARK    7  A    between atoms: C_19  and  C_20
REMARK    8  A    between atoms: C_29  and  C_31
REMARK                            x       y       z     vdW  Elec       q    Type
REMARK                         _______ _______ _______ _____ _____    ______ ____
ROOT
ATOM      7  C   UNL     1      -2.744  -0.285  24.817  0.00  0.00    +0.268 C 
ATOM      8  O   UNL     1      -3.245   0.350  24.973  0.00  0.00    -0.268 OA
ATOM      9  N   UNL     1      -1.953  -0.149  24.621  0.00  0.00    -0.268 N 
ATOM     10  C   UNL     1      -1.451  -0.783  24.465  0.00  0.00    +0.096 C 
ATOM     11  C   UNL     1      -0.661  -0.647  24.269  0.00  0.00    +0.043 C 
ATOM     12  C   UNL     1      -0.374   0.126  24.230  0.00  0.00    +0.100 C 
ATOM     13  C   UNL     1      -0.877   0.762  24.387  0.00  0.00    +0.051 C 
ATOM     14  C   UNL     1      -1.667   0.624  24.582  0.00  0.00    +0.155 C 
ENDROOT
BRANCH   7   4
ATOM      1  C   UNL     1      -3.947  -2.825  24.086  0.00  0.00    +0.059 C 
ATOM      2  C   UNL     1      -3.584  -2.225  24.520  0.00  0.00    +0.089 A 
ATOM      3  N   UNL     1      -3.380  -1.477  24.238  0.00  0.00    -0.238 NA
ATOM      4  C   UNL     1      -3.031  -1.058  24.856  0.00  0.00    +0.141 A 
ATOM      5  C   UNL     1      -3.018  -1.547  25.520  0.00  0.00    +0.060 A 
ATOM      6  S   UNL     1      -3.360  -2.268  25.313  0.00  0.00    -0.070 S 
ENDBRANCH   7   4
BRANCH  14  15
ATOM     15  C   UNL     1      -2.169   1.260  24.739  0.00  0.00    +0.260 C 
ATOM     16  O   UNL     1      -2.789   1.174  25.276  0.00  0.00    -0.272 OA
ATOM     17  N   UNL     1      -2.051   1.982  24.356  0.00  0.00    -0.196 NA
BRANCH  17  18
ATOM     18  C   UNL     1      -2.552   2.617  24.512  0.00  0.00    +0.179 C 
BRANCH  18  25
ATOM     25  C   UNL     1      -3.167   2.796  23.991  0.00  0.00    +0.281 C 
ATOM     26  N   UNL     1      -3.918   2.972  24.283  0.00  0.00    -0.086 NA
ATOM     27  O   UNL     1      -3.029   2.800  23.178  0.00  0.00    -0.270 OA
ENDBRANCH  18  25
BRANCH  18  19
ATOM     19  C   UNL     1      -2.441   3.075  25.190  0.00  0.00    +0.064 C 
BRANCH  19  20
ATOM     20  C   UNL     1      -1.959   3.743  25.162  0.00  0.00    +0.010 A 
ATOM     21  C   UNL     1      -1.160   3.757  24.954  0.00  0.00    +0.003 A 
ATOM     22  C   UNL     1      -0.898   4.538  25.001  0.00  0.00    +0.007 A 
ATOM     23  C   UNL     1      -1.534   5.006  25.239  0.00  0.00    +0.035 A 
ATOM     24  S   UNL     1      -2.189   4.515  25.339  0.00  0.00    -0.091 S 
ENDBRANCH  19  20
ENDBRANCH  18  19
ENDBRANCH  17  18
ENDBRANCH  14  15
BRANCH  12  28
ATOM     28  N   UNL     1       0.415   0.264  24.034  0.00  0.00    -0.202 NA
ATOM     29  C   UNL     1       0.670   0.168  23.255  0.00  0.00    +0.284 C 
ATOM     30  O   UNL     1       0.135  -0.066  22.673  0.00  0.00    -0.267 OA
BRANCH  29  31
ATOM     31  C   UNL     1       1.459   0.305  23.060  0.00  0.00    +0.155 A 
ATOM     32  C   UNL     1       1.864   0.939  23.399  0.00  0.00    +0.123 A 
ATOM     33  N   UNL     1       2.653   1.077  23.203  0.00  0.00    -0.239 NA
ATOM     34  C   UNL     1       3.039   0.580  22.669  0.00  0.00    +0.120 A 
ATOM     35  C   UNL     1       2.634  -0.054  22.330  0.00  0.00    +0.120 A 
ATOM     36  N   UNL     1       1.845  -0.192  22.526  0.00  0.00    -0.236 NA
ENDBRANCH  29  31
ENDBRANCH  12  28
TORSDOF 8
ENDMDL
MODEL 2
REMARK VINA RESULT:      -8.9      2.508      4.466
REMARK  Name = 
REMARK  8 active torsions:
REMARK  status: ('A' for Active; 'I' for Inactive)
REMARK    1  A    between atoms: C_4  and  C_7
REMARK    2  A    between atoms: C_12  and  N_28
REMARK    3  A    between atoms: C_14  and  C_15
REMARK    4  A    between atoms: N_17  and  C_18
REMARK    5  A    between atoms: C_18  and  C_19
REMARK    6  A    between atoms: C_18  and  C_25
REMARK    7  A    between atoms: C_19  and  C_20
REMARK    8  A    between atoms: C_29  and  C_31
REMARK                            x       y       z     vdW  Elec       q    Type
REMARK                         _______ _______ _______ _____ _____    ______ ____
ROOT
ATOM      7  C   UNL     1      -1.423   2.413  25.406  0.00  0.00    +0.268 C 
ATOM      8  O   UNL     1      -1.874   3.095  25.300  0.00  0.00    -0.268 OA
ATOM      9  N   UNL     1      -1.710   1.684  25.147  0.00  0.00    -0.268 N 
ATOM     10  C   UNL     1      -1.259   1.002  25.253  0.00  0.00    +0.096 C 
ATOM     11  C   UNL     1      -1.546   0.273  24.994  0.00  0.00    +0.043 C 
ATOM     12  C   UNL     1      -2.285   0.227  24.629  0.00  0.00    +0.100 C 
ATOM     13  C   UNL     1      -2.736   0.910  24.523  0.00  0.00    +0.051 C 
ATOM     14  C   UNL     1      -2.449   1.639  24.783  0.00  0.00    +0.155 C 
ENDROOT
BRANCH   7   4
ATOM      1  C   UNL     1       0.658   2.495  27.430  0.00  0.00    +0.059 C 
ATOM      2  C   UNL     1       0.272   2.497  26.701  0.00  0.00    +0.089 A 
ATOM      3  N   UNL     1      -0.542   2.432  26.582  0.00  0.00    -0.238 NA
ATOM      4  C   UNL     1      -0.684   2.460  25.771  0.00  0.00    +0.141 A 
ATOM      5  C   UNL     1       0.042   2.541  25.387  0.00  0.00    +0.060 A 
ATOM      6  S   UNL     1       0.633   2.564  25.961  0.00  0.00    -0.070 S 
ENDBRANCH   7   4
BRANCH  14  15
ATOM     15  C   UNL     1      -2.901   2.321  24.677  0.00  0.00    +0.260 C 
ATOM     16  O   UNL     1      -2.553   3.064  24.765  0.00  0.00    -0.272 OA
ATOM     17  N   UNL     1      -3.700   2.259  24.482  0.00  0.00    -0.196 NA
BRANCH  17  18
ATOM     18  C   UNL     1      -4.152   2.940  24.376  0.00  0.00    +0.179 C 
BRANCH  18  25
ATOM     25  C   UNL     1      -4.112   3.356  23.664  0.00  0.00    +0.281 C 
ATOM     26  N   UNL     1      -4.082   4.180  23.669  0.00  0.00    -0.086 NA
ATOM     27  O   UNL     1      -4.102   2.947  22.949  0.00  0.00    -0.270 OA
ENDBRANCH  18  25
BRANCH  18  19
ATOM     19  C   UNL     1      -4.645   3.207  24.982  0.00  0.00    +0.064 C 
BRANCH  19  20
ATOM     20  C   UNL     1      -5.281   2.745  25.231  0.00  0.00    +0.010 A 
ATOM     21  C   UNL     1      -5.734   2.246  24.755  0.00  0.00    +0.003 A 
ATOM     22  C   UNL     1      -6.309   1.893  25.229  0.00  0.00    +0.007 A 
ATOM     23  C   UNL     1      -6.212   2.174  25.998  0.00  0.00    +0.035 A 
ATOM     24  S   UNL     1      -5.577   2.700  26.000  0.00  0.00    -0.091 S 
ENDBRANCH  19  20
ENDBRANCH  18  19
ENDBRANCH  17  18
ENDBRANCH  14  15
BRANCH  12  28
ATOM     28  N   UNL     1      -2.572  -0.502  24.370  0.00  0.00    -0.202 NA
ATOM     29  C   UNL     1      -3.055  -0.954  24.863  0.00  0.00    +0.284 C 
ATOM     30  O   UNL     1      -3.250  -0.677  25.615  0.00  0.00    -0.267 OA
BRANCH  29  31
ATOM     31  C   UNL     1      -3.342  -1.682  24.604  0.00  0.00    +0.155 A 
ATOM     32  C   UNL     1      -4.010  -1.714  24.120  0.00  0.00    +0.123 A 
ATOM     33  N   UNL     1      -4.297  -2.442  23.861  0.00  0.00    -0.239 NA
ATOM     34  C   UNL     1      -3.917  -3.139  24.086  0.00  0.00    +0.120 A 
ATOM     35  C   UNL     1      -3.250  -3.107  24.570  0.00  0.00    +0.120 A 
ATOM     36  N   UNL     1      -2.963  -2.379  24.829  0.00  0.00    -0.236 NA
ENDBRANCH  29  31
ENDBRANCH  12  28
TORSDOF 8
ENDMDL
MODEL 3
REMARK VINA RESULT:      -8.9      1.814      5.048
REMARK  Name = 
REMARK  8 active torsions:
REMARK  status: ('A' for Active; 'I' for Inactive)
REMARK    1  A    between atoms: C_4  and  C_7
REMARK    2  A    between atoms: C_12  and  N_28
REMARK    3  A    between atoms: C_14  and  C_15
REMARK    4  A    between atoms: N_17  and  C_18
REMARK    5  A    between atoms: C_18  and  C_19
REMARK    6  A    between atoms: C_18  and  C_25
REMARK    7  A    between atoms: C_19  and  C_20
REMARK    8  A    between atoms: C_29  and  C_31
REMARK                            x       y       z     vdW  Elec       q    Type
REMARK                         _______ _______ _______ _____ _____    ______ ____
ROOT
ATOM      7  C   UNL     1       0.433  -0.146  23.564  0.00  0.00    +0.268 C 
ATOM      8  O   UNL     1       0.185  -0.877  23.852  0.00  0.00    -0.268 OA
ATOM      9  N   UNL     1       0.019   0.540  23.765  0.00  0.00    -0.268 N 
ATOM     10  C   UNL     1       0.267   1.271  23.476  0.00  0.00    +0.096 C 
ATOM     11  C   UNL     1      -0.147   1.956  23.677  0.00  0.00    +0.043 C 
ATOM     12  C   UNL     1      -0.809   1.909  24.167  0.00  0.00    +0.100 C 
ATOM     13  C   UNL     1      -1.057   1.176  24.456  0.00  0.00    +0.051 C 
ATOM     14  C   UNL     1      -0.643   0.491  24.254  0.00  0.00    +0.155 C 
ENDROOT
BRANCH   7   4
ATOM      1  C   UNL     1       3.137   0.319  22.613  0.00  0.00    +0.059 C 
ATOM      2  C   UNL     1       2.338   0.115  22.637  0.00  0.00    +0.089 A 
ATOM      3  N   UNL     1       1.847   0.157  23.298  0.00  0.00    -0.238 NA
ATOM      4  C   UNL     1       1.096  -0.098  23.074  0.00  0.00    +0.141 A 
ATOM      5  C   UNL     1       1.122  -0.297  22.273  0.00  0.00    +0.060 A 
ATOM      6  S   UNL     1       1.890  -0.165  22.003  0.00  0.00    -0.070 S 
ENDBRANCH   7   4
BRANCH  14  15
ATOM     15  C   UNL     1      -0.891  -0.240  24.543  0.00  0.00    +0.260 C 
ATOM     16  O   UNL     1      -0.339  -0.835  24.692  0.00  0.00    -0.272 OA
ATOM     17  N   UNL     1      -1.693  -0.377  24.683  0.00  0.00    -0.196 NA
BRANCH  17  18
ATOM     18  C   UNL     1      -1.942  -1.108  24.972  0.00  0.00    +0.179 C 
BRANCH  18  25
ATOM     25  C   UNL     1      -1.935  -1.256  25.784  0.00  0.00    +0.281 C 
ATOM     26  N   UNL     1      -2.313  -0.736  26.301  0.00  0.00    -0.086 NA
ATOM     27  O   UNL     1      -1.550  -1.923  26.078  0.00  0.00    -0.270 OA
ENDBRANCH  18  25
BRANCH  18  19
ATOM     19  C   UNL     1      -2.199  -1.693  24.449  0.00  0.00    +0.064 C 
BRANCH  19  20
ATOM     20  C   UNL     1      -2.999  -1.758  24.263  0.00  0.00    +0.010 A 
ATOM     21  C   UNL     1      -3.492  -1.142  24.021  0.00  0.00    +0.003 A 
ATOM     22  C   UNL     1      -4.246  -1.453  23.894  0.00  0.00    +0.007 A 
ATOM     23  C   UNL     1      -4.218  -2.261  24.057  0.00  0.00    +0.035 A 
ATOM     24  S   UNL     1      -3.448  -2.449  24.285  0.00  0.00    -0.091 S 
ENDBRANCH  19  20
ENDBRANCH  18  19
ENDBRANCH  17  18
ENDBRANCH  14  15
BRANCH  12  28
ATOM     28  N   UNL     1      -1.223   2.593  24.368  0.00  0.00    -0.202 NA
ATOM     29  C   UNL     1      -0.962   3.065  24.993  0.00  0.00    +0.284 C 
ATOM     30  O   UNL     1      -0.287   2.852  25.416  0.00  0.00    -0.267 OA
BRANCH  29  31
ATOM     31  C   UNL     1      -1.376   3.749  25.194  0.00  0.00    +0.155 A 
ATOM     32  C   UNL     1      -1.066   4.490  25.005  0.00  0.00    +0.123 A 
ATOM     33  N   UNL     1      -1.480   5.174  25.206  0.00  0.00    -0.239 NA
ATOM     34  C   UNL     1      -2.204   5.118  25.597  0.00  0.00    +0.120 A 
ATOM     35  C   UNL     1      -2.514   4.377  25.786  0.00  0.00    +0.120 A 
ATOM     36  N   UNL     1      -2.100   3.693  25.585  0.00  0.00    -0.236 NA
ENDBRANCH  29  31
ENDBRANCH  12  28
TORSDOF 8
ENDMDL
MODEL 4
REMARK VINA RESULT:      -8.5      1.166      4.194
REMARK  Name = 
REMARK  8 active torsions:
REMARK  status: ('A' for Active; 'I' for Inactive)
REMARK    1  A    between atoms: C_4  and  C_7
REMARK    2  A    between atoms: C_12  and  N_28
REMARK    3  A    between atoms: C_14  and  C_15
REMARK    4  A    between atoms: N_17  and  C_18
REMARK    5  A    between atoms: C_18  and  C_19
REMARK    6  A    between atoms: C_18  and  C_25
REMARK    7  A    between atoms: C_19  and  C_20
REMARK    8  A    between atoms: C_29  and  C_31
REMARK                            x       y       z     vdW  Elec       q    Type
REMARK                         _______ _______ _______ _____ _____    ______ ____
ROOT
ATOM      7  C   UNL     1      -2.956   2.077  24.956  0.00  0.00    +0.268 C 
ATOM      8  O   UNL     1      -3.484   1.576  25.343  0.00  0.00    -0.268 OA
ATOM      9  N   UNL     1      -2.298   1.764  24.569  0.00  0.00    -0.268 N 
ATOM     10  C   UNL     1      -1.770   2.265  24.182  0.00  0.00    +0.096 C 
ATOM     11  C   UNL     1      -1.111   1.951  23.795  0.00  0.00    +0.043 C 
ATOM     12  C   UNL     1      -0.982   1.136  23.796  0.00  0.00    +0.100 C 
ATOM     13  C   UNL     1      -1.511   0.635  24.184  0.00  0.00    +0.051 C 
ATOM     14  C   UNL     1      -2.169   0.949  24.570  0.00  0.00    +0.155 C 
ENDROOT
BRANCH   7   4
ATOM      1  C   UNL     1      -2.836   4.893  25.654  0.00  0.00    +0.059 C 
ATOM      2  C   UNL     1      -3.030   4.186  25.276  0.00  0.00    +0.089 A 
ATOM      3  N   UNL     1      -2.750   3.436  25.476  0.00  0.00    -0.238 NA
ATOM      4  C   UNL     1      -3.086   2.892  24.955  0.00  0.00    +0.141 A 
ATOM      5  C   UNL     1      -3.573   3.305  24.433  0.00  0.00    +0.060 A 
ATOM      6  S   UNL     1      -3.539   4.105  24.631  0.00  0.00    -0.070 S 
ENDBRANCH   7   4
BRANCH  14  15
ATOM     15  C   UNL     1      -2.697   0.447  24.958  0.00  0.00    +0.260 C 
ATOM     16  O   UNL     1      -3.351   0.760  25.351  0.00  0.00    -0.272 OA
ATOM     17  N   UNL     1      -2.571  -0.369  24.951  0.00  0.00    -0.196 NA
BRANCH  17  18
ATOM     18  C   UNL     1      -3.098  -0.870  25.338  0.00  0.00    +0.179 C 
BRANCH  18  25
ATOM     25  C   UNL     1      -2.920  -1.155  26.092  0.00  0.00    +0.281 C 
ATOM     26  N   UNL     1      -2.145  -1.364  26.281  0.00  0.00    -0.086 NA
ATOM     27  O   UNL     1      -3.517  -1.232  26.655  0.00  0.00    -0.270 OA
ENDBRANCH  18  25
BRANCH  18  19
ATOM     19  C   UNL     1      -3.805  -1.088  24.972  0.00  0.00    +0.064 C 
BRANCH  19  20
ATOM     20  C   UNL     1      -3.833  -1.761  24.497  0.00  0.00    +0.010 A 
ATOM     21  C   UNL     1      -3.407  -2.458  24.615  0.00  0.00    +0.003 A 
ATOM     22  C   UNL     1      -3.603  -2.983  24.010  0.00  0.00    +0.007 A 
ATOM     23  C   UNL     1      -4.151  -2.611  23.518  0.00  0.00    +0.035 A 
ATOM     24  S   UNL     1      -4.293  -1.857  23.818  0.00  0.00    -0.091 S 
ENDBRANCH  19  20
ENDBRANCH  18  19
ENDBRANCH  17  18
ENDBRANCH  14  15
BRANCH  12  28
ATOM     28  N   UNL     1      -0.325   0.823  23.410  0.00  0.00    -0.202 NA
ATOM     29  C   UNL     1       0.432   0.946  23.716  0.00  0.00    +0.284 C 
ATOM     30  O   UNL     1       0.530   1.382  24.409  0.00  0.00    -0.267 OA
BRANCH  29  31
ATOM     31  C   UNL     1       1.089   0.632  23.330  0.00  0.00    +0.155 A 
ATOM     32  C   UNL     1       1.009  -0.041  22.859  0.00  0.00    +0.123 A 
ATOM     33  N   UNL     1       1.667  -0.355  22.472  0.00  0.00    -0.239 NA
ATOM     34  C   UNL     1       2.405   0.004  22.556  0.00  0.00    +0.120 A 
ATOM     35  C   UNL     1       2.485   0.677  23.027  0.00  0.00    +0.120 A 
ATOM     36  N   UNL     1       1.827   0.991  23.413  0.00  0.00    -0.236 NA
ENDBRANCH  29  31
ENDBRANCH  12  28
TORSDOF 8
ENDMDL
MODEL 5
REMARK VINA RESULT:      -8.5      1.741      4.387
REMARK  Name = 
REMARK  8 active torsions:
REMARK  status: ('A' for Active; 'I' for Inactive)
REMARK    1  A    between atoms: C_4  and  C_7
REMARK    2  A    between atoms: C_12  and  N_28
REMARK    3  A    between atoms: C_14  and  C_15
REMARK    4  A    between atoms: N_17  and  C_18
REMARK    5  A    between atoms: C_18  and  C_19
REMARK    6  A    between atoms: C_18  and  C_25
REMARK    7  A    between atoms: C_19  and  C_20
REMARK    8  A    between atoms: C_29  and  C_31
REMARK                            x       y       z     vdW  Elec       q    Type
REMARK                         _______ _______ _______ _____ _____    ______ ____
ROOT
ATOM      7  C   UNL     1      -2.673  -1.122  24.616  0.00  0.00    +0.268 C 
ATOM      8  O   UNL     1      -1.861  -1.098  24.476  0.00  0.00    -0.268 OA
ATOM      9  N   UNL     1      -3.074  -0.436  24.841  0.00  0.00    -0.268 N 
ATOM     10  C   UNL     1      -3.886  -0.460  24.981  0.00  0.00    +0.096 C 
ATOM     11  C   UNL     1      -4.287   0.226  25.206  0.00  0.00    +0.043 C 
ATOM     12  C   UNL     1      -3.874   0.935  25.290  0.00  0.00    +0.100 C 
ATOM     13  C   UNL     1      -3.061   0.959  25.150  0.00  0.00    +0.051 C 
ATOM     14  C   UNL     1      -2.661   0.273  24.925  0.00  0.00    +0.155 C 
ENDROOT
BRANCH   7   4
ATOM      1  C   UNL     1      -4.358  -3.226  23.536  0.00  0.00    +0.059 C 
ATOM      2  C   UNL     1      -3.860  -2.798  24.036  0.00  0.00    +0.089 A 
ATOM      3  N   UNL     1      -3.554  -2.047  23.889  0.00  0.00    -0.238 NA
ATOM      4  C   UNL     1      -3.086  -1.832  24.532  0.00  0.00    +0.141 A 
ATOM      5  C   UNL     1      -3.103  -2.450  25.078  0.00  0.00    +0.060 A 
ATOM      6  S   UNL     1      -3.581  -3.048  24.771  0.00  0.00    -0.070 S 
ENDBRANCH   7   4
BRANCH  14  15
ATOM     15  C   UNL     1      -1.848   0.297  24.784  0.00  0.00    +0.260 C 
ATOM     16  O   UNL     1      -1.385  -0.370  24.925  0.00  0.00    -0.272 OA
ATOM     17  N   UNL     1      -1.499   0.991  24.504  0.00  0.00    -0.196 NA
BRANCH  17  18
ATOM     18  C   UNL     1      -0.687   1.016  24.363  0.00  0.00    +0.179 C 
BRANCH  18  25
ATOM     25  C   UNL     1      -0.393   0.852  23.610  0.00  0.00    +0.281 C 
ATOM     26  N   UNL     1       0.265   0.364  23.521  0.00  0.00    -0.086 NA
ATOM     27  O   UNL     1      -0.758   1.176  22.945  0.00  0.00    -0.270 OA
ENDBRANCH  18  25
BRANCH  18  19
ATOM     19  C   UNL     1      -0.168   1.204  24.976  0.00  0.00    +0.064 C 
BRANCH  19  20
ATOM     20  C   UNL     1      -0.119   1.980  25.252  0.00  0.00    +0.010 A 
ATOM     21  C   UNL     1      -0.122   2.662  24.787  0.00  0.00    +0.003 A 
ATOM     22  C   UNL     1      -0.064   3.313  25.290  0.00  0.00    +0.007 A 
ATOM     23  C   UNL     1      -0.025   3.034  26.065  0.00  0.00    +0.035 A 
ATOM     24  S   UNL     1      -0.059   2.211  26.042  0.00  0.00    -0.091 S 
ENDBRANCH  19  20
ENDBRANCH  18  19
ENDBRANCH  17  18
ENDBRANCH  14  15
BRANCH  12  28
ATOM     28  N   UNL     1      -4.273   1.621  25.515  0.00  0.00    -0.202 NA
ATOM     29  C   UNL     1      -4.623   2.101  24.942  0.00  0.00    +0.284 C 
ATOM     30  O   UNL     1      -4.572   1.895  24.145  0.00  0.00    -0.267 OA
BRANCH  29  31
ATOM     31  C   UNL     1      -5.023   2.787  25.166  0.00  0.00    +0.155 A 
ATOM     32  C   UNL     1      -5.766   2.733  25.521  0.00  0.00    +0.123 A 
ATOM     33  N   UNL     1      -6.166   3.419  25.746  0.00  0.00    -0.239 NA
ATOM     34  C   UNL     1      -5.823   4.158  25.616  0.00  0.00    +0.120 A 
ATOM     35  C   UNL     1      -5.080   4.211  25.261  0.00  0.00    +0.120 A 
ATOM     36  N   UNL     1      -4.680   3.526  25.036  0.00  0.00    -0.236 NA
ENDBRANCH  29  31
ENDBRANCH  12  28
TORSDOF 8
ENDMDL
MODEL 6
REMARK VINA RESULT:      -8.1      2.191      4.731
REMARK  Name = 
REMARK  8 active torsions:
REMARK  status: ('A' for Active; 'I' for Inactive)
REMARK    1  A    between atoms: C_4  and  C_7
REMARK    2  A    between atoms: C_12  and  N_28
REMARK    3  A    between atoms: C_14  and  C_15
REMARK    4  A    between atoms: N_17  and  C_18
REMARK    5  A    between atoms: C_18  and  C_19
REMARK    6  A    between atoms: C_18  and  C_25
REMARK    7  A    between atoms: C_19  and  C_20
REMARK    8  A    between atoms: C_29  and  C_31
REMARK                            x       y       z     vdW  Elec       q    Type
REMARK                         _______ _______ _______ _____ _____    ______ ____
ROOT
ATOM      7  C   UNL     1      -3.590   2.846  25.185  0.00  0.00    +0.268 C 
ATOM      8  O   UNL     1      -2.866   3.240  25.191  0.00  0.00    -0.268 OA
ATOM      9  N   UNL     1      -3.629   2.056  24.948  0.00  0.00    -0.268 N 
ATOM     10  C   UNL     1      -4.353   1.663  24.943  0.00  0.00    +0.096 C 
ATOM     11  C   UNL     1      -4.392   0.873  24.706  0.00  0.00    +0.043 C 
ATOM     12  C   UNL     1      -3.705   0.478  24.474  0.00  0.00    +0.100 C 
ATOM     13  C   UNL     1      -2.980   0.873  24.480  0.00  0.00    +0.051 C 
ATOM     14  C   UNL     1      -2.942   1.663  24.717  0.00  0.00    +0.155 C 
ENDROOT
BRANCH   7   4
ATOM      1  C   UNL     1      -5.923   4.575  25.162  0.00  0.00    +0.059 C 
ATOM      2  C   UNL     1      -5.349   4.036  25.406  0.00  0.00    +0.089 A 
ATOM      3  N   UNL     1      -4.706   3.776  24.959  0.00  0.00    -0.238 NA
ATOM      4  C   UNL     1      -4.277   3.241  25.417  0.00  0.00    +0.141 A 
ATOM      5  C   UNL     1      -4.655   3.169  26.147  0.00  0.00    +0.060 A 
ATOM      6  S   UNL     1      -5.317   3.660  26.140  0.00  0.00    -0.070 S 
ENDBRANCH   7   4
BRANCH  14  15
ATOM     15  C   UNL     1      -2.217   2.057  24.723  0.00  0.00    +0.260 C 
ATOM     16  O   UNL     1      -2.177   2.850  24.503  0.00  0.00    -0.272 OA
ATOM     17  N   UNL     1      -1.532   1.655  24.948  0.00  0.00    -0.196 NA
BRANCH  17  18
ATOM     18  C   UNL     1      -0.808   2.049  24.954  0.00  0.00    +0.179 C 
BRANCH  18  25
ATOM     25  C   UNL     1      -0.504   2.345  25.662  0.00  0.00    +0.281 C 
ATOM     26  N   UNL     1      -0.224   3.120  25.698  0.00  0.00    -0.086 NA
ATOM     27  O   UNL     1      -0.480   1.865  26.332  0.00  0.00    -0.270 OA
ENDBRANCH  18  25
BRANCH  18  19
ATOM     19  C   UNL     1      -0.385   2.147  24.251  0.00  0.00    +0.064 C 
BRANCH  19  20
ATOM     20  C   UNL     1       0.115   1.549  23.984  0.00  0.00    +0.010 A 
ATOM     21  C   UNL     1      -0.112   0.786  23.767  0.00  0.00    +0.003 A 
ATOM     22  C   UNL     1       0.564   0.374  23.535  0.00  0.00    +0.007 A 
ATOM     23  C   UNL     1       1.209   0.883  23.608  0.00  0.00    +0.035 A 
ATOM     24  S   UNL     1       0.932   1.608  23.886  0.00  0.00    -0.091 S 
ENDBRANCH  19  20
ENDBRANCH  18  19
ENDBRANCH  17  18
ENDBRANCH  14  15
BRANCH  12  28
ATOM     28  N   UNL     1      -3.743  -0.311  24.238  0.00  0.00    -0.202 NA
ATOM     29  C   UNL     1      -3.796  -0.910  24.803  0.00  0.00    +0.284 C 
ATOM     30  O   UNL     1      -3.812  -0.718  25.605  0.00  0.00    -0.267 OA
BRANCH  29  31
ATOM     31  C   UNL     1      -3.834  -1.699  24.566  0.00  0.00    +0.155 A 
ATOM     32  C   UNL     1      -3.429  -2.278  24.993  0.00  0.00    +0.123 A 
ATOM     33  N   UNL     1      -3.467  -3.067  24.756  0.00  0.00    -0.239 NA
ATOM     34  C   UNL     1      -3.909  -3.278  24.093  0.00  0.00    +0.120 A 
ATOM     35  C   UNL     1      -4.314  -2.699  23.667  0.00  0.00    +0.120 A 
ATOM     36  N   UNL     1      -4.276  -1.910  23.903  0.00  0.00    -0.236 NA
ENDBRANCH  29  31
ENDBRANCH  12  28
TORSDOF 8
ENDMDL
MODEL 7
REMARK VINA RESULT:      -8.0      2.215      4.411
REMARK  Name = 
REMARK  8 active torsions:
REMARK  status: ('A' for Active; 'I' for Inactive)
REMARK    1  A    between atoms: C_4  and  C_7
REMARK    2  A    between atoms: C_12  and  N_28
REMARK    3  A    between atoms: C_14  and  C_15
REMARK    4  A    between atoms: N_17  and  C_18
REMARK    5  A    between atoms: C_18  and  C_19
REMARK    6  A    between atoms: C_18  and  C_25
REMARK    7  A    between atoms: C_19  and  C_20
REMARK    8  A    between atoms: C_29  and  C_31
REMARK                            x       y       z     vdW  Elec       q    Type
REMARK                         _______ _______ _______ _____ _____    ______ ____
ROOT
ATOM      7  C   UNL     1      -1.191  -0.235  24.855  0.00  0.00    +0.268 C 
ATOM      8  O   UNL     1      -0.525   0.242  24.764  0.00  0.00    -0.268 OA
ATOM      9  N   UNL     1      -1.926   0.107  25.013  0.00  0.00    -0.268 N 
ATOM     10  C   UNL     1      -2.592  -0.369  25.104  0.00  0.00    +0.096 C 
ATOM     11  C   UNL     1      -3.326  -0.027  25.261  0.00  0.00    +0.043 C 
ATOM     12  C   UNL     1      -3.393   0.793  25.328  0.00  0.00    +0.100 C 
ATOM     13  C   UNL     1      -2.725   1.270  25.237  0.00  0.00    +0.051 C 
ATOM     14  C   UNL     1      -1.991   0.927  25.079  0.00  0.00    +0.155 C 
ENDROOT
BRANCH   7   4
ATOM      1  C   UNL     1      -1.445  -2.956  23.873  0.00  0.00    +0.059 C 
ATOM      2  C   UNL     1      -1.241  -2.305  24.337  0.00  0.00    +0.089 A 
ATOM      3  N   UNL     1      -1.440  -1.519  24.185  0.00  0.00    -0.238 NA
ATOM      4  C   UNL     1      -1.125  -1.055  24.789  0.00  0.00    +0.141 A 
ATOM      5  C   UNL     1      -0.731  -1.554  25.315  0.00  0.00    +0.060 A 
ATOM      6  S   UNL     1      -0.803  -2.326  25.036  0.00  0.00    -0.070 S 
ENDBRANCH   7   4
BRANCH  14  15
ATOM     15  C   UNL     1      -1.325   1.404  24.988  0.00  0.00    +0.260 C 
ATOM     16  O   UNL     1      -0.759   1.218  24.418  0.00  0.00    -0.272 OA
ATOM     17  N   UNL     1      -1.225   2.068  25.469  0.00  0.00    -0.196 NA
BRANCH  17  18
ATOM     18  C   UNL     1      -0.559   2.545  25.378  0.00  0.00    +0.179 C 
BRANCH  18  25
ATOM     25  C   UNL     1       0.080   2.466  25.895  0.00  0.00    +0.281 C 
ATOM     26  N   UNL     1      -0.046   2.475  26.710  0.00  0.00    -0.086 NA
ATOM     27  O   UNL     1       0.843   2.377  25.597  0.00  0.00    -0.270 OA
ENDBRANCH  18  25
BRANCH  18  19
ATOM     19  C   UNL     1      -0.530   3.103  24.770  0.00  0.00    +0.064 C 
BRANCH  19  20
ATOM     20  C   UNL     1      -0.832   3.860  24.891  0.00  0.00    +0.010 A 
ATOM     21  C   UNL     1      -1.524   4.048  25.300  0.00  0.00    +0.003 A 
ATOM     22  C   UNL     1      -1.615   4.868  25.285  0.00  0.00    +0.007 A 
ATOM     23  C   UNL     1      -0.980   5.187  24.867  0.00  0.00    +0.035 A 
ATOM     24  S   UNL     1      -0.496   4.565  24.623  0.00  0.00    -0.091 S 
ENDBRANCH  19  20
ENDBRANCH  18  19
ENDBRANCH  17  18
ENDBRANCH  14  15
BRANCH  12  28
ATOM     28  N   UNL     1      -4.126   1.136  25.486  0.00  0.00    -0.202 NA
ATOM     29  C   UNL     1      -4.543   1.514  24.882  0.00  0.00    +0.284 C 
ATOM     30  O   UNL     1      -4.226   1.548  24.121  0.00  0.00    -0.267 OA
BRANCH  29  31
ATOM     31  C   UNL     1      -5.277   1.857  25.039  0.00  0.00    +0.155 A 
ATOM     32  C   UNL     1      -5.968   1.496  24.768  0.00  0.00    +0.123 A 
ATOM     33  N   UNL     1      -6.701   1.839  24.925  0.00  0.00    -0.239 NA
ATOM     34  C   UNL     1      -6.744   2.542  25.354  0.00  0.00    +0.120 A 
ATOM     35  C   UNL     1      -6.053   2.902  25.626  0.00  0.00    +0.120 A 
ATOM     36  N   UNL     1      -5.320   2.560  25.468  0.00  0.00    -0.236 NA
ENDBRANCH  29  31
ENDBRANCH  12  28
TORSDOF 8
ENDMDL
