REMARK  Name = 
REMARK  9 active torsions:
REMARK  status: ('A' for Active; 'I' for Inactive)
REMARK    1  A    between atoms: C_2  and  C_4
REMARK    2  A    between atoms: C_6  and  C_7
REMARK    3  A    between atoms: C_7  and  C_8
REMARK    4  A    between atoms: C_11  and  C_13
REMARK    5  A    between atoms: C_20  and  C_21
REMARK    6  A    between atoms: C_21  and  N_22
REMARK    7  A    between atoms: N_22  and  C_23
REMARK    8  A    between atoms: C_23  and  C_24
REMARK    9  A    between atoms: C_27  and  C_30
REMARK                            x       y       z     vdW  Elec       q    Type
REMARK                         _______ _______ _______ _____ _____    ______ ____
ROOT
ATOM      4  C   UNL     1       2.858  -2.475   0.000  0.00  0.00    +0.006 C 
ATOM      5  C   UNL     1       3.572  -2.888   0.000  0.00  0.00    +0.005 C 
ATOM      6  C   UNL     1       3.572  -3.712   0.000  0.00  0.00    +0.027 C 
ATOM     17  C   UNL     1       2.858  -4.125   0.000  0.00  0.00    -0.048 C 
ATOM     18  C   UNL     1       2.858  -4.950   0.000  0.00  0.00    +0.026 C 
ATOM     19  C   UNL     1       2.143  -3.712   0.000  0.00  0.00    -0.033 C 
ATOM     20  C   UNL     1       2.143  -2.888   0.000  0.00  0.00    +0.039 C 
ENDROOT
BRANCH   4   2
ATOM      1  C   UNL     1       2.143  -1.238   0.000  0.00  0.00    +0.000 C 
ATOM      2  C   UNL     1       2.858  -1.650   0.000  0.00  0.00    +0.000 C 
ATOM      3  C   UNL     1       3.572  -1.238   0.000  0.00  0.00    +0.000 C 
ENDBRANCH   4   2
BRANCH   6   7
ATOM      7  C   UNL     1       4.287  -4.125   0.000  0.00  0.00    +0.091 C 
BRANCH   7   8
ATOM      8  C   UNL     1       4.287  -4.950   0.000  0.00  0.00    +0.226 A 
ATOM      9  N   UNL     1       4.954  -5.435   0.000  0.00  0.00    -0.112 NA
ATOM     10  N   UNL     1       4.699  -6.220   0.000  0.00  0.00    -0.112 NA
ATOM     11  C   UNL     1       3.874  -6.220   0.000  0.00  0.00    +0.225 A 
ATOM     12  O   UNL     1       3.619  -5.435   0.000  0.00  0.00    -0.423 OA
BRANCH  11  13
ATOM     13  C   UNL     1       3.389  -6.887   0.000  0.00  0.00    +0.070 C 
ATOM     14  C   UNL     1       2.905  -7.554   0.000  0.00  0.00    +0.009 C 
ATOM     15  C   UNL     1       4.057  -7.372   0.000  0.00  0.00    +0.009 C 
ATOM     16  C   UNL     1       2.722  -6.402   0.000  0.00  0.00    +0.009 C 
ENDBRANCH  11  13
ENDBRANCH   7   8
ENDBRANCH   6   7
BRANCH  20  21
ATOM     21  C   UNL     1       1.429  -2.475   0.000  0.00  0.00    +0.093 C 
BRANCH  21  22
ATOM     22  N   UNL     1       1.429  -1.650   0.000  0.00  0.00    -0.213 NA
BRANCH  22  23
ATOM     23  C   UNL     1       0.715  -1.238   0.000  0.00  0.00    +0.115 C 
BRANCH  23  24
ATOM     24  C   UNL     1       0.715  -0.412   0.000  0.00  0.00    -0.005 A 
ATOM     25  C   UNL     1       0.000   0.000   0.000  0.00  0.00    -0.002 A 
ATOM     26  C   UNL     1       0.000   0.825   0.000  0.00  0.00    +0.010 A 
ATOM     27  C   UNL     1       0.715   1.238   0.000  0.00  0.00    +0.068 A 
ATOM     28  C   UNL     1       1.429   0.825   0.000  0.00  0.00    +0.010 A 
ATOM     29  C   UNL     1       1.429   0.000   0.000  0.00  0.00    -0.002 A 
BRANCH  27  30
ATOM     30  C   UNL     1       0.715   2.062   0.000  0.00  0.00    +0.100 C 
ATOM     31  N   UNL     1       0.715   2.888   0.000  0.00  0.00    -0.191 NA
ENDBRANCH  27  30
ENDBRANCH  23  24
ENDBRANCH  22  23
ENDBRANCH  21  22
ENDBRANCH  20  21
TORSDOF 9
