MODEL 1
REMARK VINA RESULT:     -12.9      0.000      0.000
REMARK  Name = 
REMARK  6 active torsions:
REMARK  status: ('A' for Active; 'I' for Inactive)
REMARK    1  A    between atoms: C_2  and  C_4
REMARK    2  A    between atoms: C_7  and  C_8
REMARK    3  A    between atoms: C_8  and  N_9
REMARK    4  A    between atoms: C_13  and  C_14
REMARK    5  A    between atoms: C_16  and  C_19
REMARK    6  A    between atoms: C_23  and  N_25
REMARK                            x       y       z     vdW  Elec       q    Type
REMARK                         _______ _______ _______ _____ _____    ______ ____
ROOT
ATOM     14  C   UNL     1      -4.455   2.614  24.812  0.00  0.00    +0.251 A 
ATOM     15  N   UNL     1      -3.716   2.741  25.156  0.00  0.00    -0.190 NA
ATOM     16  C   UNL     1      -3.378   3.402  24.799  0.00  0.00    +0.203 A 
ATOM     17  N   UNL     1      -3.908   3.685  24.233  0.00  0.00    -0.056 NA
ATOM     18  O   UNL     1      -4.574   3.198  24.241  0.00  0.00    -0.336 OA
ENDROOT
BRANCH  16  19
ATOM     19  C   UNL     1      -2.639   3.725  24.974  0.00  0.00    +0.043 A 
ATOM     20  C   UNL     1      -2.561   4.539  25.083  0.00  0.00    +0.024 A 
ATOM     21  C   UNL     1      -1.823   4.863  25.258  0.00  0.00    +0.100 A 
ATOM     22  N   UNL     1      -1.163   4.373  25.326  0.00  0.00    -0.229 NA
ATOM     23  C   UNL     1      -1.241   3.559  25.218  0.00  0.00    +0.132 A 
ATOM     24  C   UNL     1      -1.979   3.235  25.042  0.00  0.00    +0.037 A 
BRANCH  23  25
ATOM     25  N   UNL     1      -0.581   3.069  25.286  0.00  0.00    -0.288 N 
ATOM     26  C   UNL     1      -0.292   2.867  26.032  0.00  0.00    +0.124 C 
ATOM     27  C   UNL     1       0.368   2.377  26.099  0.00  0.00    +0.164 C 
ATOM     28  O   UNL     1       0.739   2.088  25.422  0.00  0.00    -0.350 OA
ATOM     29  C   UNL     1       0.450   2.290  24.675  0.00  0.00    +0.164 C 
ATOM     30  C   UNL     1      -0.210   2.780  24.608  0.00  0.00    +0.124 C 
ENDBRANCH  23  25
ENDBRANCH  16  19
BRANCH  14  13
ATOM      9  N   UNL     1      -4.868   1.204  24.873  0.00  0.00    -0.263 NA
ATOM     10  C   UNL     1      -5.534   0.804  25.149  0.00  0.00    +0.073 C 
ATOM     11  C   UNL     1      -6.061   1.362  25.451  0.00  0.00    +0.019 C 
ATOM     12  C   UNL     1      -5.721   2.108  25.361  0.00  0.00    +0.027 C 
ATOM     13  C   UNL     1      -4.983   2.011  25.004  0.00  0.00    +0.138 C 
BRANCH   9   8
ATOM      8  C   UNL     1      -4.204   0.860  24.527  0.00  0.00    +0.099 C 
BRANCH   8   7
ATOM      4  C   UNL     1      -3.852  -1.585  24.685  0.00  0.00    +0.080 A 
ATOM      5  C   UNL     1      -4.221  -1.263  24.021  0.00  0.00    +0.006 A 
ATOM      6  C   UNL     1      -4.338  -0.448  23.968  0.00  0.00    -0.003 A 
ATOM      7  C   UNL     1      -4.086   0.045  24.580  0.00  0.00    -0.006 A 
ATOM     31  C   UNL     1      -3.717  -0.277  25.244  0.00  0.00    -0.003 A 
ATOM     32  C   UNL     1      -3.600  -1.092  25.296  0.00  0.00    +0.006 A 
BRANCH   4   2
ATOM      1  O   UNL     1      -3.888  -2.881  24.083  0.00  0.00    -0.241 OA
ATOM      2  C   UNL     1      -3.734  -2.400  24.736  0.00  0.00    +0.388 C 
ATOM      3  O   UNL     1      -3.464  -2.735  25.440  0.00  0.00    -0.241 OA
ENDBRANCH   4   2
ENDBRANCH   8   7
ENDBRANCH   9   8
ENDBRANCH  14  13
TORSDOF 6
ENDMDL
MODEL 2
REMARK VINA RESULT:     -12.2      1.536      3.563
REMARK  Name = 
REMARK  6 active torsions:
REMARK  status: ('A' for Active; 'I' for Inactive)
REMARK    1  A    between atoms: C_2  and  C_4
REMARK    2  A    between atoms: C_7  and  C_8
REMARK    3  A    between atoms: C_8  and  N_9
REMARK    4  A    between atoms: C_13  and  C_14
REMARK    5  A    between atoms: C_16  and  C_19
REMARK    6  A    between atoms: C_23  and  N_25
REMARK                            x       y       z     vdW  Elec       q    Type
REMARK                         _______ _______ _______ _____ _____    ______ ____
ROOT
ATOM     14  C   UNL     1      -0.448   1.200  24.860  0.00  0.00    +0.251 A 
ATOM     15  N   UNL     1      -0.961   1.808  24.643  0.00  0.00    -0.190 NA
ATOM     16  C   UNL     1      -0.930   2.389  25.226  0.00  0.00    +0.203 A 
ATOM     17  N   UNL     1      -0.397   2.141  25.805  0.00  0.00    -0.056 NA
ATOM     18  O   UNL     1      -0.099   1.406  25.579  0.00  0.00    -0.336 OA
ENDROOT
BRANCH  16  19
ATOM     19  C   UNL     1      -1.357   3.096  25.231  0.00  0.00    +0.043 A 
ATOM     20  C   UNL     1      -0.958   3.818  25.233  0.00  0.00    +0.024 A 
ATOM     21  C   UNL     1      -1.383   4.524  25.238  0.00  0.00    +0.100 A 
ATOM     22  N   UNL     1      -2.208   4.509  25.242  0.00  0.00    -0.229 NA
ATOM     23  C   UNL     1      -2.607   3.787  25.240  0.00  0.00    +0.132 A 
ATOM     24  C   UNL     1      -2.182   3.080  25.235  0.00  0.00    +0.037 A 
BRANCH  23  25
ATOM     25  N   UNL     1      -3.432   3.772  25.244  0.00  0.00    -0.288 N 
ATOM     26  C   UNL     1      -3.841   3.764  25.960  0.00  0.00    +0.124 C 
ATOM     27  C   UNL     1      -4.665   3.749  25.964  0.00  0.00    +0.164 C 
ATOM     28  O   UNL     1      -5.082   3.742  25.252  0.00  0.00    -0.350 OA
ATOM     29  C   UNL     1      -4.673   3.750  24.535  0.00  0.00    +0.164 C 
ATOM     30  C   UNL     1      -3.848   3.766  24.532  0.00  0.00    +0.124 C 
ENDBRANCH  23  25
ENDBRANCH  16  19
BRANCH  14  13
ATOM      9  N   UNL     1      -0.705  -0.209  24.528  0.00  0.00    -0.263 NA
ATOM     10  C   UNL     1      -0.387  -0.749  23.992  0.00  0.00    +0.073 C 
ATOM     11  C   UNL     1       0.209  -0.366  23.567  0.00  0.00    +0.019 C 
ATOM     12  C   UNL     1       0.258   0.411  23.841  0.00  0.00    +0.027 C 
ATOM     13  C   UNL     1      -0.307   0.508  24.435  0.00  0.00    +0.138 C 
BRANCH   9   8
ATOM      8  C   UNL     1      -1.314  -0.359  25.063  0.00  0.00    +0.099 C 
BRANCH   8   7
ATOM      4  C   UNL     1      -3.097  -1.976  24.489  0.00  0.00    +0.080 A 
ATOM      5  C   UNL     1      -3.225  -1.168  24.388  0.00  0.00    +0.006 A 
ATOM      6  C   UNL     1      -2.631  -0.628  24.579  0.00  0.00    -0.003 A 
ATOM      7  C   UNL     1      -1.908  -0.898  24.871  0.00  0.00    -0.006 A 
ATOM     31  C   UNL     1      -1.780  -1.707  24.972  0.00  0.00    -0.003 A 
ATOM     32  C   UNL     1      -2.375  -2.246  24.780  0.00  0.00    +0.006 A 
BRANCH   4   2
ATOM      1  O   UNL     1      -4.320  -2.281  23.813  0.00  0.00    -0.241 OA
ATOM      2  C   UNL     1      -3.692  -2.515  24.297  0.00  0.00    +0.388 C 
ATOM      3  O   UNL     1      -3.661  -3.286  24.588  0.00  0.00    -0.241 OA
ENDBRANCH   4   2
ENDBRANCH   8   7
ENDBRANCH   9   8
ENDBRANCH  14  13
TORSDOF 6
ENDMDL
MODEL 3
REMARK VINA RESULT:     -11.8      2.025      4.775
REMARK  Name = 
REMARK  6 active torsions:
REMARK  status: ('A' for Active; 'I' for Inactive)
REMARK    1  A    between atoms: C_2  and  C_4
REMARK    2  A    between atoms: C_7  and  C_8
REMARK    3  A    between atoms: C_8  and  N_9
REMARK    4  A    between atoms: C_13  and  C_14
REMARK    5  A    between atoms: C_16  and  C_19
REMARK    6  A    between atoms: C_23  and  N_25
REMARK                            x       y       z     vdW  Elec       q    Type
REMARK                         _______ _______ _______ _____ _____    ______ ____
ROOT
ATOM     14  C   UNL     1      -4.555   1.200  25.092  0.00  0.00    +0.251 A 
ATOM     15  N   UNL     1      -4.045   0.713  24.664  0.00  0.00    -0.190 NA
ATOM     16  C   UNL     1      -4.069  -0.040  24.998  0.00  0.00    +0.203 A 
ATOM     17  N   UNL     1      -4.594  -0.020  25.634  0.00  0.00    -0.056 NA
ATOM     18  O   UNL     1      -4.895   0.746  25.692  0.00  0.00    -0.336 OA
ENDROOT
BRANCH  16  19
ATOM     19  C   UNL     1      -3.642  -0.699  24.742  0.00  0.00    +0.043 A 
ATOM     20  C   UNL     1      -4.037  -1.337  24.400  0.00  0.00    +0.024 A 
ATOM     21  C   UNL     1      -3.612  -1.996  24.144  0.00  0.00    +0.100 A 
ATOM     22  N   UNL     1      -2.792  -2.017  24.231  0.00  0.00    -0.229 NA
ATOM     23  C   UNL     1      -2.397  -1.378  24.573  0.00  0.00    +0.132 A 
ATOM     24  C   UNL     1      -2.822  -0.719  24.829  0.00  0.00    +0.037 A 
BRANCH  23  25
ATOM     25  N   UNL     1      -1.577  -1.399  24.659  0.00  0.00    -0.288 N 
ATOM     26  C   UNL     1      -1.098  -0.954  24.156  0.00  0.00    +0.124 C 
ATOM     27  C   UNL     1      -0.278  -0.974  24.243  0.00  0.00    +0.164 C 
ATOM     28  O   UNL     1       0.064  -1.440  24.832  0.00  0.00    -0.350 OA
ATOM     29  C   UNL     1      -0.416  -1.886  25.335  0.00  0.00    +0.164 C 
ATOM     30  C   UNL     1      -1.236  -1.865  25.248  0.00  0.00    +0.124 C 
ENDBRANCH  23  25
ENDBRANCH  16  19
BRANCH  14  13
ATOM      9  N   UNL     1      -4.187   2.623  25.108  0.00  0.00    -0.263 NA
ATOM     10  C   UNL     1      -4.556   3.323  24.876  0.00  0.00    +0.073 C 
ATOM     11  C   UNL     1      -5.299   3.131  24.572  0.00  0.00    +0.019 C 
ATOM     12  C   UNL     1      -5.389   2.312  24.616  0.00  0.00    +0.027 C 
ATOM     13  C   UNL     1      -4.701   1.998  24.948  0.00  0.00    +0.138 C 
BRANCH   9   8
ATOM      8  C   UNL     1      -3.436   2.558  25.441  0.00  0.00    +0.099 C 
BRANCH   8   7
ATOM      4  C   UNL     1      -1.796   4.391  25.166  0.00  0.00    +0.080 A 
ATOM      5  C   UNL     1      -1.821   3.775  24.618  0.00  0.00    +0.006 A 
ATOM      6  C   UNL     1      -2.368   3.163  24.710  0.00  0.00    -0.003 A 
ATOM      7  C   UNL     1      -2.889   3.169  25.350  0.00  0.00    -0.006 A 
ATOM     31  C   UNL     1      -2.864   3.786  25.897  0.00  0.00    -0.003 A 
ATOM     32  C   UNL     1      -2.317   4.397  25.805  0.00  0.00    +0.006 A 
BRANCH   4   2
ATOM      1  O   UNL     1      -1.492   5.788  25.147  0.00  0.00    -0.241 OA
ATOM      2  C   UNL     1      -1.249   5.002  25.073  0.00  0.00    +0.388 C 
ATOM      3  O   UNL     1      -0.460   4.828  24.907  0.00  0.00    -0.241 OA
ENDBRANCH   4   2
ENDBRANCH   8   7
ENDBRANCH   9   8
ENDBRANCH  14  13
TORSDOF 6
ENDMDL
MODEL 4
REMARK VINA RESULT:     -11.4      1.972      4.983
REMARK  Name = 
REMARK  6 active torsions:
REMARK  status: ('A' for Active; 'I' for Inactive)
REMARK    1  A    between atoms: C_2  and  C_4
REMARK    2  A    between atoms: C_7  and  C_8
REMARK    3  A    between atoms: C_8  and  N_9
REMARK    4  A    between atoms: C_13  and  C_14
REMARK    5  A    between atoms: C_16  and  C_19
REMARK    6  A    between atoms: C_23  and  N_25
REMARK                            x       y       z     vdW  Elec       q    Type
REMARK                         _______ _______ _______ _____ _____    ______ ____
ROOT
ATOM     14  C   UNL     1      -1.112   1.982  24.429  0.00  0.00    +0.251 A 
ATOM     15  N   UNL     1      -1.183   1.272  24.843  0.00  0.00    -0.190 NA
ATOM     16  C   UNL     1      -0.972   0.658  24.336  0.00  0.00    +0.203 A 
ATOM     17  N   UNL     1      -0.770   0.988  23.607  0.00  0.00    -0.056 NA
ATOM     18  O   UNL     1      -0.856   1.806  23.665  0.00  0.00    -0.336 OA
ENDROOT
BRANCH  16  19
ATOM     19  C   UNL     1      -0.964  -0.146  24.523  0.00  0.00    +0.043 A 
ATOM     20  C   UNL     1      -0.246  -0.532  24.651  0.00  0.00    +0.024 A 
ATOM     21  C   UNL     1      -0.237  -1.335  24.838  0.00  0.00    +0.100 A 
ATOM     22  N   UNL     1      -0.946  -1.752  24.897  0.00  0.00    -0.229 NA
ATOM     23  C   UNL     1      -1.664  -1.367  24.769  0.00  0.00    +0.132 A 
ATOM     24  C   UNL     1      -1.673  -0.563  24.582  0.00  0.00    +0.037 A 
BRANCH  23  25
ATOM     25  N   UNL     1      -2.373  -1.785  24.829  0.00  0.00    -0.288 N 
ATOM     26  C   UNL     1      -2.925  -1.579  25.404  0.00  0.00    +0.124 C 
ATOM     27  C   UNL     1      -3.634  -1.997  25.463  0.00  0.00    +0.164 C 
ATOM     28  O   UNL     1      -3.790  -2.621  24.947  0.00  0.00    -0.350 OA
ATOM     29  C   UNL     1      -3.236  -2.827  24.370  0.00  0.00    +0.164 C 
ATOM     30  C   UNL     1      -2.528  -2.409  24.311  0.00  0.00    +0.124 C 
ENDBRANCH  23  25
ENDBRANCH  16  19
BRANCH  14  13
ATOM      9  N   UNL     1      -1.991   3.133  24.687  0.00  0.00    -0.263 NA
ATOM     10  C   UNL     1      -1.898   3.867  25.051  0.00  0.00    +0.073 C 
ATOM     11  C   UNL     1      -1.118   3.924  25.314  0.00  0.00    +0.019 C 
ATOM     12  C   UNL     1      -0.729   3.225  25.114  0.00  0.00    +0.027 C 
ATOM     13  C   UNL     1      -1.268   2.735  24.726  0.00  0.00    +0.138 C 
BRANCH   9   8
ATOM      8  C   UNL     1      -2.683   2.846  24.345  0.00  0.00    +0.099 C 
BRANCH   8   7
ATOM      4  C   UNL     1      -4.877   3.356  25.371  0.00  0.00    +0.080 A 
ATOM      5  C   UNL     1      -4.508   2.633  25.522  0.00  0.00    +0.006 A 
ATOM      6  C   UNL     1      -3.777   2.463  25.180  0.00  0.00    -0.003 A 
ATOM      7  C   UNL     1      -3.414   3.016  24.686  0.00  0.00    -0.006 A 
ATOM     31  C   UNL     1      -3.783   3.738  24.535  0.00  0.00    -0.003 A 
ATOM     32  C   UNL     1      -4.514   3.908  24.878  0.00  0.00    +0.006 A 
BRANCH   4   2
ATOM      1  O   UNL     1      -5.949   4.270  25.611  0.00  0.00    -0.241 OA
ATOM      2  C   UNL     1      -5.608   3.525  25.714  0.00  0.00    +0.388 C 
ATOM      3  O   UNL     1      -5.998   2.951  26.159  0.00  0.00    -0.241 OA
ENDBRANCH   4   2
ENDBRANCH   8   7
ENDBRANCH   9   8
ENDBRANCH  14  13
TORSDOF 6
ENDMDL
MODEL 5
REMARK VINA RESULT:     -10.3      1.933      4.250
REMARK  Name = 
REMARK  6 active torsions:
REMARK  status: ('A' for Active; 'I' for Inactive)
REMARK    1  A    between atoms: C_2  and  C_4
REMARK    2  A    between atoms: C_7  and  C_8
REMARK    3  A    between atoms: C_8  and  N_9
REMARK    4  A    between atoms: C_13  and  C_14
REMARK    5  A    between atoms: C_16  and  C_19
REMARK    6  A    between atoms: C_23  and  N_25
REMARK                            x       y       z     vdW  Elec       q    Type
REMARK                         _______ _______ _______ _____ _____    ______ ____
ROOT
ATOM     14  C   UNL     1      -3.609  -0.892  25.118  0.00  0.00    +0.251 A 
ATOM     15  N   UNL     1      -3.876  -0.208  24.743  0.00  0.00    -0.190 NA
ATOM     16  C   UNL     1      -4.324   0.223  25.283  0.00  0.00    +0.203 A 
ATOM     17  N   UNL     1      -4.335  -0.195  25.995  0.00  0.00    -0.056 NA
ATOM     18  O   UNL     1      -3.893  -0.884  25.893  0.00  0.00    -0.336 OA
ENDROOT
BRANCH  16  19
ATOM     19  C   UNL     1      -4.697   0.945  25.139  0.00  0.00    +0.043 A 
ATOM     20  C   UNL     1      -5.517   0.975  25.056  0.00  0.00    +0.024 A 
ATOM     21  C   UNL     1      -5.891   1.696  24.912  0.00  0.00    +0.100 A 
ATOM     22  N   UNL     1      -5.445   2.387  24.852  0.00  0.00    -0.229 NA
ATOM     23  C   UNL     1      -4.625   2.358  24.936  0.00  0.00    +0.132 A 
ATOM     24  C   UNL     1      -4.251   1.636  25.079  0.00  0.00    +0.037 A 
BRANCH  23  25
ATOM     25  N   UNL     1      -4.178   3.049  24.876  0.00  0.00    -0.288 N 
ATOM     26  C   UNL     1      -3.941   3.323  24.135  0.00  0.00    +0.124 C 
ATOM     27  C   UNL     1      -3.495   4.014  24.075  0.00  0.00    +0.164 C 
ATOM     28  O   UNL     1      -3.285   4.431  24.755  0.00  0.00    -0.350 OA
ATOM     29  C   UNL     1      -3.523   4.156  25.497  0.00  0.00    +0.164 C 
ATOM     30  C   UNL     1      -3.969   3.465  25.557  0.00  0.00    +0.124 C 
ENDBRANCH  23  25
ENDBRANCH  16  19
BRANCH  14  13
ATOM      9  N   UNL     1      -2.316  -1.481  24.739  0.00  0.00    -0.263 NA
ATOM     10  C   UNL     1      -2.081  -2.174  24.358  0.00  0.00    +0.073 C 
ATOM     11  C   UNL     1      -2.760  -2.602  24.165  0.00  0.00    +0.019 C 
ATOM     12  C   UNL     1      -3.415  -2.173  24.426  0.00  0.00    +0.027 C 
ATOM     13  C   UNL     1      -3.141  -1.481  24.781  0.00  0.00    +0.138 C 
BRANCH   9   8
ATOM      8  C   UNL     1      -1.816  -0.893  25.027  0.00  0.00    +0.099 C 
BRANCH   8   7
ATOM      4  C   UNL     1       0.159  -0.192  23.711  0.00  0.00    +0.080 A 
ATOM      5  C   UNL     1      -0.521   0.275  23.715  0.00  0.00    +0.006 A 
ATOM      6  C   UNL     1      -1.179   0.041  24.153  0.00  0.00    -0.003 A 
ATOM      7  C   UNL     1      -1.158  -0.660  24.588  0.00  0.00    -0.006 A 
ATOM     31  C   UNL     1      -0.478  -1.127  24.585  0.00  0.00    -0.003 A 
ATOM     32  C   UNL     1       0.181  -0.893  24.146  0.00  0.00    +0.006 A 
BRANCH   4   2
ATOM      1  O   UNL     1       1.054  -0.400  22.615  0.00  0.00    -0.241 OA
ATOM      2  C   UNL     1       0.818   0.042  23.272  0.00  0.00    +0.388 C 
ATOM      3  O   UNL     1       1.239   0.716  23.488  0.00  0.00    -0.241 OA
ENDBRANCH   4   2
ENDBRANCH   8   7
ENDBRANCH   9   8
ENDBRANCH  14  13
TORSDOF 6
ENDMDL
