MODEL 1
REMARK VINA RESULT:     -13.1      0.000      0.000
REMARK  Name = 
REMARK  6 active torsions:
REMARK  status: ('A' for Active; 'I' for Inactive)
REMARK    1  A    between atoms: C_2  and  C_3
REMARK    2  A    between atoms: C_2  and  C_25
REMARK    3  A    between atoms: C_10  and  N_11
REMARK    4  A    between atoms: C_12  and  C_14
REMARK    5  A    between atoms: N_27  and  C_28
REMARK    6  A    between atoms: C_28  and  C_29
REMARK                            x       y       z     vdW  Elec       q    Type
REMARK                         _______ _______ _______ _____ _____    ______ ____
ROOT
ATOM      3  C   UNL     1      -4.275   3.046  24.566  0.00  0.00    +0.039 C 
ATOM      4  C   UNL     1      -4.899   3.103  25.105  0.00  0.00    +0.003 C 
ATOM      5  C   UNL     1      -5.270   2.420  25.380  0.00  0.00    +0.000 C 
ATOM      6  C   UNL     1      -5.018   1.680  25.118  0.00  0.00    +0.002 C 
ATOM      7  C   UNL     1      -5.640   1.737  25.654  0.00  0.00    +0.000 C 
ATOM      8  C   UNL     1      -5.389   0.996  25.392  0.00  0.00    +0.002 C 
ATOM      9  C   UNL     1      -5.137   0.256  25.130  0.00  0.00    +0.022 C 
ATOM     10  C   UNL     1      -4.513   0.199  24.592  0.00  0.00    +0.096 C 
ATOM     20  C   UNL     1      -4.142   0.882  24.317  0.00  0.00    +0.022 C 
ATOM     21  C   UNL     1      -3.519   0.825  23.780  0.00  0.00    +0.002 C 
ATOM     22  C   UNL     1      -4.394   1.623  24.579  0.00  0.00    +0.032 C 
ATOM     23  C   UNL     1      -4.023   2.306  24.304  0.00  0.00    +0.152 C 
ATOM     24  O   UNL     1      -3.400   2.249  23.767  0.00  0.00    -0.223 OA
ENDROOT
BRANCH  10  11
ATOM     11  N   UNL     1      -4.262  -0.542  24.330  0.00  0.00    -0.202 NA
ATOM     12  C   UNL     1      -4.018  -1.112  24.874  0.00  0.00    +0.282 C 
ATOM     13  O   UNL     1      -4.025  -0.941  25.682  0.00  0.00    -0.267 OA
BRANCH  12  14
ATOM     14  C   UNL     1      -3.766  -1.853  24.612  0.00  0.00    +0.136 A 
ATOM     15  N   UNL     1      -4.219  -2.273  24.066  0.00  0.00    -0.239 NA
ATOM     16  C   UNL     1      -3.967  -3.014  23.804  0.00  0.00    +0.099 A 
ATOM     17  C   UNL     1      -3.262  -3.334  24.089  0.00  0.00    +0.021 A 
ATOM     18  C   UNL     1      -2.808  -2.913  24.635  0.00  0.00    +0.003 A 
ATOM     19  C   UNL     1      -3.061  -2.173  24.896  0.00  0.00    +0.024 A 
ENDBRANCH  12  14
ENDBRANCH  10  11
BRANCH   3   2
ATOM      1  C   UNL     1      -4.086   4.027  23.544  0.00  0.00    +0.010 C 
ATOM      2  C   UNL     1      -3.904   3.730  24.292  0.00  0.00    +0.081 C 
BRANCH   2  25
ATOM     25  C   UNL     1      -3.350   4.116  24.765  0.00  0.00    +0.241 C 
ATOM     26  O   UNL     1      -3.582   4.752  25.238  0.00  0.00    -0.273 OA
ATOM     27  N   UNL     1      -2.562   3.868  24.766  0.00  0.00    -0.201 NA
BRANCH  27  28
ATOM     28  C   UNL     1      -2.009   4.254  25.239  0.00  0.00    +0.142 C 
BRANCH  28  29
ATOM     29  C   UNL     1      -1.300   3.880  25.434  0.00  0.00    +0.010 A 
ATOM     30  C   UNL     1      -1.305   3.209  25.912  0.00  0.00    -0.002 A 
ATOM     31  C   UNL     1      -0.595   2.836  26.107  0.00  0.00    -0.000 A 
ATOM     32  C   UNL     1       0.120   3.134  25.823  0.00  0.00    +0.001 A 
ATOM     33  C   UNL     1       0.124   3.806  25.344  0.00  0.00    +0.011 A 
ATOM     34  C   UNL     1      -0.586   4.180  25.149  0.00  0.00    +0.055 A 
ATOM     35 CL   UNL     1      -0.581   4.851  24.671  0.00  0.00    -0.083 Cl
ENDBRANCH  28  29
ENDBRANCH  27  28
ENDBRANCH   2  25
ENDBRANCH   3   2
TORSDOF 6
ENDMDL
MODEL 2
REMARK VINA RESULT:     -11.6      1.833      5.173
REMARK  Name = 
REMARK  6 active torsions:
REMARK  status: ('A' for Active; 'I' for Inactive)
REMARK    1  A    between atoms: C_2  and  C_3
REMARK    2  A    between atoms: C_2  and  C_25
REMARK    3  A    between atoms: C_10  and  N_11
REMARK    4  A    between atoms: C_12  and  C_14
REMARK    5  A    between atoms: N_27  and  C_28
REMARK    6  A    between atoms: C_28  and  C_29
REMARK                            x       y       z     vdW  Elec       q    Type
REMARK                         _______ _______ _______ _____ _____    ______ ____
ROOT
ATOM      3  C   UNL     1      -4.288   0.314  24.446  0.00  0.00    +0.039 C 
ATOM      4  C   UNL     1      -4.951   0.472  24.912  0.00  0.00    +0.003 C 
ATOM      5  C   UNL     1      -5.060   1.225  25.231  0.00  0.00    +0.000 C 
ATOM      6  C   UNL     1      -4.507   1.819  25.085  0.00  0.00    +0.002 C 
ATOM      7  C   UNL     1      -5.169   1.977  25.550  0.00  0.00    +0.000 C 
ATOM      8  C   UNL     1      -4.616   2.572  25.404  0.00  0.00    +0.002 C 
ATOM      9  C   UNL     1      -4.064   3.166  25.257  0.00  0.00    +0.022 C 
ATOM     10  C   UNL     1      -3.401   3.008  24.791  0.00  0.00    +0.096 C 
ATOM     20  C   UNL     1      -3.292   2.256  24.472  0.00  0.00    +0.022 C 
ATOM     21  C   UNL     1      -2.630   2.097  24.006  0.00  0.00    +0.002 C 
ATOM     22  C   UNL     1      -3.844   1.660  24.618  0.00  0.00    +0.032 C 
ATOM     23  C   UNL     1      -3.735   0.908  24.299  0.00  0.00    +0.152 C 
ATOM     24  O   UNL     1      -3.073   0.750  23.833  0.00  0.00    -0.223 OA
ENDROOT
BRANCH  10  11
ATOM     11  N   UNL     1      -2.848   3.603  24.645  0.00  0.00    -0.202 NA
ATOM     12  C   UNL     1      -2.444   3.954  25.271  0.00  0.00    +0.282 C 
ATOM     13  O   UNL     1      -2.592   3.710  26.046  0.00  0.00    -0.267 OA
BRANCH  12  14
ATOM     14  C   UNL     1      -1.891   4.549  25.125  0.00  0.00    +0.136 A 
ATOM     15  N   UNL     1      -1.104   4.354  24.976  0.00  0.00    -0.239 NA
ATOM     16  C   UNL     1      -0.552   4.949  24.830  0.00  0.00    +0.099 A 
ATOM     17  C   UNL     1      -0.787   5.740  24.833  0.00  0.00    +0.021 A 
ATOM     18  C   UNL     1      -1.575   5.936  24.982  0.00  0.00    +0.003 A 
ATOM     19  C   UNL     1      -2.127   5.340  25.128  0.00  0.00    +0.024 A 
ENDBRANCH  12  14
ENDBRANCH  10  11
BRANCH   3   2
ATOM      1  C   UNL     1      -4.405  -0.596  23.348  0.00  0.00    +0.010 C 
ATOM      2  C   UNL     1      -4.179  -0.439  24.126  0.00  0.00    +0.081 C 
BRANCH   2  25
ATOM     25  C   UNL     1      -3.843  -1.037  24.586  0.00  0.00    +0.241 C 
ATOM     26  O   UNL     1      -4.307  -1.446  25.133  0.00  0.00    -0.273 OA
ATOM     27  N   UNL     1      -3.044  -1.226  24.499  0.00  0.00    -0.201 NA
BRANCH  27  28
ATOM     28  C   UNL     1      -2.709  -1.822  24.958  0.00  0.00    +0.142 C 
BRANCH  28  29
ATOM     29  C   UNL     1      -1.891  -1.858  25.055  0.00  0.00    +0.010 A 
ATOM     30  C   UNL     1      -1.507  -1.302  25.528  0.00  0.00    -0.002 A 
ATOM     31  C   UNL     1      -0.689  -1.338  25.625  0.00  0.00    -0.000 A 
ATOM     32  C   UNL     1      -0.254  -1.931  25.250  0.00  0.00    +0.001 A 
ATOM     33  C   UNL     1      -0.639  -2.488  24.777  0.00  0.00    +0.011 A 
ATOM     34  C   UNL     1      -1.458  -2.451  24.680  0.00  0.00    +0.055 A 
ATOM     35 CL   UNL     1      -1.842  -3.007  24.208  0.00  0.00    -0.083 Cl
ENDBRANCH  28  29
ENDBRANCH  27  28
ENDBRANCH   2  25
ENDBRANCH   3   2
TORSDOF 6
ENDMDL
MODEL 3
REMARK VINA RESULT:     -11.6      2.644      6.347
REMARK  Name = 
REMARK  6 active torsions:
REMARK  status: ('A' for Active; 'I' for Inactive)
REMARK    1  A    between atoms: C_2  and  C_3
REMARK    2  A    between atoms: C_2  and  C_25
REMARK    3  A    between atoms: C_10  and  N_11
REMARK    4  A    between atoms: C_12  and  C_14
REMARK    5  A    between atoms: N_27  and  C_28
REMARK    6  A    between atoms: C_28  and  C_29
REMARK                            x       y       z     vdW  Elec       q    Type
REMARK                         _______ _______ _______ _____ _____    ______ ____
ROOT
ATOM      3  C   UNL     1      -0.495  -0.890  24.868  0.00  0.00    +0.039 C 
ATOM      4  C   UNL     1      -0.070  -0.966  24.164  0.00  0.00    +0.003 C 
ATOM      5  C   UNL     1       0.161  -0.293  23.748  0.00  0.00    +0.000 C 
ATOM      6  C   UNL     1      -0.032   0.456  24.034  0.00  0.00    +0.002 C 
ATOM      7  C   UNL     1       0.392   0.380  23.331  0.00  0.00    +0.000 C 
ATOM      8  C   UNL     1       0.200   1.130  23.617  0.00  0.00    +0.002 C 
ATOM      9  C   UNL     1       0.007   1.878  23.903  0.00  0.00    +0.022 C 
ATOM     10  C   UNL     1      -0.418   1.954  24.608  0.00  0.00    +0.096 C 
ATOM     20  C   UNL     1      -0.649   1.281  25.024  0.00  0.00    +0.022 C 
ATOM     21  C   UNL     1      -1.074   1.357  25.727  0.00  0.00    +0.002 C 
ATOM     22  C   UNL     1      -0.457   0.532  24.738  0.00  0.00    +0.032 C 
ATOM     23  C   UNL     1      -0.688  -0.141  25.154  0.00  0.00    +0.152 C 
ATOM     24  O   UNL     1      -1.113  -0.065  25.857  0.00  0.00    -0.223 OA
ENDROOT
BRANCH  10  11
ATOM     11  N   UNL     1      -0.611   2.704  24.894  0.00  0.00    -0.202 NA
ATOM     12  C   UNL     1      -1.045   3.226  24.425  0.00  0.00    +0.282 C 
ATOM     13  O   UNL     1      -1.287   2.998  23.669  0.00  0.00    -0.267 OA
BRANCH  12  14
ATOM     14  C   UNL     1      -1.237   3.975  24.712  0.00  0.00    +0.136 A 
ATOM     15  N   UNL     1      -1.970   4.106  25.066  0.00  0.00    -0.239 NA
ATOM     16  C   UNL     1      -2.163   4.856  25.352  0.00  0.00    +0.099 A 
ATOM     17  C   UNL     1      -1.621   5.475  25.283  0.00  0.00    +0.021 A 
ATOM     18  C   UNL     1      -0.887   5.344  24.928  0.00  0.00    +0.003 A 
ATOM     19  C   UNL     1      -0.696   4.594  24.643  0.00  0.00    +0.024 A 
ENDBRANCH  12  14
ENDBRANCH  10  11
BRANCH   3   2
ATOM      1  C   UNL     1      -0.415  -1.714  26.033  0.00  0.00    +0.010 C 
ATOM      2  C   UNL     1      -0.727  -1.564  25.284  0.00  0.00    +0.081 C 
BRANCH   2  25
ATOM     25  C   UNL     1      -1.271  -2.087  24.951  0.00  0.00    +0.241 C 
ATOM     26  O   UNL     1      -1.011  -2.799  24.622  0.00  0.00    -0.273 OA
ATOM     27  N   UNL     1      -2.075  -1.900  24.947  0.00  0.00    -0.201 NA
BRANCH  27  28
ATOM     28  C   UNL     1      -2.618  -2.423  24.614  0.00  0.00    +0.142 C 
BRANCH  28  29
ATOM     29  C   UNL     1      -3.352  -2.148  24.357  0.00  0.00    +0.010 A 
ATOM     30  C   UNL     1      -3.554  -1.354  24.458  0.00  0.00    -0.002 A 
ATOM     31  C   UNL     1      -4.288  -1.081  24.201  0.00  0.00    -0.000 A 
ATOM     32  C   UNL     1      -4.821  -1.600  23.844  0.00  0.00    +0.001 A 
ATOM     33  C   UNL     1      -4.619  -2.393  23.743  0.00  0.00    +0.011 A 
ATOM     34  C   UNL     1      -3.884  -2.668  24.000  0.00  0.00    +0.055 A 
ATOM     35 CL   UNL     1      -3.682  -3.460  23.900  0.00  0.00    -0.083 Cl
ENDBRANCH  28  29
ENDBRANCH  27  28
ENDBRANCH   2  25
ENDBRANCH   3   2
TORSDOF 6
ENDMDL
MODEL 4
REMARK VINA RESULT:     -11.4      2.734      4.617
REMARK  Name = 
REMARK  6 active torsions:
REMARK  status: ('A' for Active; 'I' for Inactive)
REMARK    1  A    between atoms: C_2  and  C_3
REMARK    2  A    between atoms: C_2  and  C_25
REMARK    3  A    between atoms: C_10  and  N_11
REMARK    4  A    between atoms: C_12  and  C_14
REMARK    5  A    between atoms: N_27  and  C_28
REMARK    6  A    between atoms: C_28  and  C_29
REMARK                            x       y       z     vdW  Elec       q    Type
REMARK                         _______ _______ _______ _____ _____    ______ ____
ROOT
ATOM      3  C   UNL     1      -1.801   3.609  25.475  0.00  0.00    +0.039 C 
ATOM      4  C   UNL     1      -1.521   3.482  26.242  0.00  0.00    +0.003 C 
ATOM      5  C   UNL     1      -0.872   2.989  26.367  0.00  0.00    +0.000 C 
ATOM      6  C   UNL     1      -0.502   2.624  25.727  0.00  0.00    +0.002 C 
ATOM      7  C   UNL     1      -0.223   2.497  26.492  0.00  0.00    +0.000 C 
ATOM      8  C   UNL     1       0.147   2.130  25.852  0.00  0.00    +0.002 C 
ATOM      9  C   UNL     1       0.517   1.765  25.212  0.00  0.00    +0.022 C 
ATOM     10  C   UNL     1       0.237   1.892  24.445  0.00  0.00    +0.096 C 
ATOM     20  C   UNL     1      -0.412   2.385  24.321  0.00  0.00    +0.022 C 
ATOM     21  C   UNL     1      -0.692   2.512  23.555  0.00  0.00    +0.002 C 
ATOM     22  C   UNL     1      -0.783   2.751  24.961  0.00  0.00    +0.032 C 
ATOM     23  C   UNL     1      -1.432   3.244  24.836  0.00  0.00    +0.152 C 
ATOM     24  O   UNL     1      -1.711   3.371  24.070  0.00  0.00    -0.223 OA
ENDROOT
BRANCH  10  11
ATOM     11  N   UNL     1       0.607   1.526  23.805  0.00  0.00    -0.202 NA
ATOM     12  C   UNL     1       0.692   0.706  23.791  0.00  0.00    +0.282 C 
ATOM     13  O   UNL     1       0.405   0.251  24.418  0.00  0.00    -0.267 OA
BRANCH  12  14
ATOM     14  C   UNL     1       1.062   0.340  23.151  0.00  0.00    +0.136 A 
ATOM     15  N   UNL     1       1.867   0.458  23.017  0.00  0.00    -0.239 NA
ATOM     16  C   UNL     1       2.237   0.092  22.376  0.00  0.00    +0.099 A 
ATOM     17  C   UNL     1       1.801  -0.393  21.870  0.00  0.00    +0.021 A 
ATOM     18  C   UNL     1       0.995  -0.511  22.005  0.00  0.00    +0.003 A 
ATOM     19  C   UNL     1       0.626  -0.144  22.645  0.00  0.00    +0.024 A 
ENDBRANCH  12  14
ENDBRANCH  10  11
BRANCH   3   2
ATOM      1  C   UNL     1      -2.381   4.763  24.861  0.00  0.00    +0.010 C 
ATOM      2  C   UNL     1      -2.451   4.102  25.351  0.00  0.00    +0.081 C 
BRANCH   2  25
ATOM     25  C   UNL     1      -3.171   3.935  25.717  0.00  0.00    +0.241 C 
ATOM     26  O   UNL     1      -3.348   4.268  26.452  0.00  0.00    -0.273 OA
ATOM     27  N   UNL     1      -3.715   3.435  25.349  0.00  0.00    -0.201 NA
BRANCH  27  28
ATOM     28  C   UNL     1      -4.435   3.268  25.714  0.00  0.00    +0.142 C 
BRANCH  28  29
ATOM     29  C   UNL     1      -4.906   2.651  25.436  0.00  0.00    +0.010 A 
ATOM     30  C   UNL     1      -4.556   1.952  25.172  0.00  0.00    -0.002 A 
ATOM     31  C   UNL     1      -5.028   1.335  24.895  0.00  0.00    -0.000 A 
ATOM     32  C   UNL     1      -5.849   1.416  24.881  0.00  0.00    +0.001 A 
ATOM     33  C   UNL     1      -6.198   2.115  25.146  0.00  0.00    +0.011 A 
ATOM     34  C   UNL     1      -5.726   2.733  25.424  0.00  0.00    +0.055 A 
ATOM     35 CL   UNL     1      -6.075   3.431  25.688  0.00  0.00    -0.083 Cl
ENDBRANCH  28  29
ENDBRANCH  27  28
ENDBRANCH   2  25
ENDBRANCH   3   2
TORSDOF 6
ENDMDL
MODEL 5
REMARK VINA RESULT:     -11.1      2.878      5.149
REMARK  Name = 
REMARK  6 active torsions:
REMARK  status: ('A' for Active; 'I' for Inactive)
REMARK    1  A    between atoms: C_2  and  C_3
REMARK    2  A    between atoms: C_2  and  C_25
REMARK    3  A    between atoms: C_10  and  N_11
REMARK    4  A    between atoms: C_12  and  C_14
REMARK    5  A    between atoms: N_27  and  C_28
REMARK    6  A    between atoms: C_28  and  C_29
REMARK                            x       y       z     vdW  Elec       q    Type
REMARK                         _______ _______ _______ _____ _____    ______ ____
ROOT
ATOM      3  C   UNL     1      -2.778   2.058  24.560  0.00  0.00    +0.039 C 
ATOM      4  C   UNL     1      -2.608   2.498  25.238  0.00  0.00    +0.003 C 
ATOM      5  C   UNL     1      -1.826   2.669  25.433  0.00  0.00    +0.000 C 
ATOM      6  C   UNL     1      -1.213   2.402  24.951  0.00  0.00    +0.002 C 
ATOM      7  C   UNL     1      -1.044   2.841  25.627  0.00  0.00    +0.000 C 
ATOM      8  C   UNL     1      -0.430   2.573  25.145  0.00  0.00    +0.002 C 
ATOM      9  C   UNL     1       0.184   2.306  24.664  0.00  0.00    +0.022 C 
ATOM     10  C   UNL     1       0.014   1.866  23.985  0.00  0.00    +0.096 C 
ATOM     20  C   UNL     1      -0.769   1.694  23.791  0.00  0.00    +0.022 C 
ATOM     21  C   UNL     1      -0.938   1.254  23.114  0.00  0.00    +0.002 C 
ATOM     22  C   UNL     1      -1.383   1.962  24.273  0.00  0.00    +0.032 C 
ATOM     23  C   UNL     1      -2.165   1.790  24.078  0.00  0.00    +0.152 C 
ATOM     24  O   UNL     1      -2.335   1.350  23.401  0.00  0.00    -0.223 OA
ENDROOT
BRANCH  10  11
ATOM     11  N   UNL     1       0.628   1.598  23.504  0.00  0.00    -0.202 NA
ATOM     12  C   UNL     1       1.272   1.206  23.835  0.00  0.00    +0.282 C 
ATOM     13  O   UNL     1       1.304   1.080  24.651  0.00  0.00    -0.267 OA
BRANCH  12  14
ATOM     14  C   UNL     1       1.886   0.938  23.353  0.00  0.00    +0.136 A 
ATOM     15  N   UNL     1       2.592   1.362  23.310  0.00  0.00    -0.239 NA
ATOM     16  C   UNL     1       3.206   1.094  22.828  0.00  0.00    +0.099 A 
ATOM     17  C   UNL     1       3.114   0.402  22.389  0.00  0.00    +0.021 A 
ATOM     18  C   UNL     1       2.407  -0.023  22.432  0.00  0.00    +0.003 A 
ATOM     19  C   UNL     1       1.794   0.246  22.914  0.00  0.00    +0.024 A 
ENDBRANCH  12  14
ENDBRANCH  10  11
BRANCH   3   2
ATOM      1  C   UNL     1      -3.944   2.315  23.773  0.00  0.00    +0.010 C 
ATOM      2  C   UNL     1      -3.562   1.886  24.366  0.00  0.00    +0.081 C 
BRANCH   2  25
ATOM     25  C   UNL     1      -3.963   1.285  24.764  0.00  0.00    +0.241 C 
ATOM     26  O   UNL     1      -4.512   1.474  25.351  0.00  0.00    -0.273 OA
ATOM     27  N   UNL     1      -3.816   0.495  24.575  0.00  0.00    -0.201 NA
BRANCH  27  28
ATOM     28  C   UNL     1      -4.217  -0.105  24.973  0.00  0.00    +0.142 C 
BRANCH  28  29
ATOM     29  C   UNL     1      -4.082  -0.894  24.774  0.00  0.00    +0.010 A 
ATOM     30  C   UNL     1      -4.328  -1.183  24.042  0.00  0.00    -0.002 A 
ATOM     31  C   UNL     1      -4.193  -1.972  23.844  0.00  0.00    -0.000 A 
ATOM     32  C   UNL     1      -3.812  -2.473  24.378  0.00  0.00    +0.001 A 
ATOM     33  C   UNL     1      -3.566  -2.184  25.110  0.00  0.00    +0.011 A 
ATOM     34  C   UNL     1      -3.701  -1.394  25.309  0.00  0.00    +0.055 A 
ATOM     35 CL   UNL     1      -3.455  -1.105  26.040  0.00  0.00    -0.083 Cl
ENDBRANCH  28  29
ENDBRANCH  27  28
ENDBRANCH   2  25
ENDBRANCH   3   2
TORSDOF 6
ENDMDL
MODEL 6
REMARK VINA RESULT:     -10.9      3.061      4.776
REMARK  Name = 
REMARK  6 active torsions:
REMARK  status: ('A' for Active; 'I' for Inactive)
REMARK    1  A    between atoms: C_2  and  C_3
REMARK    2  A    between atoms: C_2  and  C_25
REMARK    3  A    between atoms: C_10  and  N_11
REMARK    4  A    between atoms: C_12  and  C_14
REMARK    5  A    between atoms: N_27  and  C_28
REMARK    6  A    between atoms: C_28  and  C_29
REMARK                            x       y       z     vdW  Elec       q    Type
REMARK                         _______ _______ _______ _____ _____    ______ ____
ROOT
ATOM      3  C   UNL     1      -3.184  -0.263  24.685  0.00  0.00    +0.039 C 
ATOM      4  C   UNL     1      -3.058  -0.785  25.313  0.00  0.00    +0.003 C 
ATOM      5  C   UNL     1      -2.290  -1.002  25.519  0.00  0.00    +0.000 C 
ATOM      6  C   UNL     1      -1.649  -0.700  25.099  0.00  0.00    +0.002 C 
ATOM      7  C   UNL     1      -1.522  -1.220  25.726  0.00  0.00    +0.000 C 
ATOM      8  C   UNL     1      -0.880  -0.917  25.306  0.00  0.00    +0.002 C 
ATOM      9  C   UNL     1      -0.238  -0.614  24.886  0.00  0.00    +0.022 C 
ATOM     10  C   UNL     1      -0.365  -0.092  24.258  0.00  0.00    +0.096 C 
ATOM     20  C   UNL     1      -1.132   0.125  24.052  0.00  0.00    +0.022 C 
ATOM     21  C   UNL     1      -1.259   0.646  23.425  0.00  0.00    +0.002 C 
ATOM     22  C   UNL     1      -1.775  -0.178  24.472  0.00  0.00    +0.032 C 
ATOM     23  C   UNL     1      -2.543   0.039  24.265  0.00  0.00    +0.152 C 
ATOM     24  O   UNL     1      -2.669   0.560  23.638  0.00  0.00    -0.223 OA
ENDROOT
BRANCH  10  11
ATOM     11  N   UNL     1       0.278   0.211  23.838  0.00  0.00    -0.202 NA
ATOM     12  C   UNL     1       0.868  -0.296  23.564  0.00  0.00    +0.282 C 
ATOM     13  O   UNL     1       0.816  -1.107  23.710  0.00  0.00    -0.267 OA
BRANCH  12  14
ATOM     14  C   UNL     1       1.510   0.007  23.145  0.00  0.00    +0.136 A 
ATOM     15  N   UNL     1       1.923   0.659  23.435  0.00  0.00    -0.239 NA
ATOM     16  C   UNL     1       2.566   0.962  23.015  0.00  0.00    +0.099 A 
ATOM     17  C   UNL     1       2.795   0.612  22.304  0.00  0.00    +0.021 A 
ATOM     18  C   UNL     1       2.382  -0.041  22.013  0.00  0.00    +0.003 A 
ATOM     19  C   UNL     1       1.740  -0.343  22.433  0.00  0.00    +0.024 A 
ENDBRANCH  12  14
ENDBRANCH  10  11
BRANCH   3   2
ATOM      1  C   UNL     1      -4.273  -0.290  23.757  0.00  0.00    +0.010 C 
ATOM      2  C   UNL     1      -3.953  -0.046  24.478  0.00  0.00    +0.081 C 
BRANCH   2  25
ATOM     25  C   UNL     1      -4.403   0.416  24.993  0.00  0.00    +0.241 C 
ATOM     26  O   UNL     1      -4.771   0.068  25.645  0.00  0.00    -0.273 OA
ATOM     27  N   UNL     1      -4.486   1.226  24.856  0.00  0.00    -0.201 NA
BRANCH  27  28
ATOM     28  C   UNL     1      -4.935   1.687  25.370  0.00  0.00    +0.142 C 
BRANCH  28  29
ATOM     29  C   UNL     1      -4.898   2.510  25.327  0.00  0.00    +0.010 A 
ATOM     30  C   UNL     1      -4.262   2.875  24.948  0.00  0.00    -0.002 A 
ATOM     31  C   UNL     1      -4.226   3.697  24.905  0.00  0.00    -0.000 A 
ATOM     32  C   UNL     1      -4.824   4.156  25.240  0.00  0.00    +0.001 A 
ATOM     33  C   UNL     1      -5.460   3.791  25.619  0.00  0.00    +0.011 A 
ATOM     34  C   UNL     1      -5.497   2.967  25.663  0.00  0.00    +0.055 A 
ATOM     35 CL   UNL     1      -6.131   2.602  26.041  0.00  0.00    -0.083 Cl
ENDBRANCH  28  29
ENDBRANCH  27  28
ENDBRANCH   2  25
ENDBRANCH   3   2
TORSDOF 6
ENDMDL
MODEL 7
REMARK VINA RESULT:     -10.9      3.592      5.295
REMARK  Name = 
REMARK  6 active torsions:
REMARK  status: ('A' for Active; 'I' for Inactive)
REMARK    1  A    between atoms: C_2  and  C_3
REMARK    2  A    between atoms: C_2  and  C_25
REMARK    3  A    between atoms: C_10  and  N_11
REMARK    4  A    between atoms: C_12  and  C_14
REMARK    5  A    between atoms: N_27  and  C_28
REMARK    6  A    between atoms: C_28  and  C_29
REMARK                            x       y       z     vdW  Elec       q    Type
REMARK                         _______ _______ _______ _____ _____    ______ ____
ROOT
ATOM      3  C   UNL     1       0.176   0.655  23.899  0.00  0.00    +0.039 C 
ATOM      4  C   UNL     1       0.582   1.368  23.999  0.00  0.00    +0.003 C 
ATOM      5  C   UNL     1       0.183   2.034  24.277  0.00  0.00    +0.000 C 
ATOM      6  C   UNL     1      -0.620   1.989  24.455  0.00  0.00    +0.002 C 
ATOM      7  C   UNL     1      -0.215   2.699  24.555  0.00  0.00    +0.000 C 
ATOM      8  C   UNL     1      -1.020   2.655  24.733  0.00  0.00    +0.002 C 
ATOM      9  C   UNL     1      -1.824   2.610  24.911  0.00  0.00    +0.022 C 
ATOM     10  C   UNL     1      -2.229   1.898  24.811  0.00  0.00    +0.096 C 
ATOM     20  C   UNL     1      -1.831   1.232  24.533  0.00  0.00    +0.022 C 
ATOM     21  C   UNL     1      -2.236   0.520  24.432  0.00  0.00    +0.002 C 
ATOM     22  C   UNL     1      -1.026   1.276  24.355  0.00  0.00    +0.032 C 
ATOM     23  C   UNL     1      -0.627   0.611  24.077  0.00  0.00    +0.152 C 
ATOM     24  O   UNL     1      -1.033  -0.101  23.976  0.00  0.00    -0.223 OA
ENDROOT
BRANCH  10  11
ATOM     11  N   UNL     1      -3.034   1.853  24.989  0.00  0.00    -0.202 NA
ATOM     12  C   UNL     1      -3.529   2.492  24.825  0.00  0.00    +0.282 C 
ATOM     13  O   UNL     1      -3.220   3.177  24.483  0.00  0.00    -0.267 OA
BRANCH  12  14
ATOM     14  C   UNL     1      -4.334   2.447  25.004  0.00  0.00    +0.136 A 
ATOM     15  N   UNL     1      -4.818   1.920  24.596  0.00  0.00    -0.239 NA
ATOM     16  C   UNL     1      -5.623   1.875  24.774  0.00  0.00    +0.099 A 
ATOM     17  C   UNL     1      -5.942   2.359  25.361  0.00  0.00    +0.021 A 
ATOM     18  C   UNL     1      -5.457   2.888  25.769  0.00  0.00    +0.003 A 
ATOM     19  C   UNL     1      -4.653   2.931  25.590  0.00  0.00    +0.024 A 
ENDBRANCH  12  14
ENDBRANCH  10  11
BRANCH   3   2
ATOM      1  C   UNL     1       0.378  -0.760  23.903  0.00  0.00    +0.010 C 
ATOM      2  C   UNL     1       0.576  -0.011  23.620  0.00  0.00    +0.081 C 
BRANCH   2  25
ATOM     25  C   UNL     1       1.174   0.073  23.059  0.00  0.00    +0.241 C 
ATOM     26  O   UNL     1       0.982   0.174  22.262  0.00  0.00    -0.273 OA
ATOM     27  N   UNL     1       1.966   0.055  23.293  0.00  0.00    -0.201 NA
BRANCH  27  28
ATOM     28  C   UNL     1       2.564   0.138  22.732  0.00  0.00    +0.142 C 
BRANCH  28  29
ATOM     29  C   UNL     1       3.354   0.062  22.956  0.00  0.00    +0.010 A 
ATOM     30  C   UNL     1       3.611  -0.624  23.336  0.00  0.00    -0.002 A 
ATOM     31  C   UNL     1       4.401  -0.700  23.559  0.00  0.00    -0.000 A 
ATOM     32  C   UNL     1       4.935  -0.091  23.403  0.00  0.00    +0.001 A 
ATOM     33  C   UNL     1       4.678   0.595  23.023  0.00  0.00    +0.011 A 
ATOM     34  C   UNL     1       3.887   0.671  22.799  0.00  0.00    +0.055 A 
ATOM     35 CL   UNL     1       3.630   1.356  22.420  0.00  0.00    -0.083 Cl
ENDBRANCH  28  29
ENDBRANCH  27  28
ENDBRANCH   2  25
ENDBRANCH   3   2
TORSDOF 6
ENDMDL
MODEL 8
REMARK VINA RESULT:     -10.9      2.025      3.559
REMARK  Name = 
REMARK  6 active torsions:
REMARK  status: ('A' for Active; 'I' for Inactive)
REMARK    1  A    between atoms: C_2  and  C_3
REMARK    2  A    between atoms: C_2  and  C_25
REMARK    3  A    between atoms: C_10  and  N_11
REMARK    4  A    between atoms: C_12  and  C_14
REMARK    5  A    between atoms: N_27  and  C_28
REMARK    6  A    between atoms: C_28  and  C_29
REMARK                            x       y       z     vdW  Elec       q    Type
REMARK                         _______ _______ _______ _____ _____    ______ ____
ROOT
ATOM      3  C   UNL     1      -0.233   2.083  25.289  0.00  0.00    +0.039 C 
ATOM      4  C   UNL     1       0.266   2.106  24.631  0.00  0.00    +0.003 C 
ATOM      5  C   UNL     1       0.297   1.463  24.116  0.00  0.00    +0.000 C 
ATOM      6  C   UNL     1      -0.169   0.798  24.257  0.00  0.00    +0.002 C 
ATOM      7  C   UNL     1       0.329   0.820  23.600  0.00  0.00    +0.000 C 
ATOM      8  C   UNL     1      -0.137   0.154  23.741  0.00  0.00    +0.002 C 
ATOM      9  C   UNL     1      -0.604  -0.511  23.882  0.00  0.00    +0.022 C 
ATOM     10  C   UNL     1      -1.103  -0.533  24.539  0.00  0.00    +0.096 C 
ATOM     20  C   UNL     1      -1.134   0.109  25.055  0.00  0.00    +0.022 C 
ATOM     21  C   UNL     1      -1.633   0.087  25.712  0.00  0.00    +0.002 C 
ATOM     22  C   UNL     1      -0.668   0.775  24.914  0.00  0.00    +0.032 C 
ATOM     23  C   UNL     1      -0.700   1.418  25.430  0.00  0.00    +0.152 C 
ATOM     24  O   UNL     1      -1.198   1.395  26.087  0.00  0.00    -0.223 OA
ENDROOT
BRANCH  10  11
ATOM     11  N   UNL     1      -1.569  -1.199  24.680  0.00  0.00    -0.202 NA
ATOM     12  C   UNL     1      -2.206  -1.369  24.185  0.00  0.00    +0.282 C 
ATOM     13  O   UNL     1      -2.378  -0.872  23.548  0.00  0.00    -0.267 OA
BRANCH  12  14
ATOM     14  C   UNL     1      -2.673  -2.035  24.325  0.00  0.00    +0.136 A 
ATOM     15  N   UNL     1      -2.322  -2.743  24.560  0.00  0.00    -0.239 NA
ATOM     16  C   UNL     1      -2.788  -3.409  24.700  0.00  0.00    +0.099 A 
ATOM     17  C   UNL     1      -3.607  -3.366  24.606  0.00  0.00    +0.021 A 
ATOM     18  C   UNL     1      -3.959  -2.657  24.371  0.00  0.00    +0.003 A 
ATOM     19  C   UNL     1      -3.491  -1.992  24.231  0.00  0.00    +0.024 A 
ENDBRANCH  12  14
ENDBRANCH  10  11
BRANCH   3   2
ATOM      1  C   UNL     1       0.150   2.706  26.518  0.00  0.00    +0.010 C 
ATOM      2  C   UNL     1      -0.265   2.726  25.805  0.00  0.00    +0.081 C 
BRANCH   2  25
ATOM     25  C   UNL     1      -0.712   3.391  25.607  0.00  0.00    +0.241 C 
ATOM     26  O   UNL     1      -0.340   4.064  25.307  0.00  0.00    -0.273 OA
ATOM     27  N   UNL     1      -1.531   3.383  25.710  0.00  0.00    -0.201 NA
BRANCH  27  28
ATOM     28  C   UNL     1      -1.977   4.047  25.513  0.00  0.00    +0.142 C 
BRANCH  28  29
ATOM     29  C   UNL     1      -2.777   3.967  25.325  0.00  0.00    +0.010 A 
ATOM     30  C   UNL     1      -3.002   3.763  24.557  0.00  0.00    -0.002 A 
ATOM     31  C   UNL     1      -3.801   3.683  24.370  0.00  0.00    -0.000 A 
ATOM     32  C   UNL     1      -4.375   3.806  24.950  0.00  0.00    +0.001 A 
ATOM     33  C   UNL     1      -4.150   4.009  25.717  0.00  0.00    +0.011 A 
ATOM     34  C   UNL     1      -3.350   4.090  25.904  0.00  0.00    +0.055 A 
ATOM     35 CL   UNL     1      -3.125   4.293  26.671  0.00  0.00    -0.083 Cl
ENDBRANCH  28  29
ENDBRANCH  27  28
ENDBRANCH   2  25
ENDBRANCH   3   2
TORSDOF 6
ENDMDL
MODEL 9
REMARK VINA RESULT:     -10.6      2.273      5.442
REMARK  Name = 
REMARK  6 active torsions:
REMARK  status: ('A' for Active; 'I' for Inactive)
REMARK    1  A    between atoms: C_2  and  C_3
REMARK    2  A    between atoms: C_2  and  C_25
REMARK    3  A    between atoms: C_10  and  N_11
REMARK    4  A    between atoms: C_12  and  C_14
REMARK    5  A    between atoms: N_27  and  C_28
REMARK    6  A    between atoms: C_28  and  C_29
REMARK                            x       y       z     vdW  Elec       q    Type
REMARK                         _______ _______ _______ _____ _____    ______ ____
ROOT
ATOM      3  C   UNL     1      -0.655   1.041  24.465  0.00  0.00    +0.039 C 
ATOM      4  C   UNL     1      -0.126   1.373  25.005  0.00  0.00    +0.003 C 
ATOM      5  C   UNL     1      -0.347   2.035  25.444  0.00  0.00    +0.000 C 
ATOM      6  C   UNL     1      -1.095   2.365  25.345  0.00  0.00    +0.002 C 
ATOM      7  C   UNL     1      -0.568   2.697  25.883  0.00  0.00    +0.000 C 
ATOM      8  C   UNL     1      -1.317   3.028  25.784  0.00  0.00    +0.002 C 
ATOM      9  C   UNL     1      -2.066   3.358  25.684  0.00  0.00    +0.022 C 
ATOM     10  C   UNL     1      -2.595   3.025  25.144  0.00  0.00    +0.096 C 
ATOM     20  C   UNL     1      -2.374   2.363  24.705  0.00  0.00    +0.022 C 
ATOM     21  C   UNL     1      -2.902   2.031  24.166  0.00  0.00    +0.002 C 
ATOM     22  C   UNL     1      -1.624   2.033  24.804  0.00  0.00    +0.032 C 
ATOM     23  C   UNL     1      -1.403   1.371  24.365  0.00  0.00    +0.152 C 
ATOM     24  O   UNL     1      -1.932   1.039  23.826  0.00  0.00    -0.223 OA
ENDROOT
BRANCH  10  11
ATOM     11  N   UNL     1      -3.344   3.356  25.045  0.00  0.00    -0.202 NA
ATOM     12  C   UNL     1      -3.846   3.443  25.692  0.00  0.00    +0.282 C 
ATOM     13  O   UNL     1      -3.599   3.200  26.442  0.00  0.00    -0.267 OA
BRANCH  12  14
ATOM     14  C   UNL     1      -4.596   3.774  25.593  0.00  0.00    +0.136 A 
ATOM     15  N   UNL     1      -4.673   4.567  25.383  0.00  0.00    -0.239 NA
ATOM     16  C   UNL     1      -5.422   4.898  25.284  0.00  0.00    +0.099 A 
ATOM     17  C   UNL     1      -6.095   4.434  25.394  0.00  0.00    +0.021 A 
ATOM     18  C   UNL     1      -6.019   3.639  25.604  0.00  0.00    +0.003 A 
ATOM     19  C   UNL     1      -5.269   3.310  25.704  0.00  0.00    +0.024 A 
ENDBRANCH  12  14
ENDBRANCH  10  11
BRANCH   3   2
ATOM      1  C   UNL     1      -0.159   0.467  23.253  0.00  0.00    +0.010 C 
ATOM      2  C   UNL     1      -0.433   0.378  24.026  0.00  0.00    +0.081 C 
BRANCH   2  25
ATOM     25  C   UNL     1      -0.486  -0.374  24.360  0.00  0.00    +0.241 C 
ATOM     26  O   UNL     1       0.179  -0.719  24.709  0.00  0.00    -0.273 OA
ATOM     27  N   UNL     1      -1.203  -0.783  24.346  0.00  0.00    -0.201 NA
BRANCH  27  28
ATOM     28  C   UNL     1      -1.256  -1.534  24.680  0.00  0.00    +0.142 C 
BRANCH  28  29
ATOM     29  C   UNL     1      -1.994  -1.879  24.806  0.00  0.00    +0.010 A 
ATOM     30  C   UNL     1      -2.535  -1.524  25.318  0.00  0.00    -0.002 A 
ATOM     31  C   UNL     1      -3.272  -1.870  25.443  0.00  0.00    -0.000 A 
ATOM     32  C   UNL     1      -3.471  -2.571  25.056  0.00  0.00    +0.001 A 
ATOM     33  C   UNL     1      -2.931  -2.926  24.544  0.00  0.00    +0.011 A 
ATOM     34  C   UNL     1      -2.192  -2.580  24.419  0.00  0.00    +0.055 A 
ATOM     35 CL   UNL     1      -1.652  -2.935  23.907  0.00  0.00    -0.083 Cl
ENDBRANCH  28  29
ENDBRANCH  27  28
ENDBRANCH   2  25
ENDBRANCH   3   2
TORSDOF 6
ENDMDL
MODEL 10
REMARK VINA RESULT:     -10.0      2.514      4.737
REMARK  Name = 
REMARK  6 active torsions:
REMARK  status: ('A' for Active; 'I' for Inactive)
REMARK    1  A    between atoms: C_2  and  C_3
REMARK    2  A    between atoms: C_2  and  C_25
REMARK    3  A    between atoms: C_10  and  N_11
REMARK    4  A    between atoms: C_12  and  C_14
REMARK    5  A    between atoms: N_27  and  C_28
REMARK    6  A    between atoms: C_28  and  C_29
REMARK                            x       y       z     vdW  Elec       q    Type
REMARK                         _______ _______ _______ _____ _____    ______ ____
ROOT
ATOM      3  C   UNL     1      -2.017  -1.332  24.700  0.00  0.00    +0.039 C 
ATOM      4  C   UNL     1      -2.509  -1.858  24.296  0.00  0.00    +0.003 C 
ATOM      5  C   UNL     1      -3.304  -1.674  24.181  0.00  0.00    +0.000 C 
ATOM      6  C   UNL     1      -3.608  -0.964  24.469  0.00  0.00    +0.002 C 
ATOM      7  C   UNL     1      -4.099  -1.489  24.066  0.00  0.00    +0.000 C 
ATOM      8  C   UNL     1      -4.404  -0.779  24.355  0.00  0.00    +0.002 C 
ATOM      9  C   UNL     1      -4.709  -0.069  24.643  0.00  0.00    +0.022 C 
ATOM     10  C   UNL     1      -4.217   0.458  25.047  0.00  0.00    +0.096 C 
ATOM     20  C   UNL     1      -3.422   0.273  25.162  0.00  0.00    +0.022 C 
ATOM     21  C   UNL     1      -2.930   0.799  25.565  0.00  0.00    +0.002 C 
ATOM     22  C   UNL     1      -3.117  -0.437  24.873  0.00  0.00    +0.032 C 
ATOM     23  C   UNL     1      -2.321  -0.622  24.988  0.00  0.00    +0.152 C 
ATOM     24  O   UNL     1      -1.830  -0.096  25.391  0.00  0.00    -0.223 OA
ENDROOT
BRANCH  10  11
ATOM     11  N   UNL     1      -4.522   1.168  25.335  0.00  0.00    -0.202 NA
ATOM     12  C   UNL     1      -4.815   1.734  24.813  0.00  0.00    +0.282 C 
ATOM     13  O   UNL     1      -4.803   1.590  23.999  0.00  0.00    -0.267 OA
BRANCH  12  14
ATOM     14  C   UNL     1      -5.120   2.444  25.101  0.00  0.00    +0.136 A 
ATOM     15  N   UNL     1      -4.703   3.147  24.993  0.00  0.00    -0.239 NA
ATOM     16  C   UNL     1      -5.009   3.858  25.281  0.00  0.00    +0.099 A 
ATOM     17  C   UNL     1      -5.732   3.864  25.678  0.00  0.00    +0.021 A 
ATOM     18  C   UNL     1      -6.150   3.160  25.786  0.00  0.00    +0.003 A 
ATOM     19  C   UNL     1      -5.844   2.451  25.498  0.00  0.00    +0.024 A 
ENDBRANCH  12  14
ENDBRANCH  10  11
BRANCH   3   2
ATOM      1  C   UNL     1      -0.961  -1.791  25.548  0.00  0.00    +0.010 C 
ATOM      2  C   UNL     1      -1.221  -1.517  24.814  0.00  0.00    +0.081 C 
BRANCH   2  25
ATOM     25  C   UNL     1      -0.684  -1.428  24.194  0.00  0.00    +0.241 C 
ATOM     26  O   UNL     1      -0.625  -2.011  23.612  0.00  0.00    -0.273 OA
ATOM     27  N   UNL     1      -0.205  -0.756  24.155  0.00  0.00    -0.201 NA
BRANCH  27  28
ATOM     28  C   UNL     1       0.331  -0.668  23.536  0.00  0.00    +0.142 C 
BRANCH  28  29
ATOM     29  C   UNL     1       0.781   0.020  23.475  0.00  0.00    +0.010 A 
ATOM     30  C   UNL     1       0.556   0.699  23.886  0.00  0.00    -0.002 A 
ATOM     31  C   UNL     1       1.006   1.387  23.824  0.00  0.00    -0.000 A 
ATOM     32  C   UNL     1       1.683   1.397  23.352  0.00  0.00    +0.001 A 
ATOM     33  C   UNL     1       1.909   0.718  22.941  0.00  0.00    +0.011 A 
ATOM     34  C   UNL     1       1.458   0.029  23.003  0.00  0.00    +0.055 A 
ATOM     35 CL   UNL     1       1.683  -0.649  22.592  0.00  0.00    -0.083 Cl
ENDBRANCH  28  29
ENDBRANCH  27  28
ENDBRANCH   2  25
ENDBRANCH   3   2
TORSDOF 6
ENDMDL
