MODEL 1
REMARK VINA RESULT:     -13.4      0.000      0.000
REMARK  Name = 
REMARK  5 active torsions:
REMARK  status: ('A' for Active; 'I' for Inactive)
REMARK    1  A    between atoms: C_2  and  C_20
REMARK    2  A    between atoms: C_9  and  N_10
REMARK    3  A    between atoms: C_20  and  C_22
REMARK    4  A    between atoms: N_24  and  C_25
REMARK    5  A    between atoms: C_25  and  C_26
REMARK                            x       y       z     vdW  Elec       q    Type
REMARK                         _______ _______ _______ _____ _____    ______ ____
ROOT
ATOM      1  C   UNL     1      -4.179   2.333  24.931  0.00  0.00    +0.052 C 
ATOM      2  C   UNL     1      -4.545   2.763  25.532  0.00  0.00    -0.001 C 
ATOM      3  C   UNL     1      -4.149   3.391  25.891  0.00  0.00    -0.000 C 
ATOM      4  C   UNL     1      -3.385   3.589  25.648  0.00  0.00    -0.001 C 
ATOM      5  C   UNL     1      -3.752   4.019  26.250  0.00  0.00    -0.000 C 
ATOM      6  C   UNL     1      -2.989   4.218  26.008  0.00  0.00    +0.002 C 
ATOM      7  C   UNL     1      -2.225   4.416  25.766  0.00  0.00    +0.022 C 
ATOM      8  C   UNL     1      -1.858   3.986  25.164  0.00  0.00    +0.095 C 
ATOM     13  C   UNL     1      -2.255   3.358  24.805  0.00  0.00    +0.019 C 
ATOM     14  C   UNL     1      -1.888   2.929  24.204  0.00  0.00    +0.002 C 
ATOM     15  C   UNL     1      -3.018   3.160  25.048  0.00  0.00    +0.045 C 
ATOM     16  C   UNL     1      -3.414   2.532  24.689  0.00  0.00    +0.145 C 
ATOM     17  O   UNL     1      -3.048   2.102  24.088  0.00  0.00    -0.224 OA
ENDROOT
BRANCH   8   9
ATOM      9  N   UNL     1      -1.096   4.184  24.922  0.00  0.00    -0.207 NA
ATOM     10  C   UNL     1      -0.871   4.977  24.872  0.00  0.00    +0.242 C 
ATOM     11  C   UNL     1      -0.108   5.176  24.630  0.00  0.00    +0.096 C 
ATOM     12  O   UNL     1      -1.411   5.572  25.066  0.00  0.00    -0.273 OA
ENDBRANCH   8   9
BRANCH   1  18
ATOM     18  C   UNL     1      -4.575   1.705  24.572  0.00  0.00    +0.077 C 
ATOM     19  C   UNL     1      -4.855   1.782  23.800  0.00  0.00    +0.009 C 
BRANCH  18  20
ATOM     20  C   UNL     1      -4.690   1.000  24.984  0.00  0.00    +0.241 C 
ATOM     21  O   UNL     1      -5.222   0.973  25.615  0.00  0.00    -0.273 OA
ATOM     22  N   UNL     1      -4.275   0.321  24.766  0.00  0.00    -0.201 NA
BRANCH  22  23
ATOM     23  C   UNL     1      -4.391  -0.384  25.177  0.00  0.00    +0.142 C 
BRANCH  23  24
ATOM     24  C   UNL     1      -4.081  -1.090  24.883  0.00  0.00    +0.010 A 
ATOM     25  C   UNL     1      -4.274  -1.340  24.122  0.00  0.00    -0.002 A 
ATOM     26  C   UNL     1      -3.964  -2.047  23.828  0.00  0.00    -0.000 A 
ATOM     27  C   UNL     1      -3.460  -2.502  24.297  0.00  0.00    +0.001 A 
ATOM     28  C   UNL     1      -3.267  -2.251  25.059  0.00  0.00    +0.011 A 
ATOM     29  C   UNL     1      -3.577  -1.545  25.352  0.00  0.00    +0.055 A 
ATOM     30 CL   UNL     1      -3.383  -1.294  26.114  0.00  0.00    -0.083 Cl
ENDBRANCH  23  24
ENDBRANCH  22  23
ENDBRANCH  18  20
ENDBRANCH   1  18
TORSDOF 5
ENDMDL
MODEL 2
REMARK VINA RESULT:     -12.8      1.818      5.027
REMARK  Name = 
REMARK  5 active torsions:
REMARK  status: ('A' for Active; 'I' for Inactive)
REMARK    1  A    between atoms: C_2  and  C_20
REMARK    2  A    between atoms: C_9  and  N_10
REMARK    3  A    between atoms: C_20  and  C_22
REMARK    4  A    between atoms: N_24  and  C_25
REMARK    5  A    between atoms: C_25  and  C_26
REMARK                            x       y       z     vdW  Elec       q    Type
REMARK                         _______ _______ _______ _____ _____    ______ ____
ROOT
ATOM      1  C   UNL     1      -4.241   2.142  24.323  0.00  0.00    +0.052 C 
ATOM      2  C   UNL     1      -4.797   2.073  24.927  0.00  0.00    -0.001 C 
ATOM      3  C   UNL     1      -4.974   1.332  25.242  0.00  0.00    -0.000 C 
ATOM      4  C   UNL     1      -4.593   0.658  24.952  0.00  0.00    -0.001 C 
ATOM      5  C   UNL     1      -5.151   0.589  25.557  0.00  0.00    -0.000 C 
ATOM      6  C   UNL     1      -4.771  -0.083  25.267  0.00  0.00    +0.002 C 
ATOM      7  C   UNL     1      -4.391  -0.756  24.978  0.00  0.00    +0.022 C 
ATOM      8  C   UNL     1      -3.833  -0.686  24.372  0.00  0.00    +0.095 C 
ATOM     13  C   UNL     1      -3.657   0.055  24.058  0.00  0.00    +0.019 C 
ATOM     14  C   UNL     1      -3.100   0.124  23.454  0.00  0.00    +0.002 C 
ATOM     15  C   UNL     1      -4.037   0.728  24.348  0.00  0.00    +0.045 C 
ATOM     16  C   UNL     1      -3.860   1.469  24.033  0.00  0.00    +0.145 C 
ATOM     17  O   UNL     1      -3.303   1.539  23.428  0.00  0.00    -0.224 OA
ENDROOT
BRANCH   8   9
ATOM      9  N   UNL     1      -3.453  -1.358  24.083  0.00  0.00    -0.207 NA
ATOM     10  C   UNL     1      -3.339  -2.012  24.575  0.00  0.00    +0.242 C 
ATOM     11  C   UNL     1      -2.959  -2.684  24.285  0.00  0.00    +0.096 C 
ATOM     12  O   UNL     1      -3.605  -1.992  25.356  0.00  0.00    -0.273 OA
ENDBRANCH   8   9
BRANCH   1  18
ATOM     18  C   UNL     1      -4.063   2.884  24.007  0.00  0.00    +0.077 C 
ATOM     19  C   UNL     1      -4.218   3.041  23.212  0.00  0.00    +0.009 C 
BRANCH  18  20
ATOM     20  C   UNL     1      -3.732   3.467  24.486  0.00  0.00    +0.241 C 
ATOM     21  O   UNL     1      -4.219   3.951  24.945  0.00  0.00    -0.273 OA
ATOM     22  N   UNL     1      -2.913   3.569  24.507  0.00  0.00    -0.201 NA
BRANCH  22  23
ATOM     23  C   UNL     1      -2.581   4.152  24.985  0.00  0.00    +0.142 C 
BRANCH  23  24
ATOM     24  C   UNL     1      -1.761   4.212  25.056  0.00  0.00    +0.010 A 
ATOM     25  C   UNL     1      -1.304   3.532  25.146  0.00  0.00    -0.002 A 
ATOM     26  C   UNL     1      -0.484   3.591  25.217  0.00  0.00    -0.000 A 
ATOM     27  C   UNL     1      -0.121   4.332  25.198  0.00  0.00    +0.001 A 
ATOM     28  C   UNL     1      -0.579   5.013  25.108  0.00  0.00    +0.011 A 
ATOM     29  C   UNL     1      -1.399   4.953  25.037  0.00  0.00    +0.055 A 
ATOM     30 CL   UNL     1      -1.856   5.634  24.947  0.00  0.00    -0.083 Cl
ENDBRANCH  23  24
ENDBRANCH  22  23
ENDBRANCH  18  20
ENDBRANCH   1  18
TORSDOF 5
ENDMDL
MODEL 3
REMARK VINA RESULT:     -12.7      1.707      2.765
REMARK  Name = 
REMARK  5 active torsions:
REMARK  status: ('A' for Active; 'I' for Inactive)
REMARK    1  A    between atoms: C_2  and  C_20
REMARK    2  A    between atoms: C_9  and  N_10
REMARK    3  A    between atoms: C_20  and  C_22
REMARK    4  A    between atoms: N_24  and  C_25
REMARK    5  A    between atoms: C_25  and  C_26
REMARK                            x       y       z     vdW  Elec       q    Type
REMARK                         _______ _______ _______ _____ _____    ______ ____
ROOT
ATOM      1  C   UNL     1      -1.581   1.768  24.592  0.00  0.00    +0.052 C 
ATOM      2  C   UNL     1      -1.121   2.137  25.169  0.00  0.00    -0.001 C 
ATOM      3  C   UNL     1      -1.425   2.773  25.594  0.00  0.00    -0.000 C 
ATOM      4  C   UNL     1      -2.192   3.042  25.443  0.00  0.00    -0.001 C 
ATOM      5  C   UNL     1      -1.731   3.411  26.021  0.00  0.00    -0.000 C 
ATOM      6  C   UNL     1      -2.496   3.680  25.870  0.00  0.00    +0.002 C 
ATOM      7  C   UNL     1      -3.261   3.949  25.719  0.00  0.00    +0.022 C 
ATOM      8  C   UNL     1      -3.722   3.580  25.141  0.00  0.00    +0.095 C 
ATOM     13  C   UNL     1      -3.417   2.943  24.716  0.00  0.00    +0.019 C 
ATOM     14  C   UNL     1      -3.877   2.574  24.139  0.00  0.00    +0.002 C 
ATOM     15  C   UNL     1      -2.651   2.674  24.867  0.00  0.00    +0.045 C 
ATOM     16  C   UNL     1      -2.347   2.037  24.441  0.00  0.00    +0.145 C 
ATOM     17  O   UNL     1      -2.807   1.668  23.864  0.00  0.00    -0.224 OA
ENDROOT
BRANCH   8   9
ATOM      9  N   UNL     1      -4.487   3.848  24.990  0.00  0.00    -0.207 NA
ATOM     10  C   UNL     1      -5.053   3.842  25.591  0.00  0.00    +0.242 C 
ATOM     11  C   UNL     1      -5.818   4.110  25.440  0.00  0.00    +0.096 C 
ATOM     12  O   UNL     1      -4.853   3.566  26.344  0.00  0.00    -0.273 OA
ENDBRANCH   8   9
BRANCH   1  18
ATOM     18  C   UNL     1      -1.276   1.131  24.166  0.00  0.00    +0.077 C 
ATOM     19  C   UNL     1      -1.091   1.220  23.367  0.00  0.00    +0.009 C 
BRANCH  18  20
ATOM     20  C   UNL     1      -1.157   0.404  24.537  0.00  0.00    +0.241 C 
ATOM     21  O   UNL     1      -0.467   0.270  24.971  0.00  0.00    -0.273 OA
ATOM     22  N   UNL     1      -1.727  -0.189  24.477  0.00  0.00    -0.201 NA
BRANCH  22  23
ATOM     23  C   UNL     1      -1.608  -0.915  24.848  0.00  0.00    +0.142 C 
BRANCH  23  24
ATOM     24  C   UNL     1      -2.228  -1.457  24.905  0.00  0.00    +0.010 A 
ATOM     25  C   UNL     1      -2.934  -1.241  25.272  0.00  0.00    -0.002 A 
ATOM     26  C   UNL     1      -3.553  -1.783  25.329  0.00  0.00    -0.000 A 
ATOM     27  C   UNL     1      -3.467  -2.542  25.017  0.00  0.00    +0.001 A 
ATOM     28  C   UNL     1      -2.760  -2.759  24.649  0.00  0.00    +0.011 A 
ATOM     29  C   UNL     1      -2.141  -2.216  24.593  0.00  0.00    +0.055 A 
ATOM     30 CL   UNL     1      -1.435  -2.434  24.226  0.00  0.00    -0.083 Cl
ENDBRANCH  23  24
ENDBRANCH  22  23
ENDBRANCH  18  20
ENDBRANCH   1  18
TORSDOF 5
ENDMDL
MODEL 4
REMARK VINA RESULT:     -12.7      2.315      5.614
REMARK  Name = 
REMARK  5 active torsions:
REMARK  status: ('A' for Active; 'I' for Inactive)
REMARK    1  A    between atoms: C_2  and  C_20
REMARK    2  A    between atoms: C_9  and  N_10
REMARK    3  A    between atoms: C_20  and  C_22
REMARK    4  A    between atoms: N_24  and  C_25
REMARK    5  A    between atoms: C_25  and  C_26
REMARK                            x       y       z     vdW  Elec       q    Type
REMARK                         _______ _______ _______ _____ _____    ______ ____
ROOT
ATOM      1  C   UNL     1      -0.908   0.739  24.803  0.00  0.00    +0.052 C 
ATOM      2  C   UNL     1      -0.678   0.375  25.506  0.00  0.00    -0.001 C 
ATOM      3  C   UNL     1      -1.132  -0.237  25.821  0.00  0.00    -0.000 C 
ATOM      4  C   UNL     1      -1.817  -0.485  25.433  0.00  0.00    -0.001 C 
ATOM      5  C   UNL     1      -1.587  -0.849  26.137  0.00  0.00    -0.000 C 
ATOM      6  C   UNL     1      -2.271  -1.097  25.749  0.00  0.00    +0.002 C 
ATOM      7  C   UNL     1      -2.956  -1.345  25.361  0.00  0.00    +0.022 C 
ATOM      8  C   UNL     1      -3.187  -0.980  24.657  0.00  0.00    +0.095 C 
ATOM     13  C   UNL     1      -2.732  -0.368  24.342  0.00  0.00    +0.019 C 
ATOM     14  C   UNL     1      -2.963  -0.004  23.639  0.00  0.00    +0.002 C 
ATOM     15  C   UNL     1      -2.047  -0.120  24.730  0.00  0.00    +0.045 C 
ATOM     16  C   UNL     1      -1.594   0.491  24.415  0.00  0.00    +0.145 C 
ATOM     17  O   UNL     1      -1.823   0.856  23.711  0.00  0.00    -0.224 OA
ENDROOT
BRANCH   8   9
ATOM      9  N   UNL     1      -3.870  -1.227  24.269  0.00  0.00    -0.207 NA
ATOM     10  C   UNL     1      -3.996  -2.031  24.126  0.00  0.00    +0.242 C 
ATOM     11  C   UNL     1      -4.681  -2.279  23.738  0.00  0.00    +0.096 C 
ATOM     12  O   UNL     1      -3.437  -2.586  24.372  0.00  0.00    -0.273 OA
ENDBRANCH   8   9
BRANCH   1  18
ATOM     18  C   UNL     1      -0.454   1.352  24.488  0.00  0.00    +0.077 C 
ATOM     19  C   UNL     1      -0.134   1.279  23.731  0.00  0.00    +0.009 C 
BRANCH  18  20
ATOM     20  C   UNL     1      -0.320   2.036  24.927  0.00  0.00    +0.241 C 
ATOM     21  O   UNL     1       0.333   2.082  25.431  0.00  0.00    -0.273 OA
ATOM     22  N   UNL     1      -0.839   2.675  24.865  0.00  0.00    -0.201 NA
BRANCH  22  23
ATOM     23  C   UNL     1      -0.705   3.360  25.305  0.00  0.00    +0.142 C 
BRANCH  23  24
ATOM     24  C   UNL     1      -1.304   3.920  25.390  0.00  0.00    +0.010 A 
ATOM     25  C   UNL     1      -2.020   3.709  25.740  0.00  0.00    -0.002 A 
ATOM     26  C   UNL     1      -2.620   4.270  25.825  0.00  0.00    -0.000 A 
ATOM     27  C   UNL     1      -2.503   5.042  25.559  0.00  0.00    +0.001 A 
ATOM     28  C   UNL     1      -1.786   5.254  25.208  0.00  0.00    +0.011 A 
ATOM     29  C   UNL     1      -1.187   4.692  25.124  0.00  0.00    +0.055 A 
ATOM     30 CL   UNL     1      -0.470   4.904  24.773  0.00  0.00    -0.083 Cl
ENDBRANCH  23  24
ENDBRANCH  22  23
ENDBRANCH  18  20
ENDBRANCH   1  18
TORSDOF 5
ENDMDL
MODEL 5
REMARK VINA RESULT:     -12.2      1.868      2.626
REMARK  Name = 
REMARK  5 active torsions:
REMARK  status: ('A' for Active; 'I' for Inactive)
REMARK    1  A    between atoms: C_2  and  C_20
REMARK    2  A    between atoms: C_9  and  N_10
REMARK    3  A    between atoms: C_20  and  C_22
REMARK    4  A    between atoms: N_24  and  C_25
REMARK    5  A    between atoms: C_25  and  C_26
REMARK                            x       y       z     vdW  Elec       q    Type
REMARK                         _______ _______ _______ _____ _____    ______ ____
ROOT
ATOM      1  C   UNL     1      -0.771   0.979  24.758  0.00  0.00    +0.052 C 
ATOM      2  C   UNL     1      -0.316   0.985  25.445  0.00  0.00    -0.001 C 
ATOM      3  C   UNL     1      -0.283   1.663  25.912  0.00  0.00    -0.000 C 
ATOM      4  C   UNL     1      -0.706   2.337  25.692  0.00  0.00    -0.001 C 
ATOM      5  C   UNL     1      -0.250   2.343  26.380  0.00  0.00    -0.000 C 
ATOM      6  C   UNL     1      -0.673   3.016  26.160  0.00  0.00    +0.002 C 
ATOM      7  C   UNL     1      -1.096   3.689  25.941  0.00  0.00    +0.022 C 
ATOM      8  C   UNL     1      -1.553   3.684  25.253  0.00  0.00    +0.095 C 
ATOM     13  C   UNL     1      -1.585   3.005  24.786  0.00  0.00    +0.019 C 
ATOM     14  C   UNL     1      -2.041   3.000  24.098  0.00  0.00    +0.002 C 
ATOM     15  C   UNL     1      -1.162   2.331  25.005  0.00  0.00    +0.045 C 
ATOM     16  C   UNL     1      -1.195   1.653  24.538  0.00  0.00    +0.145 C 
ATOM     17  O   UNL     1      -1.651   1.647  23.850  0.00  0.00    -0.224 OA
ENDROOT
BRANCH   8   9
ATOM      9  N   UNL     1      -1.975   4.356  25.033  0.00  0.00    -0.207 NA
ATOM     10  C   UNL     1      -1.600   5.091  25.011  0.00  0.00    +0.242 C 
ATOM     11  C   UNL     1      -2.023   5.764  24.791  0.00  0.00    +0.096 C 
ATOM     12  O   UNL     1      -0.801   5.152  25.210  0.00  0.00    -0.273 OA
ENDBRANCH   8   9
BRANCH   1  18
ATOM     18  C   UNL     1      -0.805   0.300  24.290  0.00  0.00    +0.077 C 
ATOM     19  C   UNL     1      -0.537   0.324  23.510  0.00  0.00    +0.009 C 
BRANCH  18  20
ATOM     20  C   UNL     1      -1.105  -0.401  24.601  0.00  0.00    +0.241 C 
ATOM     21  O   UNL     1      -0.647  -0.854  25.118  0.00  0.00    -0.273 OA
ATOM     22  N   UNL     1      -1.864  -0.653  24.396  0.00  0.00    -0.201 NA
BRANCH  22  23
ATOM     23  C   UNL     1      -2.165  -1.355  24.707  0.00  0.00    +0.142 C 
BRANCH  23  24
ATOM     24  C   UNL     1      -2.909  -1.624  24.474  0.00  0.00    +0.010 A 
ATOM     25  C   UNL     1      -3.510  -1.085  24.308  0.00  0.00    -0.002 A 
ATOM     26  C   UNL     1      -4.255  -1.354  24.076  0.00  0.00    -0.000 A 
ATOM     27  C   UNL     1      -4.398  -2.164  24.010  0.00  0.00    +0.001 A 
ATOM     28  C   UNL     1      -3.796  -2.705  24.176  0.00  0.00    +0.011 A 
ATOM     29  C   UNL     1      -3.052  -2.434  24.408  0.00  0.00    +0.055 A 
ATOM     30 CL   UNL     1      -2.450  -2.974  24.574  0.00  0.00    -0.083 Cl
ENDBRANCH  23  24
ENDBRANCH  22  23
ENDBRANCH  18  20
ENDBRANCH   1  18
TORSDOF 5
ENDMDL
MODEL 6
REMARK VINA RESULT:     -11.6      2.563      5.263
REMARK  Name = 
REMARK  5 active torsions:
REMARK  status: ('A' for Active; 'I' for Inactive)
REMARK    1  A    between atoms: C_2  and  C_20
REMARK    2  A    between atoms: C_9  and  N_10
REMARK    3  A    between atoms: C_20  and  C_22
REMARK    4  A    between atoms: N_24  and  C_25
REMARK    5  A    between atoms: C_25  and  C_26
REMARK                            x       y       z     vdW  Elec       q    Type
REMARK                         _______ _______ _______ _____ _____    ______ ____
ROOT
ATOM      1  C   UNL     1      -0.367   1.785  25.138  0.00  0.00    +0.052 C 
ATOM      2  C   UNL     1       0.028   1.816  24.415  0.00  0.00    -0.001 C 
ATOM      3  C   UNL     1       0.110   1.133  23.960  0.00  0.00    -0.000 C 
ATOM      4  C   UNL     1      -0.204   0.418  24.228  0.00  0.00    -0.001 C 
ATOM      5  C   UNL     1       0.192   0.450  23.504  0.00  0.00    -0.000 C 
ATOM      6  C   UNL     1      -0.122  -0.265  23.772  0.00  0.00    +0.002 C 
ATOM      7  C   UNL     1      -0.436  -0.979  24.040  0.00  0.00    +0.022 C 
ATOM      8  C   UNL     1      -0.832  -1.011  24.764  0.00  0.00    +0.095 C 
ATOM     13  C   UNL     1      -0.913  -0.328  25.219  0.00  0.00    +0.019 C 
ATOM     14  C   UNL     1      -1.309  -0.360  25.942  0.00  0.00    +0.002 C 
ATOM     15  C   UNL     1      -0.599   0.387  24.951  0.00  0.00    +0.045 C 
ATOM     16  C   UNL     1      -0.681   1.069  25.406  0.00  0.00    +0.145 C 
ATOM     17  O   UNL     1      -1.077   1.039  26.129  0.00  0.00    -0.224 OA
ENDROOT
BRANCH   8   9
ATOM      9  N   UNL     1      -1.145  -1.724  25.031  0.00  0.00    -0.207 NA
ATOM     10  C   UNL     1      -1.673  -2.147  24.557  0.00  0.00    +0.242 C 
ATOM     11  C   UNL     1      -1.986  -2.862  24.825  0.00  0.00    +0.096 C 
ATOM     12  O   UNL     1      -1.886  -1.855  23.815  0.00  0.00    -0.273 OA
ENDBRANCH   8   9
BRANCH   1  18
ATOM     18  C   UNL     1      -0.450   2.467  25.594  0.00  0.00    +0.077 C 
ATOM     19  C   UNL     1      -0.052   2.532  26.313  0.00  0.00    +0.009 C 
BRANCH  18  20
ATOM     20  C   UNL     1      -0.929   3.084  25.331  0.00  0.00    +0.241 C 
ATOM     21  O   UNL     1      -0.598   3.712  24.908  0.00  0.00    -0.273 OA
ATOM     22  N   UNL     1      -1.739   3.075  25.489  0.00  0.00    -0.201 NA
BRANCH  22  23
ATOM     23  C   UNL     1      -2.218   3.692  25.226  0.00  0.00    +0.142 C 
BRANCH  23  24
ATOM     24  C   UNL     1      -3.034   3.585  25.166  0.00  0.00    +0.010 A 
ATOM     25  C   UNL     1      -3.350   3.168  24.530  0.00  0.00    -0.002 A 
ATOM     26  C   UNL     1      -4.166   3.061  24.470  0.00  0.00    -0.000 A 
ATOM     27  C   UNL     1      -4.666   3.372  25.048  0.00  0.00    +0.001 A 
ATOM     28  C   UNL     1      -4.349   3.790  25.685  0.00  0.00    +0.011 A 
ATOM     29  C   UNL     1      -3.534   3.897  25.744  0.00  0.00    +0.055 A 
ATOM     30 CL   UNL     1      -3.217   4.315  26.382  0.00  0.00    -0.083 Cl
ENDBRANCH  23  24
ENDBRANCH  22  23
ENDBRANCH  18  20
ENDBRANCH   1  18
TORSDOF 5
ENDMDL
MODEL 7
REMARK VINA RESULT:     -11.5      1.765      5.116
REMARK  Name = 
REMARK  5 active torsions:
REMARK  status: ('A' for Active; 'I' for Inactive)
REMARK    1  A    between atoms: C_2  and  C_20
REMARK    2  A    between atoms: C_9  and  N_10
REMARK    3  A    between atoms: C_20  and  C_22
REMARK    4  A    between atoms: N_24  and  C_25
REMARK    5  A    between atoms: C_25  and  C_26
REMARK                            x       y       z     vdW  Elec       q    Type
REMARK                         _______ _______ _______ _____ _____    ______ ____
ROOT
ATOM      1  C   UNL     1      -4.357   0.351  24.818  0.00  0.00    +0.052 C 
ATOM      2  C   UNL     1      -4.807  -0.057  24.261  0.00  0.00    -0.001 C 
ATOM      3  C   UNL     1      -4.581  -0.813  24.022  0.00  0.00    -0.000 C 
ATOM      4  C   UNL     1      -3.904  -1.162  24.342  0.00  0.00    -0.001 C 
ATOM      5  C   UNL     1      -4.355  -1.570  23.783  0.00  0.00    -0.000 C 
ATOM      6  C   UNL     1      -3.679  -1.919  24.103  0.00  0.00    +0.002 C 
ATOM      7  C   UNL     1      -3.003  -2.267  24.422  0.00  0.00    +0.022 C 
ATOM      8  C   UNL     1      -2.552  -1.859  24.981  0.00  0.00    +0.095 C 
ATOM     13  C   UNL     1      -2.778  -1.102  25.219  0.00  0.00    +0.019 C 
ATOM     14  C   UNL     1      -2.328  -0.695  25.777  0.00  0.00    +0.002 C 
ATOM     15  C   UNL     1      -3.455  -0.754  24.899  0.00  0.00    +0.045 C 
ATOM     16  C   UNL     1      -3.680   0.002  25.138  0.00  0.00    +0.145 C 
ATOM     17  O   UNL     1      -3.230   0.411  25.696  0.00  0.00    -0.224 OA
ENDROOT
BRANCH   8   9
ATOM      9  N   UNL     1      -1.877  -2.207  25.300  0.00  0.00    -0.207 NA
ATOM     10  C   UNL     1      -1.264  -2.451  24.803  0.00  0.00    +0.242 C 
ATOM     11  C   UNL     1      -0.588  -2.800  25.122  0.00  0.00    +0.096 C 
ATOM     12  O   UNL     1      -1.329  -2.347  23.986  0.00  0.00    -0.273 OA
ENDBRANCH   8   9
BRANCH   1  18
ATOM     18  C   UNL     1      -4.583   1.108  25.057  0.00  0.00    +0.077 C 
ATOM     19  C   UNL     1      -5.071   1.204  25.715  0.00  0.00    +0.009 C 
BRANCH  18  20
ATOM     20  C   UNL     1      -4.320   1.768  24.639  0.00  0.00    +0.241 C 
ATOM     21  O   UNL     1      -4.627   1.931  23.890  0.00  0.00    -0.273 OA
ATOM     22  N   UNL     1      -3.751   2.267  24.969  0.00  0.00    -0.201 NA
BRANCH  22  23
ATOM     23  C   UNL     1      -3.489   2.927  24.550  0.00  0.00    +0.142 C 
BRANCH  23  24
ATOM     24  C   UNL     1      -2.951   3.449  24.897  0.00  0.00    +0.010 A 
ATOM     25  C   UNL     1      -3.173   3.894  25.555  0.00  0.00    -0.002 A 
ATOM     26  C   UNL     1      -2.635   4.415  25.901  0.00  0.00    -0.000 A 
ATOM     27  C   UNL     1      -1.875   4.492  25.588  0.00  0.00    +0.001 A 
ATOM     28  C   UNL     1      -1.653   4.046  24.929  0.00  0.00    +0.011 A 
ATOM     29  C   UNL     1      -2.192   3.525  24.584  0.00  0.00    +0.055 A 
ATOM     30 CL   UNL     1      -1.970   3.080  23.925  0.00  0.00    -0.083 Cl
ENDBRANCH  23  24
ENDBRANCH  22  23
ENDBRANCH  18  20
ENDBRANCH   1  18
TORSDOF 5
ENDMDL
