REMARK  Name = 
REMARK  9 active torsions:
REMARK  status: ('A' for Active; 'I' for Inactive)
REMARK    1  A    between atoms: O_2  and  C_3
REMARK    2  A    between atoms: C_8  and  C_9
REMARK    3  A    between atoms: C_9  and  C_10
REMARK    4  A    between atoms: C_12  and  C_13
REMARK    5  A    between atoms: C_16  and  C_17
REMARK    6  A    between atoms: C_17  and  N_18
REMARK    7  A    between atoms: C_19  and  C_21
REMARK    8  A    between atoms: C_21  and  C_22
REMARK    9  A    between atoms: C_22  and  C_23
REMARK                            x       y       z     vdW  Elec       q    Type
REMARK                         _______ _______ _______ _____ _____    ______ ____
ROOT
ATOM     10  C   UNL     1      -1.073   4.878   0.000  0.00  0.00    +0.026 C 
ATOM     11  C   UNL     1      -1.073   5.703   0.000  0.00  0.00    +0.005 C 
ATOM     12  C   UNL     1      -0.358   6.116   0.000  0.00  0.00    +0.006 C 
ATOM     16  C   UNL     1       0.356   5.703   0.000  0.00  0.00    +0.043 C 
ATOM     26  C   UNL     1       0.356   4.878   0.000  0.00  0.00    -0.033 C 
ATOM     27  C   UNL     1      -0.358   4.466   0.000  0.00  0.00    -0.048 C 
ATOM     28  C   UNL     1      -0.358   3.641   0.000  0.00  0.00    +0.026 C 
ENDROOT
BRANCH  12  13
ATOM     13  C   UNL     1      -0.358   6.941   0.000  0.00  0.00    +0.000 C 
ATOM     14  C   UNL     1       0.356   7.353   0.000  0.00  0.00    +0.000 C 
ATOM     15  C   UNL     1      -1.073   7.353   0.000  0.00  0.00    +0.000 C 
ENDBRANCH  12  13
BRANCH  10   9
ATOM      9  C   UNL     1      -1.787   4.466   0.000  0.00  0.00    +0.070 C 
BRANCH   9   8
ATOM      3  C   UNL     1      -2.200   0.942   0.000  0.00  0.00    +0.140 A 
ATOM      4  C   UNL     1      -2.612   1.657   0.000  0.00  0.00    +0.058 A 
ATOM      5  C   UNL     1      -2.200   2.371   0.000  0.00  0.00    +0.103 A 
ATOM      6  C   UNL     1      -1.375   2.371   0.000  0.00  0.00    +0.100 A 
ATOM      7  N   UNL     1      -1.120   3.156   0.000  0.00  0.00    -0.229 NA
ATOM      8  C   UNL     1      -1.787   3.641   0.000  0.00  0.00    +0.139 A 
ATOM     29  N   UNL     1      -2.455   3.156   0.000  0.00  0.00    -0.229 NA
ATOM     30  C   UNL     1      -0.962   1.657   0.000  0.00  0.00    +0.024 A 
ATOM     31  C   UNL     1      -1.375   0.942   0.000  0.00  0.00    +0.039 A 
BRANCH   3   2
ATOM      1  C   UNL     1      -2.200  -0.487   0.000  0.00  0.00    +0.252 C 
ATOM      2  O   UNL     1      -2.612   0.228   0.000  0.00  0.00    -0.471 OA
ENDBRANCH   3   2
ENDBRANCH   9   8
ENDBRANCH  10   9
BRANCH  16  17
ATOM     17  C   UNL     1       1.071   6.116   0.000  0.00  0.00    +0.119 C 
BRANCH  17  18
ATOM     18  N   UNL     1       1.785   5.703   0.000  0.00  0.00    -0.205 NA
ATOM     19  C   UNL     1       2.499   6.116   0.000  0.00  0.00    +0.242 C 
ATOM     20  O   UNL     1       2.499   6.941   0.000  0.00  0.00    -0.273 OA
BRANCH  19  21
ATOM     21  C   UNL     1       3.214   5.703   0.000  0.00  0.00    +0.099 C 
BRANCH  21  22
ATOM     22  C   UNL     1       3.928   6.116   0.000  0.00  0.00    +0.124 C 
BRANCH  22  23
ATOM     23  C   UNL     1       4.643   5.703   0.000  0.00  0.00    +0.365 C 
ATOM     24  O   UNL     1       5.357   6.116   0.000  0.00  0.00    -0.246 OA
ATOM     25  O   UNL     1       4.643   4.878   0.000  0.00  0.00    -0.246 OA
ENDBRANCH  22  23
ENDBRANCH  21  22
ENDBRANCH  19  21
ENDBRANCH  17  18
ENDBRANCH  16  17
TORSDOF 9
