REMARK  Name = 
REMARK  5 active torsions:
REMARK  status: ('A' for Active; 'I' for Inactive)
REMARK    1  A    between atoms: C_2  and  N_3
REMARK    2  A    between atoms: C_4  and  C_10
REMARK    3  A    between atoms: C_10  and  C_12
REMARK    4  A    between atoms: C_15  and  N_16
REMARK    5  A    between atoms: C_17  and  C_19
REMARK                            x       y       z     vdW  Elec       q    Type
REMARK                         _______ _______ _______ _____ _____    ______ ____
ROOT
ATOM     12  C   UNL     1       5.001  -5.362   0.000  0.00  0.00    +0.010 A 
ATOM     13  C   UNL     1       5.716  -4.950   0.000  0.00  0.00    -0.000 A 
ATOM     14  C   UNL     1       6.430  -5.362   0.000  0.00  0.00    +0.016 A 
ATOM     15  C   UNL     1       6.430  -6.188   0.000  0.00  0.00    +0.073 A 
ATOM     25  C   UNL     1       5.716  -6.600   0.000  0.00  0.00    +0.016 A 
ATOM     26  C   UNL     1       5.001  -6.188   0.000  0.00  0.00    -0.000 A 
ENDROOT
BRANCH  15  16
ATOM     16  N   UNL     1       7.145  -6.600   0.000  0.00  0.00    -0.179 NA
ATOM     17  C   UNL     1       7.859  -6.188   0.000  0.00  0.00    +0.245 C 
ATOM     18  O   UNL     1       7.859  -5.362   0.000  0.00  0.00    -0.273 OA
BRANCH  17  19
ATOM     19  C   UNL     1       8.574  -6.600   0.000  0.00  0.00    +0.079 C 
ATOM     20  C   UNL     1       9.288  -6.188   0.000  0.00  0.00    +0.009 C 
ATOM     21  C   UNL     1      10.003  -6.600   0.000  0.00  0.00    +0.000 C 
ATOM     22  C   UNL     1      10.003  -7.425   0.000  0.00  0.00    +0.000 C 
ATOM     23  C   UNL     1       9.288  -7.838   0.000  0.00  0.00    +0.000 C 
ATOM     24  C   UNL     1       8.574  -7.425   0.000  0.00  0.00    +0.009 C 
ENDBRANCH  17  19
ENDBRANCH  15  16
BRANCH  12  10
ATOM     10  C   UNL     1       4.287  -4.950   0.000  0.00  0.00    +0.195 C 
ATOM     11  O   UNL     1       4.287  -4.125   0.000  0.00  0.00    -0.216 OA
BRANCH  10   4
ATOM      3  N   UNL     1       2.858  -4.950   0.000  0.00  0.00    -0.274 N 
ATOM      4  C   UNL     1       3.572  -5.362   0.000  0.00  0.00    +0.139 C 
ATOM      5  C   UNL     1       3.572  -6.188   0.000  0.00  0.00    +0.165 C 
ATOM      6  O   UNL     1       2.858  -6.600   0.000  0.00  0.00    -0.343 OA
ATOM      7  C   UNL     1       2.143  -6.188   0.000  0.00  0.00    +0.227 C 
ATOM      8  C   UNL     1       2.143  -5.362   0.000  0.00  0.00    +0.256 C 
ATOM      9  O   UNL     1       1.429  -4.950   0.000  0.00  0.00    -0.272 OA
BRANCH   3   2
ATOM      1  C   UNL     1       2.143  -3.712   0.000  0.00  0.00    +0.023 C 
ATOM      2  C   UNL     1       2.858  -4.125   0.000  0.00  0.00    +0.094 C 
ENDBRANCH   3   2
ENDBRANCH  10   4
ENDBRANCH  12  10
TORSDOF 5
