MODEL 1
REMARK VINA RESULT:     -12.4      0.000      0.000
REMARK  Name = 
REMARK  7 active torsions:
REMARK  status: ('A' for Active; 'I' for Inactive)
REMARK    1  A    between atoms: O_2  and  C_3
REMARK    2  A    between atoms: C_6  and  C_9
REMARK    3  A    between atoms: C_18  and  C_20
REMARK    4  A    between atoms: C_28  and  C_29
REMARK    5  A    between atoms: C_29  and  C_30
REMARK    6  A    between atoms: N_32  and  C_33
REMARK    7  A    between atoms: C_33  and  C_34
REMARK                            x       y       z     vdW  Elec       q    Type
REMARK                         _______ _______ _______ _____ _____    ______ ____
ROOT
ATOM      9  C   UNL     1      -0.374   1.292  23.883  0.00  0.00    +0.271 C 
ATOM     10  O   UNL     1      -0.359   2.055  24.196  0.00  0.00    -0.268 OA
ATOM     11  N   UNL     1      -1.088   0.881  23.835  0.00  0.00    -0.151 NA
ATOM     12  C   UNL     1      -1.786   1.234  24.099  0.00  0.00    +0.185 A 
ATOM     13  N   UNL     1      -2.536   0.892  24.085  0.00  0.00    -0.227 NA
ATOM     14  C   UNL     1      -3.070   1.437  24.401  0.00  0.00    +0.063 A 
ATOM     15  C   UNL     1      -2.648   2.115  24.609  0.00  0.00    +0.023 A 
ATOM     16  C   UNL     1      -3.043   2.759  24.942  0.00  0.00    +0.034 C 
ATOM     17  C   UNL     1      -3.857   2.725  25.066  0.00  0.00    +0.010 C 
ATOM     18  C   UNL     1      -4.250   3.369  25.399  0.00  0.00    +0.059 C 
ATOM     19  C   UNL     1      -3.479   3.662  25.389  0.00  0.00    +0.005 C 
ATOM     22  C   UNL     1      -5.065   3.336  25.523  0.00  0.00    +0.154 C 
ATOM     23  O   UNL     1      -5.460   3.980  25.856  0.00  0.00    -0.223 OA
ATOM     24  C   UNL     1      -5.487   2.658  25.315  0.00  0.00    +0.033 C 
ATOM     25  C   UNL     1      -5.093   2.013  24.982  0.00  0.00    +0.003 C 
ATOM     26  C   UNL     1      -4.278   2.047  24.858  0.00  0.00    +0.006 C 
ATOM     27  C   UNL     1      -4.700   1.369  24.649  0.00  0.00    +0.000 C 
ATOM     28  C   UNL     1      -3.885   1.403  24.525  0.00  0.00    +0.050 C 
ATOM     39  S   UNL     1      -1.854   1.989  24.422  0.00  0.00    -0.054 S 
ENDROOT
BRANCH   9   6
ATOM      3  C   UNL     1       1.719   0.234  23.092  0.00  0.00    +0.139 A 
ATOM      4  C   UNL     1       1.743   0.970  23.463  0.00  0.00    +0.037 A 
ATOM      5  C   UNL     1       1.045   1.323  23.727  0.00  0.00    +0.008 A 
ATOM      6  C   UNL     1       0.324   0.939  23.620  0.00  0.00    +0.056 A 
ATOM      7  C   UNL     1       0.299   0.204  23.248  0.00  0.00    +0.008 A 
ATOM      8  C   UNL     1       0.996  -0.149  22.984  0.00  0.00    +0.037 A 
BRANCH   3   2
ATOM      1  C   UNL     1       2.943   0.310  22.360  0.00  0.00    +0.252 C 
ATOM      2  O   UNL     1       2.417  -0.118  22.828  0.00  0.00    -0.471 OA
ENDBRANCH   3   2
ENDBRANCH   9   6
BRANCH  18  20
ATOM     20  C   UNL     1      -4.377   4.115  25.728  0.00  0.00    +0.184 C 
ATOM     21  O   UNL     1      -3.742   4.545  26.032  0.00  0.00    -0.220 OA
ENDBRANCH  18  20
BRANCH  28  29
ATOM     29  C   UNL     1      -4.306   0.725  24.317  0.00  0.00    +0.093 C 
BRANCH  29  30
ATOM     30  C   UNL     1      -4.270   0.054  24.795  0.00  0.00    +0.242 C 
ATOM     31  O   UNL     1      -4.372   0.124  25.610  0.00  0.00    -0.273 OA
ATOM     32  N   UNL     1      -4.134  -0.686  24.457  0.00  0.00    -0.200 NA
BRANCH  32  33
ATOM     33  C   UNL     1      -4.098  -1.357  24.935  0.00  0.00    +0.148 C 
BRANCH  33  34
ATOM     34  C   UNL     1      -3.851  -2.077  24.617  0.00  0.00    +0.029 A 
ATOM     35  C   UNL     1      -4.148  -2.433  23.934  0.00  0.00    +0.004 A 
ATOM     36  C   UNL     1      -3.744  -3.144  23.822  0.00  0.00    +0.007 A 
ATOM     37  C   UNL     1      -3.198  -3.227  24.435  0.00  0.00    +0.035 A 
ATOM     38  S   UNL     1      -3.265  -2.568  24.926  0.00  0.00    -0.089 S 
ENDBRANCH  33  34
ENDBRANCH  32  33
ENDBRANCH  29  30
ENDBRANCH  28  29
TORSDOF 7
ENDMDL
MODEL 2
REMARK VINA RESULT:     -11.3      1.606      4.635
REMARK  Name = 
REMARK  7 active torsions:
REMARK  status: ('A' for Active; 'I' for Inactive)
REMARK    1  A    between atoms: O_2  and  C_3
REMARK    2  A    between atoms: C_6  and  C_9
REMARK    3  A    between atoms: C_18  and  C_20
REMARK    4  A    between atoms: C_28  and  C_29
REMARK    5  A    between atoms: C_29  and  C_30
REMARK    6  A    between atoms: N_32  and  C_33
REMARK    7  A    between atoms: C_33  and  C_34
REMARK                            x       y       z     vdW  Elec       q    Type
REMARK                         _______ _______ _______ _____ _____    ______ ____
ROOT
ATOM      9  C   UNL     1      -3.241  -0.178  24.664  0.00  0.00    +0.271 C 
ATOM     10  O   UNL     1      -3.706   0.326  25.121  0.00  0.00    -0.268 OA
ATOM     11  N   UNL     1      -2.544   0.102  24.322  0.00  0.00    -0.151 NA
ATOM     12  C   UNL     1      -2.314   0.886  24.437  0.00  0.00    +0.185 A 
ATOM     13  N   UNL     1      -1.636   1.241  24.131  0.00  0.00    -0.227 NA
ATOM     14  C   UNL     1      -1.624   2.027  24.383  0.00  0.00    +0.063 A 
ATOM     15  C   UNL     1      -2.295   2.157  24.844  0.00  0.00    +0.023 A 
ATOM     16  C   UNL     1      -2.431   2.901  25.175  0.00  0.00    +0.034 C 
ATOM     17  C   UNL     1      -1.897   3.514  25.043  0.00  0.00    +0.010 C 
ATOM     18  C   UNL     1      -2.033   4.257  25.373  0.00  0.00    +0.059 C 
ATOM     19  C   UNL     1      -2.695   3.853  25.653  0.00  0.00    +0.005 C 
ATOM     22  C   UNL     1      -1.498   4.872  25.242  0.00  0.00    +0.154 C 
ATOM     23  O   UNL     1      -1.634   5.616  25.573  0.00  0.00    -0.223 OA
ATOM     24  C   UNL     1      -0.827   4.743  24.781  0.00  0.00    +0.033 C 
ATOM     25  C   UNL     1      -0.690   3.999  24.450  0.00  0.00    +0.003 C 
ATOM     26  C   UNL     1      -1.225   3.385  24.582  0.00  0.00    +0.006 C 
ATOM     27  C   UNL     1      -0.554   3.256  24.120  0.00  0.00    +0.000 C 
ATOM     28  C   UNL     1      -1.089   2.642  24.251  0.00  0.00    +0.050 C 
ATOM     39  S   UNL     1      -2.722   1.451  24.878  0.00  0.00    -0.054 S 
ENDROOT
BRANCH   9   6
ATOM      3  C   UNL     1      -3.931  -2.530  24.319  0.00  0.00    +0.139 A 
ATOM      4  C   UNL     1      -3.383  -2.342  24.907  0.00  0.00    +0.037 A 
ATOM      5  C   UNL     1      -3.153  -1.558  25.022  0.00  0.00    +0.008 A 
ATOM      6  C   UNL     1      -3.471  -0.962  24.549  0.00  0.00    +0.056 A 
ATOM      7  C   UNL     1      -4.018  -1.149  23.962  0.00  0.00    +0.008 A 
ATOM      8  C   UNL     1      -4.248  -1.933  23.847  0.00  0.00    +0.037 A 
BRANCH   3   2
ATOM      1  C   UNL     1      -3.622  -3.862  23.909  0.00  0.00    +0.252 C 
ATOM      2  O   UNL     1      -4.161  -3.314  24.204  0.00  0.00    -0.471 OA
ENDBRANCH   3   2
ENDBRANCH   9   6
BRANCH  18  20
ATOM     20  C   UNL     1      -2.399   4.861  25.801  0.00  0.00    +0.184 C 
ATOM     21  O   UNL     1      -3.060   4.696  26.265  0.00  0.00    -0.220 OA
ENDBRANCH  18  20
BRANCH  28  29
ATOM     29  C   UNL     1      -0.418   2.512  23.790  0.00  0.00    +0.093 C 
BRANCH  29  30
ATOM     30  C   UNL     1       0.200   2.051  24.081  0.00  0.00    +0.242 C 
ATOM     31  O   UNL     1       0.373   2.055  24.887  0.00  0.00    -0.273 OA
ATOM     32  N   UNL     1       0.646   1.585  23.565  0.00  0.00    -0.200 NA
BRANCH  32  33
ATOM     33  C   UNL     1       1.264   1.124  23.857  0.00  0.00    +0.148 C 
BRANCH  33  34
ATOM     34  C   UNL     1       1.756   0.717  23.335  0.00  0.00    +0.029 A 
ATOM     35  C   UNL     1       2.541   0.905  23.161  0.00  0.00    +0.004 A 
ATOM     36  C   UNL     1       2.820   0.354  22.613  0.00  0.00    +0.007 A 
ATOM     37  C   UNL     1       2.208  -0.174  22.449  0.00  0.00    +0.035 A 
ATOM     38  S   UNL     1       1.551   0.050  22.895  0.00  0.00    -0.089 S 
ENDBRANCH  33  34
ENDBRANCH  32  33
ENDBRANCH  29  30
ENDBRANCH  28  29
TORSDOF 7
ENDMDL
MODEL 3
REMARK VINA RESULT:     -11.2      1.926      4.257
REMARK  Name = 
REMARK  7 active torsions:
REMARK  status: ('A' for Active; 'I' for Inactive)
REMARK    1  A    between atoms: O_2  and  C_3
REMARK    2  A    between atoms: C_6  and  C_9
REMARK    3  A    between atoms: C_18  and  C_20
REMARK    4  A    between atoms: C_28  and  C_29
REMARK    5  A    between atoms: C_29  and  C_30
REMARK    6  A    between atoms: N_32  and  C_33
REMARK    7  A    between atoms: C_33  and  C_34
REMARK                            x       y       z     vdW  Elec       q    Type
REMARK                         _______ _______ _______ _____ _____    ______ ____
ROOT
ATOM      9  C   UNL     1       1.090   0.015  23.315  0.00  0.00    +0.271 C 
ATOM     10  O   UNL     1       0.904  -0.779  23.440  0.00  0.00    -0.268 OA
ATOM     11  N   UNL     1       0.525   0.598  23.459  0.00  0.00    -0.151 NA
ATOM     12  C   UNL     1      -0.226   0.388  23.729  0.00  0.00    +0.185 A 
ATOM     13  N   UNL     1      -0.843   0.908  23.896  0.00  0.00    -0.227 NA
ATOM     14  C   UNL     1      -1.490   0.463  24.149  0.00  0.00    +0.063 A 
ATOM     15  C   UNL     1      -1.272  -0.333  24.138  0.00  0.00    +0.023 A 
ATOM     16  C   UNL     1      -1.813  -0.912  24.366  0.00  0.00    +0.034 C 
ATOM     17  C   UNL     1      -2.572  -0.697  24.604  0.00  0.00    +0.010 C 
ATOM     18  C   UNL     1      -3.113  -1.276  24.832  0.00  0.00    +0.059 C 
ATOM     19  C   UNL     1      -2.463  -1.750  24.650  0.00  0.00    +0.005 C 
ATOM     22  C   UNL     1      -3.873  -1.061  25.071  0.00  0.00    +0.154 C 
ATOM     23  O   UNL     1      -4.414  -1.640  25.299  0.00  0.00    -0.223 OA
ATOM     24  C   UNL     1      -4.091  -0.265  25.082  0.00  0.00    +0.033 C 
ATOM     25  C   UNL     1      -3.550   0.315  24.854  0.00  0.00    +0.003 C 
ATOM     26  C   UNL     1      -2.791   0.099  24.615  0.00  0.00    +0.006 C 
ATOM     27  C   UNL     1      -3.009   0.894  24.627  0.00  0.00    +0.000 C 
ATOM     28  C   UNL     1      -2.250   0.679  24.388  0.00  0.00    +0.050 C 
ATOM     39  S   UNL     1      -0.489  -0.379  23.878  0.00  0.00    -0.054 S 
ENDROOT
BRANCH   9   6
ATOM      3  C   UNL     1       3.343   0.645  22.506  0.00  0.00    +0.139 A 
ATOM      4  C   UNL     1       2.930   0.032  22.141  0.00  0.00    +0.037 A 
ATOM      5  C   UNL     1       2.179  -0.178  22.410  0.00  0.00    +0.008 A 
ATOM      6  C   UNL     1       1.841   0.225  23.045  0.00  0.00    +0.056 A 
ATOM      7  C   UNL     1       2.254   0.837  23.411  0.00  0.00    +0.008 A 
ATOM      8  C   UNL     1       3.005   1.048  23.141  0.00  0.00    +0.037 A 
BRANCH   3   2
ATOM      1  C   UNL     1       4.758   0.692  22.698  0.00  0.00    +0.252 C 
ATOM      2  O   UNL     1       4.094   0.855  22.237  0.00  0.00    -0.471 OA
ENDBRANCH   3   2
ENDBRANCH   9   6
BRANCH  18  20
ATOM     20  C   UNL     1      -3.429  -2.020  24.997  0.00  0.00    +0.184 C 
ATOM     21  O   UNL     1      -3.048  -2.700  24.726  0.00  0.00    -0.220 OA
ENDBRANCH  18  20
BRANCH  28  29
ATOM     29  C   UNL     1      -2.469   1.473  24.399  0.00  0.00    +0.093 C 
BRANCH  29  30
ATOM     30  C   UNL     1      -2.197   1.968  25.000  0.00  0.00    +0.242 C 
ATOM     31  O   UNL     1      -2.058   1.662  25.753  0.00  0.00    -0.273 OA
ATOM     32  N   UNL     1      -2.063   2.768  24.848  0.00  0.00    -0.200 NA
BRANCH  32  33
ATOM     33  C   UNL     1      -1.792   3.262  25.450  0.00  0.00    +0.148 C 
BRANCH  33  34
ATOM     34  C   UNL     1      -1.584   4.042  25.281  0.00  0.00    +0.029 A 
ATOM     35  C   UNL     1      -0.853   4.299  24.997  0.00  0.00    +0.004 A 
ATOM     36  C   UNL     1      -0.889   5.119  24.906  0.00  0.00    +0.007 A 
ATOM     37  C   UNL     1      -1.642   5.368  25.134  0.00  0.00    +0.035 A 
ATOM     38  S   UNL     1      -2.071   4.702  25.365  0.00  0.00    -0.089 S 
ENDBRANCH  33  34
ENDBRANCH  32  33
ENDBRANCH  29  30
ENDBRANCH  28  29
TORSDOF 7
ENDMDL
MODEL 4
REMARK VINA RESULT:     -10.8      1.979      5.255
REMARK  Name = 
REMARK  7 active torsions:
REMARK  status: ('A' for Active; 'I' for Inactive)
REMARK    1  A    between atoms: O_2  and  C_3
REMARK    2  A    between atoms: C_6  and  C_9
REMARK    3  A    between atoms: C_18  and  C_20
REMARK    4  A    between atoms: C_28  and  C_29
REMARK    5  A    between atoms: C_29  and  C_30
REMARK    6  A    between atoms: N_32  and  C_33
REMARK    7  A    between atoms: C_33  and  C_34
REMARK                            x       y       z     vdW  Elec       q    Type
REMARK                         _______ _______ _______ _____ _____    ______ ____
ROOT
ATOM      9  C   UNL     1      -2.066   2.627  25.079  0.00  0.00    +0.271 C 
ATOM     10  O   UNL     1      -2.836   2.340  25.159  0.00  0.00    -0.268 OA
ATOM     11  N   UNL     1      -1.446   2.105  24.931  0.00  0.00    -0.151 NA
ATOM     12  C   UNL     1      -1.594   1.296  24.862  0.00  0.00    +0.185 A 
ATOM     13  N   UNL     1      -1.031   0.712  24.715  0.00  0.00    -0.227 NA
ATOM     14  C   UNL     1      -1.421  -0.016  24.690  0.00  0.00    +0.063 A 
ATOM     15  C   UNL     1      -2.224   0.120  24.821  0.00  0.00    +0.023 A 
ATOM     16  C   UNL     1      -2.753  -0.512  24.827  0.00  0.00    +0.034 C 
ATOM     17  C   UNL     1      -2.481  -1.280  24.702  0.00  0.00    +0.010 C 
ATOM     18  C   UNL     1      -3.010  -1.912  24.708  0.00  0.00    +0.059 C 
ATOM     19  C   UNL     1      -3.530  -1.288  24.853  0.00  0.00    +0.005 C 
ATOM     22  C   UNL     1      -2.738  -2.681  24.582  0.00  0.00    +0.154 C 
ATOM     23  O   UNL     1      -3.267  -3.314  24.588  0.00  0.00    -0.223 OA
ATOM     24  C   UNL     1      -1.935  -2.817  24.450  0.00  0.00    +0.033 C 
ATOM     25  C   UNL     1      -1.404  -2.184  24.444  0.00  0.00    +0.003 C 
ATOM     26  C   UNL     1      -1.678  -1.416  24.570  0.00  0.00    +0.006 C 
ATOM     27  C   UNL     1      -0.875  -1.552  24.439  0.00  0.00    +0.000 C 
ATOM     28  C   UNL     1      -1.147  -0.785  24.564  0.00  0.00    +0.050 C 
ATOM     39  S   UNL     1      -2.331   0.932  24.928  0.00  0.00    -0.054 S 
ENDROOT
BRANCH   9   6
ATOM      3  C   UNL     1      -1.621   5.053  25.287  0.00  0.00    +0.139 A 
ATOM      4  C   UNL     1      -1.042   4.552  24.982  0.00  0.00    +0.037 A 
ATOM      5  C   UNL     1      -1.190   3.743  24.912  0.00  0.00    +0.008 A 
ATOM      6  C   UNL     1      -1.918   3.436  25.148  0.00  0.00    +0.056 A 
ATOM      7  C   UNL     1      -2.498   3.937  25.454  0.00  0.00    +0.008 A 
ATOM      8  C   UNL     1      -2.349   4.745  25.523  0.00  0.00    +0.037 A 
BRANCH   3   2
ATOM      1  C   UNL     1      -1.538   6.351  24.695  0.00  0.00    +0.252 C 
ATOM      2  O   UNL     1      -1.473   5.862  25.356  0.00  0.00    -0.471 OA
ENDBRANCH   3   2
ENDBRANCH   9   6
BRANCH  18  20
ATOM     20  C   UNL     1      -3.721  -2.328  24.764  0.00  0.00    +0.184 C 
ATOM     21  O   UNL     1      -4.425  -1.978  24.516  0.00  0.00    -0.220 OA
ENDBRANCH  18  20
BRANCH  28  29
ATOM     29  C   UNL     1      -0.345  -0.921  24.433  0.00  0.00    +0.093 C 
BRANCH  29  30
ATOM     30  C   UNL     1      -0.013  -0.754  23.696  0.00  0.00    +0.242 C 
ATOM     31  O   UNL     1      -0.429  -0.936  23.007  0.00  0.00    -0.273 OA
ATOM     32  N   UNL     1       0.733  -0.407  23.648  0.00  0.00    -0.200 NA
BRANCH  32  33
ATOM     33  C   UNL     1       1.064  -0.241  22.912  0.00  0.00    +0.148 C 
BRANCH  33  34
ATOM     34  C   UNL     1       1.816   0.096  22.864  0.00  0.00    +0.029 A 
ATOM     35  C   UNL     1       2.055   0.800  23.223  0.00  0.00    +0.004 A 
ATOM     36  C   UNL     1       2.848   0.928  23.029  0.00  0.00    +0.007 A 
ATOM     37  C   UNL     1       3.097   0.303  22.552  0.00  0.00    +0.035 A 
ATOM     38  S   UNL     1       2.460  -0.211  22.450  0.00  0.00    -0.089 S 
ENDBRANCH  33  34
ENDBRANCH  32  33
ENDBRANCH  29  30
ENDBRANCH  28  29
TORSDOF 7
ENDMDL
MODEL 5
REMARK VINA RESULT:     -10.8      2.174      4.219
REMARK  Name = 
REMARK  7 active torsions:
REMARK  status: ('A' for Active; 'I' for Inactive)
REMARK    1  A    between atoms: O_2  and  C_3
REMARK    2  A    between atoms: C_6  and  C_9
REMARK    3  A    between atoms: C_18  and  C_20
REMARK    4  A    between atoms: C_28  and  C_29
REMARK    5  A    between atoms: C_29  and  C_30
REMARK    6  A    between atoms: N_32  and  C_33
REMARK    7  A    between atoms: C_33  and  C_34
REMARK                            x       y       z     vdW  Elec       q    Type
REMARK                         _______ _______ _______ _____ _____    ______ ____
ROOT
ATOM      9  C   UNL     1      -2.214  -0.107  24.615  0.00  0.00    +0.271 C 
ATOM     10  O   UNL     1      -1.506   0.108  24.251  0.00  0.00    -0.268 OA
ATOM     11  N   UNL     1      -2.674   0.466  24.990  0.00  0.00    -0.151 NA
ATOM     12  C   UNL     1      -2.427   1.253  24.999  0.00  0.00    +0.185 A 
ATOM     13  N   UNL     1      -2.828   1.882  25.351  0.00  0.00    -0.227 NA
ATOM     14  C   UNL     1      -2.384   2.567  25.228  0.00  0.00    +0.063 A 
ATOM     15  C   UNL     1      -1.709   2.361  24.801  0.00  0.00    +0.023 A 
ATOM     16  C   UNL     1      -1.158   2.939  24.596  0.00  0.00    +0.034 C 
ATOM     17  C   UNL     1      -1.281   3.724  24.817  0.00  0.00    +0.010 C 
ATOM     18  C   UNL     1      -0.730   4.302  24.612  0.00  0.00    +0.059 C 
ATOM     19  C   UNL     1      -0.372   3.638  24.279  0.00  0.00    +0.005 C 
ATOM     22  C   UNL     1      -0.853   5.087  24.834  0.00  0.00    +0.154 C 
ATOM     23  O   UNL     1      -0.302   5.666  24.629  0.00  0.00    -0.223 OA
ATOM     24  C   UNL     1      -1.528   5.294  25.261  0.00  0.00    +0.033 C 
ATOM     25  C   UNL     1      -2.080   4.715  25.466  0.00  0.00    +0.003 C 
ATOM     26  C   UNL     1      -1.956   3.931  25.244  0.00  0.00    +0.006 C 
ATOM     27  C   UNL     1      -2.631   4.137  25.671  0.00  0.00    +0.000 C 
ATOM     28  C   UNL     1      -2.508   3.353  25.450  0.00  0.00    +0.050 C 
ATOM     39  S   UNL     1      -1.736   1.548  24.660  0.00  0.00    -0.054 S 
ENDROOT
BRANCH   9   6
ATOM      3  C   UNL     1      -2.955  -2.468  24.587  0.00  0.00    +0.139 A 
ATOM      4  C   UNL     1      -2.152  -2.288  24.640  0.00  0.00    +0.037 A 
ATOM      5  C   UNL     1      -1.905  -1.501  24.649  0.00  0.00    +0.008 A 
ATOM      6  C   UNL     1      -2.461  -0.894  24.606  0.00  0.00    +0.056 A 
ATOM      7  C   UNL     1      -3.264  -1.073  24.553  0.00  0.00    +0.008 A 
ATOM      8  C   UNL     1      -3.511  -1.860  24.543  0.00  0.00    +0.037 A 
BRANCH   3   2
ATOM      1  C   UNL     1      -3.888  -3.467  24.171  0.00  0.00    +0.252 C 
ATOM      2  O   UNL     1      -3.202  -3.255  24.577  0.00  0.00    -0.471 OA
ENDBRANCH   3   2
ENDBRANCH   9   6
BRANCH  18  20
ATOM     20  C   UNL     1      -0.054   4.650  24.291  0.00  0.00    +0.184 C 
ATOM     21  O   UNL     1       0.306   4.318  23.628  0.00  0.00    -0.220 OA
ENDBRANCH  18  20
BRANCH  28  29
ATOM     29  C   UNL     1      -3.182   3.560  25.876  0.00  0.00    +0.093 C 
BRANCH  29  30
ATOM     30  C   UNL     1      -3.916   3.591  25.500  0.00  0.00    +0.242 C 
ATOM     31  O   UNL     1      -4.010   4.049  24.821  0.00  0.00    -0.273 OA
ATOM     32  N   UNL     1      -4.554   3.164  25.802  0.00  0.00    -0.200 NA
BRANCH  32  33
ATOM     33  C   UNL     1      -5.286   3.196  25.426  0.00  0.00    +0.148 C 
BRANCH  33  34
ATOM     34  C   UNL     1      -5.803   2.555  25.474  0.00  0.00    +0.029 A 
ATOM     35  C   UNL     1      -6.052   2.083  24.844  0.00  0.00    +0.004 A 
ATOM     36  C   UNL     1      -6.565   1.509  25.142  0.00  0.00    +0.007 A 
ATOM     37  C   UNL     1      -6.633   1.627  25.956  0.00  0.00    +0.035 A 
ATOM     38  S   UNL     1      -6.162   2.273  26.161  0.00  0.00    -0.089 S 
ENDBRANCH  33  34
ENDBRANCH  32  33
ENDBRANCH  29  30
ENDBRANCH  28  29
TORSDOF 7
ENDMDL
MODEL 6
REMARK VINA RESULT:     -10.8      1.764      5.955
REMARK  Name = 
REMARK  7 active torsions:
REMARK  status: ('A' for Active; 'I' for Inactive)
REMARK    1  A    between atoms: O_2  and  C_3
REMARK    2  A    between atoms: C_6  and  C_9
REMARK    3  A    between atoms: C_18  and  C_20
REMARK    4  A    between atoms: C_28  and  C_29
REMARK    5  A    between atoms: C_29  and  C_30
REMARK    6  A    between atoms: N_32  and  C_33
REMARK    7  A    between atoms: C_33  and  C_34
REMARK                            x       y       z     vdW  Elec       q    Type
REMARK                         _______ _______ _______ _____ _____    ______ ____
ROOT
ATOM      9  C   UNL     1      -4.874   1.828  25.175  0.00  0.00    +0.271 C 
ATOM     10  O   UNL     1      -5.365   1.256  24.839  0.00  0.00    -0.268 OA
ATOM     11  N   UNL     1      -4.089   1.646  25.349  0.00  0.00    -0.151 NA
ATOM     12  C   UNL     1      -3.794   0.892  25.187  0.00  0.00    +0.185 A 
ATOM     13  N   UNL     1      -3.024   0.633  25.330  0.00  0.00    -0.227 NA
ATOM     14  C   UNL     1      -2.971  -0.154  25.085  0.00  0.00    +0.063 A 
ATOM     15  C   UNL     1      -3.709  -0.379  24.791  0.00  0.00    +0.023 A 
ATOM     16  C   UNL     1      -3.821  -1.145  24.504  0.00  0.00    +0.034 C 
ATOM     17  C   UNL     1      -3.198  -1.684  24.511  0.00  0.00    +0.010 C 
ATOM     18  C   UNL     1      -3.311  -2.449  24.224  0.00  0.00    +0.059 C 
ATOM     19  C   UNL     1      -4.065  -2.137  24.103  0.00  0.00    +0.005 C 
ATOM     22  C   UNL     1      -2.687  -2.989  24.231  0.00  0.00    +0.154 C 
ATOM     23  O   UNL     1      -2.800  -3.754  23.944  0.00  0.00    -0.223 OA
ATOM     24  C   UNL     1      -1.950  -2.764  24.525  0.00  0.00    +0.033 C 
ATOM     25  C   UNL     1      -1.837  -1.998  24.813  0.00  0.00    +0.003 C 
ATOM     26  C   UNL     1      -2.461  -1.459  24.805  0.00  0.00    +0.006 C 
ATOM     27  C   UNL     1      -1.724  -1.234  25.099  0.00  0.00    +0.000 C 
ATOM     28  C   UNL     1      -2.347  -0.694  25.093  0.00  0.00    +0.050 C 
ATOM     39  S   UNL     1      -4.217   0.268  24.854  0.00  0.00    -0.054 S 
ENDROOT
BRANCH   9   6
ATOM      3  C   UNL     1      -5.759   4.088  25.660  0.00  0.00    +0.139 A 
ATOM      4  C   UNL     1      -4.994   3.998  25.363  0.00  0.00    +0.037 A 
ATOM      5  C   UNL     1      -4.700   3.245  25.201  0.00  0.00    +0.008 A 
ATOM      6  C   UNL     1      -5.169   2.581  25.337  0.00  0.00    +0.056 A 
ATOM      7  C   UNL     1      -5.933   2.670  25.634  0.00  0.00    +0.008 A 
ATOM      8  C   UNL     1      -6.228   3.423  25.796  0.00  0.00    +0.037 A 
BRANCH   3   2
ATOM      1  C   UNL     1      -6.250   5.348  25.203  0.00  0.00    +0.252 C 
ATOM      2  O   UNL     1      -6.053   4.841  25.822  0.00  0.00    -0.471 OA
ENDBRANCH   3   2
ENDBRANCH   9   6
BRANCH  18  20
ATOM     20  C   UNL     1      -3.686  -3.106  23.895  0.00  0.00    +0.184 C 
ATOM     21  O   UNL     1      -4.480  -3.062  23.676  0.00  0.00    -0.220 OA
ENDBRANCH  18  20
BRANCH  28  29
ATOM     29  C   UNL     1      -1.611  -0.469  25.386  0.00  0.00    +0.093 C 
BRANCH  29  30
ATOM     30  C   UNL     1      -1.122   0.025  24.942  0.00  0.00    +0.242 C 
ATOM     31  O   UNL     1      -0.935  -0.174  24.163  0.00  0.00    -0.273 OA
ATOM     32  N   UNL     1      -0.820   0.716  25.275  0.00  0.00    -0.200 NA
BRANCH  32  33
ATOM     33  C   UNL     1      -0.332   1.209  24.830  0.00  0.00    +0.148 C 
BRANCH  33  34
ATOM     34  C   UNL     1      -0.230   1.997  25.051  0.00  0.00    +0.029 A 
ATOM     35  C   UNL     1       0.007   2.266  25.795  0.00  0.00    +0.004 A 
ATOM     36  C   UNL     1       0.036   3.090  25.771  0.00  0.00    +0.007 A 
ATOM     37  C   UNL     1      -0.182   3.331  25.013  0.00  0.00    +0.035 A 
ATOM     38  S   UNL     1      -0.346   2.655  24.568  0.00  0.00    -0.089 S 
ENDBRANCH  33  34
ENDBRANCH  32  33
ENDBRANCH  29  30
ENDBRANCH  28  29
TORSDOF 7
ENDMDL
MODEL 7
REMARK VINA RESULT:     -10.7      2.184      4.578
REMARK  Name = 
REMARK  7 active torsions:
REMARK  status: ('A' for Active; 'I' for Inactive)
REMARK    1  A    between atoms: O_2  and  C_3
REMARK    2  A    between atoms: C_6  and  C_9
REMARK    3  A    between atoms: C_18  and  C_20
REMARK    4  A    between atoms: C_28  and  C_29
REMARK    5  A    between atoms: C_29  and  C_30
REMARK    6  A    between atoms: N_32  and  C_33
REMARK    7  A    between atoms: C_33  and  C_34
REMARK                            x       y       z     vdW  Elec       q    Type
REMARK                         _______ _______ _______ _____ _____    ______ ____
ROOT
ATOM      9  C   UNL     1      -1.267   2.340  24.693  0.00  0.00    +0.271 C 
ATOM     10  O   UNL     1      -0.689   1.756  24.757  0.00  0.00    -0.268 OA
ATOM     11  N   UNL     1      -2.058   2.127  24.595  0.00  0.00    -0.151 NA
ATOM     12  C   UNL     1      -2.270   1.330  24.561  0.00  0.00    +0.185 A 
ATOM     13  N   UNL     1      -3.034   1.036  24.466  0.00  0.00    -0.227 NA
ATOM     14  C   UNL     1      -2.991   0.212  24.462  0.00  0.00    +0.063 A 
ATOM     15  C   UNL     1      -2.200  -0.002  24.556  0.00  0.00    +0.023 A 
ATOM     16  C   UNL     1      -1.988  -0.800  24.573  0.00  0.00    +0.034 C 
ATOM     17  C   UNL     1      -2.566  -1.382  24.497  0.00  0.00    +0.010 C 
ATOM     18  C   UNL     1      -2.354  -2.179  24.514  0.00  0.00    +0.059 C 
ATOM     19  C   UNL     1      -1.612  -1.831  24.608  0.00  0.00    +0.005 C 
ATOM     22  C   UNL     1      -2.932  -2.762  24.438  0.00  0.00    +0.154 C 
ATOM     23  O   UNL     1      -2.720  -3.560  24.456  0.00  0.00    -0.223 OA
ATOM     24  C   UNL     1      -3.724  -2.548  24.345  0.00  0.00    +0.033 C 
ATOM     25  C   UNL     1      -3.936  -1.751  24.327  0.00  0.00    +0.003 C 
ATOM     26  C   UNL     1      -3.357  -1.168  24.403  0.00  0.00    +0.006 C 
ATOM     27  C   UNL     1      -4.149  -0.954  24.310  0.00  0.00    +0.000 C 
ATOM     28  C   UNL     1      -3.570  -0.372  24.386  0.00  0.00    +0.050 C 
ATOM     39  S   UNL     1      -1.754   0.690  24.617  0.00  0.00    -0.054 S 
ENDROOT
BRANCH   9   6
ATOM      3  C   UNL     1      -0.633   4.731  24.795  0.00  0.00    +0.139 A 
ATOM      4  C   UNL     1      -0.219   4.214  24.303  0.00  0.00    +0.037 A 
ATOM      5  C   UNL     1      -0.431   3.417  24.269  0.00  0.00    +0.008 A 
ATOM      6  C   UNL     1      -1.056   3.137  24.727  0.00  0.00    +0.056 A 
ATOM      7  C   UNL     1      -1.470   3.653  25.219  0.00  0.00    +0.008 A 
ATOM      8  C   UNL     1      -1.259   4.449  25.253  0.00  0.00    +0.037 A 
BRANCH   3   2
ATOM      1  C   UNL     1      -1.006   6.109  24.829  0.00  0.00    +0.252 C 
ATOM      2  O   UNL     1      -0.422   5.527  24.829  0.00  0.00    -0.471 OA
ENDBRANCH   3   2
ENDBRANCH   9   6
BRANCH  18  20
ATOM     20  C   UNL     1      -1.884  -2.855  24.564  0.00  0.00    +0.184 C 
ATOM     21  O   UNL     1      -1.101  -2.797  24.817  0.00  0.00    -0.220 OA
ENDBRANCH  18  20
BRANCH  28  29
ATOM     29  C   UNL     1      -4.361  -0.158  24.293  0.00  0.00    +0.093 C 
BRANCH  29  30
ATOM     30  C   UNL     1      -4.772   0.189  24.918  0.00  0.00    +0.242 C 
ATOM     31  O   UNL     1      -4.776  -0.174  25.659  0.00  0.00    -0.273 OA
ATOM     32  N   UNL     1      -5.178   0.898  24.803  0.00  0.00    -0.200 NA
BRANCH  32  33
ATOM     33  C   UNL     1      -5.588   1.243  25.429  0.00  0.00    +0.148 C 
BRANCH  33  34
ATOM     34  C   UNL     1      -5.674   2.063  25.463  0.00  0.00    +0.029 A 
ATOM     35  C   UNL     1      -5.782   2.567  24.818  0.00  0.00    +0.004 A 
ATOM     36  C   UNL     1      -5.842   3.339  25.104  0.00  0.00    +0.007 A 
ATOM     37  C   UNL     1      -5.770   3.312  25.926  0.00  0.00    +0.035 A 
ATOM     38  S   UNL     1      -5.666   2.524  26.147  0.00  0.00    -0.089 S 
ENDBRANCH  33  34
ENDBRANCH  32  33
ENDBRANCH  29  30
ENDBRANCH  28  29
TORSDOF 7
ENDMDL
MODEL 8
REMARK VINA RESULT:      -8.8      1.640      4.141
REMARK  Name = 
REMARK  7 active torsions:
REMARK  status: ('A' for Active; 'I' for Inactive)
REMARK    1  A    between atoms: O_2  and  C_3
REMARK    2  A    between atoms: C_6  and  C_9
REMARK    3  A    between atoms: C_18  and  C_20
REMARK    4  A    between atoms: C_28  and  C_29
REMARK    5  A    between atoms: C_29  and  C_30
REMARK    6  A    between atoms: N_32  and  C_33
REMARK    7  A    between atoms: C_33  and  C_34
REMARK                            x       y       z     vdW  Elec       q    Type
REMARK                         _______ _______ _______ _____ _____    ______ ____
ROOT
ATOM      9  C   UNL     1      -4.121  -0.732  24.638  0.00  0.00    +0.271 C 
ATOM     10  O   UNL     1      -4.849  -0.551  24.980  0.00  0.00    -0.268 OA
ATOM     11  N   UNL     1      -3.599  -0.126  24.435  0.00  0.00    -0.151 NA
ATOM     12  C   UNL     1      -3.806   0.661  24.575  0.00  0.00    +0.185 A 
ATOM     13  N   UNL     1      -3.342   1.321  24.402  0.00  0.00    -0.227 NA
ATOM     14  C   UNL     1      -3.762   1.993  24.632  0.00  0.00    +0.063 A 
ATOM     15  C   UNL     1      -4.484   1.748  24.947  0.00  0.00    +0.023 A 
ATOM     16  C   UNL     1      -5.023   2.307  25.225  0.00  0.00    +0.034 C 
ATOM     17  C   UNL     1      -4.841   3.110  25.188  0.00  0.00    +0.010 C 
ATOM     18  C   UNL     1      -5.381   3.668  25.466  0.00  0.00    +0.059 C 
ATOM     19  C   UNL     1      -5.801   2.975  25.617  0.00  0.00    +0.005 C 
ATOM     22  C   UNL     1      -5.199   4.472  25.430  0.00  0.00    +0.154 C 
ATOM     23  O   UNL     1      -5.738   5.031  25.708  0.00  0.00    -0.223 OA
ATOM     24  C   UNL     1      -4.477   4.718  25.116  0.00  0.00    +0.033 C 
ATOM     25  C   UNL     1      -3.936   4.159  24.837  0.00  0.00    +0.003 C 
ATOM     26  C   UNL     1      -4.119   3.355  24.874  0.00  0.00    +0.006 C 
ATOM     27  C   UNL     1      -3.397   3.601  24.559  0.00  0.00    +0.000 C 
ATOM     28  C   UNL     1      -3.579   2.798  24.596  0.00  0.00    +0.050 C 
ATOM     39  S   UNL     1      -4.511   0.924  24.911  0.00  0.00    -0.054 S 
ENDROOT
BRANCH   9   6
ATOM      3  C   UNL     1      -3.501  -3.091  24.219  0.00  0.00    +0.139 A 
ATOM      4  C   UNL     1      -3.208  -2.699  24.883  0.00  0.00    +0.037 A 
ATOM      5  C   UNL     1      -3.415  -1.912  25.022  0.00  0.00    +0.008 A 
ATOM      6  C   UNL     1      -3.914  -1.518  24.498  0.00  0.00    +0.056 A 
ATOM      7  C   UNL     1      -4.208  -1.910  23.835  0.00  0.00    +0.008 A 
ATOM      8  C   UNL     1      -4.001  -2.696  23.695  0.00  0.00    +0.037 A 
BRANCH   3   2
ATOM      1  C   UNL     1      -2.726  -4.060  23.512  0.00  0.00    +0.252 C 
ATOM      2  O   UNL     1      -3.295  -3.878  24.079  0.00  0.00    -0.471 OA
ENDBRANCH   3   2
ENDBRANCH   9   6
BRANCH  18  20
ATOM     20  C   UNL     1      -6.067   3.986  25.797  0.00  0.00    +0.184 C 
ATOM     21  O   UNL     1      -6.614   3.493  26.168  0.00  0.00    -0.220 OA
ENDBRANCH  18  20
BRANCH  28  29
ATOM     29  C   UNL     1      -2.858   3.043  24.282  0.00  0.00    +0.093 C 
BRANCH  29  30
ATOM     30  C   UNL     1      -2.164   2.946  24.717  0.00  0.00    +0.242 C 
ATOM     31  O   UNL     1      -2.136   3.185  25.506  0.00  0.00    -0.273 OA
ATOM     32  N   UNL     1      -1.498   2.611  24.364  0.00  0.00    -0.200 NA
BRANCH  32  33
ATOM     33  C   UNL     1      -0.804   2.515  24.799  0.00  0.00    +0.148 C 
BRANCH  33  34
ATOM     34  C   UNL     1      -0.198   2.037  24.509  0.00  0.00    +0.029 A 
ATOM     35  C   UNL     1      -0.150   1.216  24.584  0.00  0.00    +0.004 A 
ATOM     36  C   UNL     1       0.545   0.967  24.214  0.00  0.00    +0.007 A 
ATOM     37  C   UNL     1       0.926   1.633  23.911  0.00  0.00    +0.035 A 
ATOM     38  S   UNL     1       0.466   2.294  24.094  0.00  0.00    -0.089 S 
ENDBRANCH  33  34
ENDBRANCH  32  33
ENDBRANCH  29  30
ENDBRANCH  28  29
TORSDOF 7
ENDMDL
