MODEL 1
REMARK VINA RESULT:      -9.0      0.000      0.000
REMARK  Name = 
REMARK  6 active torsions:
REMARK  status: ('A' for Active; 'I' for Inactive)
REMARK    1  A    between atoms: O_2  and  C_3
REMARK    2  A    between atoms: C_3  and  C_4
REMARK    3  A    between atoms: C_4  and  O_5
REMARK    4  A    between atoms: O_5  and  C_6
REMARK    5  A    between atoms: C_7  and  C_12
REMARK    6  A    between atoms: C_15  and  C_17
REMARK                            x       y       z     vdW  Elec       q    Type
REMARK                         _______ _______ _______ _____ _____    ______ ____
ROOT
ATOM      6  C   UNL     1      -4.170   2.492  25.160  0.00  0.00    +0.228 A 
ATOM      7  C   UNL     1      -4.629   1.857  24.899  0.00  0.00    +0.092 A 
ATOM      8  C   UNL     1      -5.446   1.867  25.010  0.00  0.00    +0.009 A 
ATOM      9  C   UNL     1      -5.805   2.509  25.381  0.00  0.00    +0.021 A 
ATOM     10  C   UNL     1      -5.347   3.144  25.642  0.00  0.00    +0.102 A 
ATOM     11  N   UNL     1      -4.528   3.135  25.531  0.00  0.00    -0.210 NA
ENDROOT
BRANCH   7  12
ATOM     12  C   UNL     1      -4.270   1.213  24.528  0.00  0.00    +0.208 A 
ATOM     13  N   UNL     1      -3.883   1.228  23.799  0.00  0.00    -0.056 NA
ATOM     14  O   UNL     1      -3.609   0.467  23.641  0.00  0.00    -0.336 OA
ATOM     15  C   UNL     1      -3.825  -0.018  24.273  0.00  0.00    +0.251 A 
ATOM     16  N   UNL     1      -4.233   0.443  24.820  0.00  0.00    -0.189 NA
BRANCH  15  17
ATOM     17  C   UNL     1      -3.662  -0.824  24.343  0.00  0.00    +0.138 C 
ATOM     18  C   UNL     1      -4.174  -1.442  24.151  0.00  0.00    +0.027 C 
ATOM     19  C   UNL     1      -3.785  -2.153  24.308  0.00  0.00    +0.019 C 
ATOM     20  C   UNL     1      -3.034  -1.975  24.597  0.00  0.00    +0.073 C 
ATOM     21  N   UNL     1      -2.957  -1.154  24.619  0.00  0.00    -0.265 NA
ATOM     22  C   UNL     1      -2.293  -0.735  24.872  0.00  0.00    +0.090 C 
ENDBRANCH  15  17
ENDBRANCH   7  12
BRANCH   6   5
ATOM      5  O   UNL     1      -3.353   2.482  25.050  0.00  0.00    -0.457 OA
BRANCH   5   4
ATOM      4  C   UNL     1      -2.892   3.110  25.324  0.00  0.00    +0.239 C 
BRANCH   4   3
ATOM      3  C   UNL     1      -2.079   3.117  25.184  0.00  0.00    +0.189 C 
BRANCH   3   2
ATOM      1  C   UNL     1      -0.857   3.858  25.193  0.00  0.00    +0.174 C 
ATOM      2  O   UNL     1      -1.613   3.721  25.496  0.00  0.00    -0.347 OA
ENDBRANCH   3   2
ENDBRANCH   4   3
ENDBRANCH   5   4
ENDBRANCH   6   5
TORSDOF 6
ENDMDL
MODEL 2
REMARK VINA RESULT:      -8.9      1.153      3.611
REMARK  Name = 
REMARK  6 active torsions:
REMARK  status: ('A' for Active; 'I' for Inactive)
REMARK    1  A    between atoms: O_2  and  C_3
REMARK    2  A    between atoms: C_3  and  C_4
REMARK    3  A    between atoms: C_4  and  O_5
REMARK    4  A    between atoms: O_5  and  C_6
REMARK    5  A    between atoms: C_7  and  C_12
REMARK    6  A    between atoms: C_15  and  C_17
REMARK                            x       y       z     vdW  Elec       q    Type
REMARK                         _______ _______ _______ _____ _____    ______ ____
ROOT
ATOM      6  C   UNL     1      -2.671  -0.709  24.719  0.00  0.00    +0.228 A 
ATOM      7  C   UNL     1      -3.470  -0.617  24.531  0.00  0.00    +0.092 A 
ATOM      8  C   UNL     1      -3.948  -1.281  24.430  0.00  0.00    +0.009 A 
ATOM      9  C   UNL     1      -3.629  -2.036  24.516  0.00  0.00    +0.021 A 
ATOM     10  C   UNL     1      -2.831  -2.128  24.704  0.00  0.00    +0.102 A 
ATOM     11  N   UNL     1      -2.352  -1.463  24.805  0.00  0.00    -0.210 NA
ENDROOT
BRANCH   7  12
ATOM     12  C   UNL     1      -3.789   0.139  24.444  0.00  0.00    +0.208 A 
ATOM     13  N   UNL     1      -3.747   0.609  23.767  0.00  0.00    -0.056 NA
ATOM     14  O   UNL     1      -4.138   1.317  23.924  0.00  0.00    -0.336 OA
ATOM     15  C   UNL     1      -4.422   1.286  24.698  0.00  0.00    +0.251 A 
ATOM     16  N   UNL     1      -4.206   0.558  25.019  0.00  0.00    -0.189 NA
BRANCH  15  17
ATOM     17  C   UNL     1      -4.847   1.880  25.083  0.00  0.00    +0.138 C 
ATOM     18  C   UNL     1      -5.637   1.836  25.319  0.00  0.00    +0.027 C 
ATOM     19  C   UNL     1      -5.834   2.550  25.681  0.00  0.00    +0.019 C 
ATOM     20  C   UNL     1      -5.167   3.036  25.669  0.00  0.00    +0.073 C 
ATOM     21  N   UNL     1      -4.557   2.621  25.299  0.00  0.00    -0.265 NA
ATOM     22  C   UNL     1      -3.791   2.899  25.169  0.00  0.00    +0.090 C 
ENDBRANCH  15  17
ENDBRANCH   7  12
BRANCH   6   5
ATOM      5  O   UNL     1      -2.193  -0.044  24.820  0.00  0.00    -0.457 OA
BRANCH   5   4
ATOM      4  C   UNL     1      -1.379  -0.135  24.928  0.00  0.00    +0.239 C 
BRANCH   4   3
ATOM      3  C   UNL     1      -0.926   0.501  25.193  0.00  0.00    +0.189 C 
BRANCH   3   2
ATOM      1  C   UNL     1       0.026   1.525  24.897  0.00  0.00    +0.174 C 
ATOM      2  O   UNL     1      -0.310   0.790  24.727  0.00  0.00    -0.347 OA
ENDBRANCH   3   2
ENDBRANCH   4   3
ENDBRANCH   5   4
ENDBRANCH   6   5
TORSDOF 6
ENDMDL
MODEL 3
REMARK VINA RESULT:      -8.7      1.426      3.597
REMARK  Name = 
REMARK  6 active torsions:
REMARK  status: ('A' for Active; 'I' for Inactive)
REMARK    1  A    between atoms: O_2  and  C_3
REMARK    2  A    between atoms: C_3  and  C_4
REMARK    3  A    between atoms: C_4  and  O_5
REMARK    4  A    between atoms: O_5  and  C_6
REMARK    5  A    between atoms: C_7  and  C_12
REMARK    6  A    between atoms: C_15  and  C_17
REMARK                            x       y       z     vdW  Elec       q    Type
REMARK                         _______ _______ _______ _____ _____    ______ ____
ROOT
ATOM      6  C   UNL     1      -4.521   1.497  24.831  0.00  0.00    +0.228 A 
ATOM      7  C   UNL     1      -4.162   2.239  24.879  0.00  0.00    +0.092 A 
ATOM      8  C   UNL     1      -4.606   2.898  25.100  0.00  0.00    +0.009 A 
ATOM      9  C   UNL     1      -5.408   2.816  25.271  0.00  0.00    +0.021 A 
ATOM     10  C   UNL     1      -5.767   2.075  25.223  0.00  0.00    +0.102 A 
ATOM     11  N   UNL     1      -5.323   1.415  25.003  0.00  0.00    -0.210 NA
ENDROOT
BRANCH   7  12
ATOM     12  C   UNL     1      -3.359   2.320  24.707  0.00  0.00    +0.208 A 
ATOM     13  N   UNL     1      -3.032   2.419  23.956  0.00  0.00    -0.056 NA
ATOM     14  O   UNL     1      -2.214   2.478  24.041  0.00  0.00    -0.336 OA
ATOM     15  C   UNL     1      -2.035   2.415  24.844  0.00  0.00    +0.251 A 
ATOM     16  N   UNL     1      -2.743   2.318  25.255  0.00  0.00    -0.189 NA
BRANCH  15  17
ATOM     17  C   UNL     1      -1.280   2.444  25.176  0.00  0.00    +0.138 C 
ATOM     18  C   UNL     1      -0.994   3.033  25.679  0.00  0.00    +0.027 C 
ATOM     19  C   UNL     1      -0.216   2.841  25.877  0.00  0.00    +0.019 C 
ATOM     20  C   UNL     1      -0.022   2.136  25.499  0.00  0.00    +0.073 C 
ATOM     21  N   UNL     1      -0.680   1.889  25.065  0.00  0.00    -0.265 NA
ATOM     22  C   UNL     1      -0.729   1.208  24.602  0.00  0.00    +0.090 C 
ENDBRANCH  15  17
ENDBRANCH   7  12
BRANCH   6   5
ATOM      5  O   UNL     1      -4.077   0.838  24.611  0.00  0.00    -0.457 OA
BRANCH   5   4
ATOM      4  C   UNL     1      -4.436   0.096  24.562  0.00  0.00    +0.239 C 
BRANCH   4   3
ATOM      3  C   UNL     1      -3.989  -0.565  24.353  0.00  0.00    +0.189 C 
BRANCH   3   2
ATOM      1  C   UNL     1      -3.960  -1.968  24.083  0.00  0.00    +0.174 C 
ATOM      2  O   UNL     1      -4.366  -1.249  24.087  0.00  0.00    -0.347 OA
ENDBRANCH   3   2
ENDBRANCH   4   3
ENDBRANCH   5   4
ENDBRANCH   6   5
TORSDOF 6
ENDMDL
MODEL 4
REMARK VINA RESULT:      -8.5      1.767      3.551
REMARK  Name = 
REMARK  6 active torsions:
REMARK  status: ('A' for Active; 'I' for Inactive)
REMARK    1  A    between atoms: O_2  and  C_3
REMARK    2  A    between atoms: C_3  and  C_4
REMARK    3  A    between atoms: C_4  and  O_5
REMARK    4  A    between atoms: O_5  and  C_6
REMARK    5  A    between atoms: C_7  and  C_12
REMARK    6  A    between atoms: C_15  and  C_17
REMARK                            x       y       z     vdW  Elec       q    Type
REMARK                         _______ _______ _______ _____ _____    ______ ____
ROOT
ATOM      6  C   UNL     1      -1.520   3.048  24.848  0.00  0.00    +0.228 A 
ATOM      7  C   UNL     1      -2.185   3.536  24.844  0.00  0.00    +0.092 A 
ATOM      8  C   UNL     1      -2.108   4.339  25.016  0.00  0.00    +0.009 A 
ATOM      9  C   UNL     1      -1.367   4.654  25.191  0.00  0.00    +0.021 A 
ATOM     10  C   UNL     1      -0.702   4.166  25.196  0.00  0.00    +0.102 A 
ATOM     11  N   UNL     1      -0.779   3.362  25.024  0.00  0.00    -0.210 NA
ENDROOT
BRANCH   7  12
ATOM     12  C   UNL     1      -2.927   3.221  24.668  0.00  0.00    +0.208 A 
ATOM     13  N   UNL     1      -3.225   3.076  23.912  0.00  0.00    -0.056 NA
ATOM     14  O   UNL     1      -3.983   2.761  23.994  0.00  0.00    -0.336 OA
ATOM     15  C   UNL     1      -4.154   2.713  24.800  0.00  0.00    +0.251 A 
ATOM     16  N   UNL     1      -3.501   2.997  25.216  0.00  0.00    -0.189 NA
BRANCH  15  17
ATOM     17  C   UNL     1      -4.855   2.429  25.131  0.00  0.00    +0.138 C 
ATOM     18  C   UNL     1      -5.439   2.885  25.494  0.00  0.00    +0.027 C 
ATOM     19  C   UNL     1      -6.039   2.376  25.744  0.00  0.00    +0.019 C 
ATOM     20  C   UNL     1      -5.826   1.608  25.536  0.00  0.00    +0.073 C 
ATOM     21  N   UNL     1      -5.094   1.640  25.157  0.00  0.00    -0.265 NA
ATOM     22  C   UNL     1      -4.674   0.996  24.857  0.00  0.00    +0.090 C 
ENDBRANCH  15  17
ENDBRANCH   7  12
BRANCH   6   5
ATOM      5  O   UNL     1      -1.597   2.245  24.677  0.00  0.00    -0.457 OA
BRANCH   5   4
ATOM      4  C   UNL     1      -0.947   1.742  24.755  0.00  0.00    +0.239 C 
BRANCH   4   3
ATOM      3  C   UNL     1      -0.986   0.970  24.466  0.00  0.00    +0.189 C 
BRANCH   3   2
ATOM      1  C   UNL     1      -0.534  -0.385  24.502  0.00  0.00    +0.174 C 
ATOM      2  O   UNL     1      -0.557   0.371  24.835  0.00  0.00    -0.347 OA
ENDBRANCH   3   2
ENDBRANCH   4   3
ENDBRANCH   5   4
ENDBRANCH   6   5
TORSDOF 6
ENDMDL
MODEL 5
REMARK VINA RESULT:      -8.4      1.952      3.159
REMARK  Name = 
REMARK  6 active torsions:
REMARK  status: ('A' for Active; 'I' for Inactive)
REMARK    1  A    between atoms: O_2  and  C_3
REMARK    2  A    between atoms: C_3  and  C_4
REMARK    3  A    between atoms: C_4  and  O_5
REMARK    4  A    between atoms: O_5  and  C_6
REMARK    5  A    between atoms: C_7  and  C_12
REMARK    6  A    between atoms: C_15  and  C_17
REMARK                            x       y       z     vdW  Elec       q    Type
REMARK                         _______ _______ _______ _____ _____    ______ ____
ROOT
ATOM      6  C   UNL     1      -2.274   3.566  25.072  0.00  0.00    +0.228 A 
ATOM      7  C   UNL     1      -1.567   3.223  24.817  0.00  0.00    +0.092 A 
ATOM      8  C   UNL     1      -0.876   3.673  24.795  0.00  0.00    +0.009 A 
ATOM      9  C   UNL     1      -0.891   4.464  25.028  0.00  0.00    +0.021 A 
ATOM     10  C   UNL     1      -1.597   4.806  25.283  0.00  0.00    +0.102 A 
ATOM     11  N   UNL     1      -2.289   4.356  25.305  0.00  0.00    -0.210 NA
ENDROOT
BRANCH   7  12
ATOM     12  C   UNL     1      -1.552   2.432  24.584  0.00  0.00    +0.208 A 
ATOM     13  N   UNL     1      -1.777   2.139  23.846  0.00  0.00    -0.056 NA
ATOM     14  O   UNL     1      -1.673   1.321  23.854  0.00  0.00    -0.336 OA
ATOM     15  C   UNL     1      -1.385   1.108  24.598  0.00  0.00    +0.251 A 
ATOM     16  N   UNL     1      -1.311   1.794  25.048  0.00  0.00    -0.189 NA
BRANCH  15  17
ATOM     17  C   UNL     1      -1.204   0.342  24.846  0.00  0.00    +0.138 C 
ATOM     18  C   UNL     1      -1.592  -0.080  25.440  0.00  0.00    +0.027 C 
ATOM     19  C   UNL     1      -1.230  -0.818  25.504  0.00  0.00    +0.019 C 
ATOM     20  C   UNL     1      -0.619  -0.853  24.951  0.00  0.00    +0.073 C 
ATOM     21  N   UNL     1      -0.603  -0.136  24.544  0.00  0.00    -0.265 NA
ATOM     22  C   UNL     1      -0.078   0.068  23.941  0.00  0.00    +0.090 C 
ENDBRANCH  15  17
ENDBRANCH   7  12
BRANCH   6   5
ATOM      5  O   UNL     1      -2.965   3.115  25.094  0.00  0.00    -0.457 OA
BRANCH   5   4
ATOM      4  C   UNL     1      -3.668   3.452  25.368  0.00  0.00    +0.239 C 
BRANCH   4   3
ATOM      3  C   UNL     1      -4.366   3.012  25.359  0.00  0.00    +0.189 C 
BRANCH   3   2
ATOM      1  C   UNL     1      -5.720   2.837  25.779  0.00  0.00    +0.174 C 
ATOM      2  O   UNL     1      -5.038   3.300  25.740  0.00  0.00    -0.347 OA
ENDBRANCH   3   2
ENDBRANCH   4   3
ENDBRANCH   5   4
ENDBRANCH   6   5
TORSDOF 6
ENDMDL
MODEL 6
REMARK VINA RESULT:      -8.3      1.773      3.911
REMARK  Name = 
REMARK  6 active torsions:
REMARK  status: ('A' for Active; 'I' for Inactive)
REMARK    1  A    between atoms: O_2  and  C_3
REMARK    2  A    between atoms: C_3  and  C_4
REMARK    3  A    between atoms: C_4  and  O_5
REMARK    4  A    between atoms: O_5  and  C_6
REMARK    5  A    between atoms: C_7  and  C_12
REMARK    6  A    between atoms: C_15  and  C_17
REMARK                            x       y       z     vdW  Elec       q    Type
REMARK                         _______ _______ _______ _____ _____    ______ ____
ROOT
ATOM      6  C   UNL     1      -3.703  -0.622  24.610  0.00  0.00    +0.228 A 
ATOM      7  C   UNL     1      -2.956  -0.969  24.666  0.00  0.00    +0.092 A 
ATOM      8  C   UNL     1      -2.853  -1.761  24.457  0.00  0.00    +0.009 A 
ATOM      9  C   UNL     1      -3.495  -2.204  24.192  0.00  0.00    +0.021 A 
ATOM     10  C   UNL     1      -4.242  -1.858  24.136  0.00  0.00    +0.102 A 
ATOM     11  N   UNL     1      -4.345  -1.066  24.345  0.00  0.00    -0.210 NA
ENDROOT
BRANCH   7  12
ATOM     12  C   UNL     1      -2.314  -0.525  24.931  0.00  0.00    +0.208 A 
ATOM     13  N   UNL     1      -2.031  -0.496  25.706  0.00  0.00    -0.056 NA
ATOM     14  O   UNL     1      -1.384   0.015  25.722  0.00  0.00    -0.336 OA
ATOM     15  C   UNL     1      -1.267   0.302  24.957  0.00  0.00    +0.251 A 
ATOM     16  N   UNL     1      -1.841  -0.032  24.469  0.00  0.00    -0.189 NA
BRANCH  15  17
ATOM     17  C   UNL     1      -0.678   0.830  24.722  0.00  0.00    +0.138 C 
ATOM     18  C   UNL     1      -0.114   0.699  24.134  0.00  0.00    +0.027 C 
ATOM     19  C   UNL     1       0.362   1.370  24.084  0.00  0.00    +0.019 C 
ATOM     20  C   UNL     1       0.094   1.916  24.640  0.00  0.00    +0.073 C 
ATOM     21  N   UNL     1      -0.549   1.582  25.035  0.00  0.00    -0.265 NA
ATOM     22  C   UNL     1      -0.986   1.939  25.638  0.00  0.00    +0.090 C 
ENDBRANCH  15  17
ENDBRANCH   7  12
BRANCH   6   5
ATOM      5  O   UNL     1      -3.806   0.169  24.818  0.00  0.00    -0.457 OA
BRANCH   5   4
ATOM      4  C   UNL     1      -4.560   0.507  24.797  0.00  0.00    +0.239 C 
BRANCH   4   3
ATOM      3  C   UNL     1      -4.660   1.304  24.984  0.00  0.00    +0.189 C 
BRANCH   3   2
ATOM      1  C   UNL     1      -5.535   2.380  25.326  0.00  0.00    +0.174 C 
ATOM      2  O   UNL     1      -5.417   1.631  25.001  0.00  0.00    -0.347 OA
ENDBRANCH   3   2
ENDBRANCH   4   3
ENDBRANCH   5   4
ENDBRANCH   6   5
TORSDOF 6
ENDMDL
