MODEL 1
REMARK VINA RESULT:      -9.8      0.000      0.000
REMARK  Name = 
REMARK  8 active torsions:
REMARK  status: ('A' for Active; 'I' for Inactive)
REMARK    1  A    between atoms: O_2  and  C_3
REMARK    2  A    between atoms: C_3  and  C_4
REMARK    3  A    between atoms: C_4  and  N_5
REMARK    4  A    between atoms: N_5  and  C_6
REMARK    5  A    between atoms: C_9  and  C_12
REMARK    6  A    between atoms: C_15  and  C_17
REMARK    7  A    between atoms: N_21  and  C_22
REMARK    8  A    between atoms: C_22  and  C_23
REMARK                            x       y       z     vdW  Elec       q    Type
REMARK                         _______ _______ _______ _____ _____    ______ ____
ROOT
ATOM     12  C   UNL     1      -0.993  -0.048  24.436  0.00  0.00    +0.205 A 
ATOM     13  N   UNL     1      -1.065   0.066  25.250  0.00  0.00    -0.056 NA
ATOM     14  O   UNL     1      -1.855  -0.055  25.456  0.00  0.00    -0.336 OA
ATOM     15  C   UNL     1      -2.271  -0.244  24.769  0.00  0.00    +0.251 A 
ATOM     16  N   UNL     1      -1.738  -0.240  24.139  0.00  0.00    -0.190 NA
ENDROOT
BRANCH  12   9
ATOM      6  C   UNL     1       1.092   0.152  23.118  0.00  0.00    +0.148 A 
ATOM      7  C   UNL     1       0.683   0.831  23.349  0.00  0.00    +0.036 A 
ATOM      8  C   UNL     1      -0.012   0.764  23.788  0.00  0.00    +0.008 A 
ATOM      9  C   UNL     1      -0.298   0.019  23.997  0.00  0.00    +0.058 A 
ATOM     10  C   UNL     1       0.110  -0.659  23.766  0.00  0.00    +0.103 A 
ATOM     11  N   UNL     1       0.805  -0.593  23.327  0.00  0.00    -0.228 NA
BRANCH   6   5
ATOM      5  N   UNL     1       1.787   0.219  22.679  0.00  0.00    -0.218 NA
BRANCH   5   4
ATOM      4  C   UNL     1       2.479   0.486  23.040  0.00  0.00    +0.146 C 
BRANCH   4   3
ATOM      3  C   UNL     1       3.197   0.446  22.636  0.00  0.00    +0.166 C 
BRANCH   3   2
ATOM      1  C   UNL     1       4.583   0.548  22.971  0.00  0.00    +0.174 C 
ATOM      2  O   UNL     1       3.840   0.897  22.891  0.00  0.00    -0.349 OA
ENDBRANCH   3   2
ENDBRANCH   4   3
ENDBRANCH   5   4
ENDBRANCH   6   5
ENDBRANCH  12   9
BRANCH  15  17
ATOM     17  C   UNL     1      -3.078  -0.409  24.720  0.00  0.00    +0.138 C 
ATOM     18  C   UNL     1      -3.421  -1.160  24.730  0.00  0.00    +0.027 C 
ATOM     19  C   UNL     1      -4.239  -1.067  24.669  0.00  0.00    +0.019 C 
ATOM     20  C   UNL     1      -4.401  -0.260  24.621  0.00  0.00    +0.073 C 
ATOM     21  N   UNL     1      -3.683   0.147  24.653  0.00  0.00    -0.263 NA
BRANCH  21  22
ATOM     22  C   UNL     1      -3.589   0.965  24.622  0.00  0.00    +0.099 C 
BRANCH  22  23
ATOM     23  C   UNL     1      -4.231   1.461  24.771  0.00  0.00    -0.010 A 
ATOM     24  C   UNL     1      -4.815   1.231  25.308  0.00  0.00    -0.003 A 
ATOM     25  C   UNL     1      -5.457   1.726  25.456  0.00  0.00    -0.000 A 
ATOM     26  C   UNL     1      -5.517   2.451  25.068  0.00  0.00    -0.000 A 
ATOM     27  C   UNL     1      -4.934   2.682  24.532  0.00  0.00    -0.005 A 
ATOM     28  C   UNL     1      -4.291   2.186  24.383  0.00  0.00    -0.024 A 
ATOM     29  C   UNL     1      -3.709   2.417  23.846  0.00  0.00    +0.031 C 
ENDBRANCH  22  23
ENDBRANCH  21  22
ENDBRANCH  15  17
TORSDOF 8
ENDMDL
MODEL 2
REMARK VINA RESULT:      -9.8      0.876      2.406
REMARK  Name = 
REMARK  8 active torsions:
REMARK  status: ('A' for Active; 'I' for Inactive)
REMARK    1  A    between atoms: O_2  and  C_3
REMARK    2  A    between atoms: C_3  and  C_4
REMARK    3  A    between atoms: C_4  and  N_5
REMARK    4  A    between atoms: N_5  and  C_6
REMARK    5  A    between atoms: C_9  and  C_12
REMARK    6  A    between atoms: C_15  and  C_17
REMARK    7  A    between atoms: N_21  and  C_22
REMARK    8  A    between atoms: C_22  and  C_23
REMARK                            x       y       z     vdW  Elec       q    Type
REMARK                         _______ _______ _______ _____ _____    ______ ____
ROOT
ATOM     12  C   UNL     1      -0.841   0.674  24.478  0.00  0.00    +0.205 A 
ATOM     13  N   UNL     1      -0.872   0.846  25.285  0.00  0.00    -0.056 NA
ATOM     14  O   UNL     1      -1.666   0.886  25.506  0.00  0.00    -0.336 OA
ATOM     15  C   UNL     1      -2.125   0.738  24.837  0.00  0.00    +0.251 A 
ATOM     16  N   UNL     1      -1.615   0.608  24.202  0.00  0.00    -0.190 NA
ENDROOT
BRANCH  12   9
ATOM      6  C   UNL     1       1.216   0.405  23.128  0.00  0.00    +0.148 A 
ATOM      7  C   UNL     1       0.708  -0.236  23.239  0.00  0.00    +0.036 A 
ATOM      8  C   UNL     1       0.023  -0.147  23.689  0.00  0.00    +0.008 A 
ATOM      9  C   UNL     1      -0.155   0.584  24.028  0.00  0.00    +0.058 A 
ATOM     10  C   UNL     1       0.352   1.225  23.918  0.00  0.00    +0.103 A 
ATOM     11  N   UNL     1       1.037   1.135  23.468  0.00  0.00    -0.228 NA
BRANCH   6   5
ATOM      5  N   UNL     1       1.902   0.316  22.678  0.00  0.00    -0.218 NA
BRANCH   5   4
ATOM      4  C   UNL     1       2.638   0.482  23.011  0.00  0.00    +0.146 C 
BRANCH   4   3
ATOM      3  C   UNL     1       3.324   0.376  22.566  0.00  0.00    +0.166 C 
BRANCH   3   2
ATOM      1  C   UNL     1       4.686   0.407  23.002  0.00  0.00    +0.174 C 
ATOM      2  O   UNL     1       4.006   0.802  22.752  0.00  0.00    -0.349 OA
ENDBRANCH   3   2
ENDBRANCH   4   3
ENDBRANCH   5   4
ENDBRANCH   6   5
ENDBRANCH  12   9
BRANCH  15  17
ATOM     17  C   UNL     1      -2.949   0.724  24.807  0.00  0.00    +0.138 C 
ATOM     18  C   UNL     1      -3.441   1.374  24.675  0.00  0.00    +0.027 C 
ATOM     19  C   UNL     1      -4.223   1.109  24.690  0.00  0.00    +0.019 C 
ATOM     20  C   UNL     1      -4.214   0.297  24.832  0.00  0.00    +0.073 C 
ATOM     21  N   UNL     1      -3.427   0.059  24.904  0.00  0.00    -0.263 NA
BRANCH  21  22
ATOM     22  C   UNL     1      -3.165  -0.710  25.048  0.00  0.00    +0.099 C 
BRANCH  22  23
ATOM     23  C   UNL     1      -3.531  -1.348  24.675  0.00  0.00    -0.010 A 
ATOM     24  C   UNL     1      -3.996  -1.222  24.005  0.00  0.00    -0.003 A 
ATOM     25  C   UNL     1      -4.363  -1.860  23.632  0.00  0.00    -0.000 A 
ATOM     26  C   UNL     1      -4.265  -2.623  23.929  0.00  0.00    -0.000 A 
ATOM     27  C   UNL     1      -3.800  -2.749  24.599  0.00  0.00    -0.005 A 
ATOM     28  C   UNL     1      -3.433  -2.111  24.972  0.00  0.00    -0.024 A 
ATOM     29  C   UNL     1      -2.968  -2.237  25.641  0.00  0.00    +0.031 C 
ENDBRANCH  22  23
ENDBRANCH  21  22
ENDBRANCH  15  17
TORSDOF 8
ENDMDL
MODEL 3
REMARK VINA RESULT:      -8.9      2.572      4.205
REMARK  Name = 
REMARK  8 active torsions:
REMARK  status: ('A' for Active; 'I' for Inactive)
REMARK    1  A    between atoms: O_2  and  C_3
REMARK    2  A    between atoms: C_3  and  C_4
REMARK    3  A    between atoms: C_4  and  N_5
REMARK    4  A    between atoms: N_5  and  C_6
REMARK    5  A    between atoms: C_9  and  C_12
REMARK    6  A    between atoms: C_15  and  C_17
REMARK    7  A    between atoms: N_21  and  C_22
REMARK    8  A    between atoms: C_22  and  C_23
REMARK                            x       y       z     vdW  Elec       q    Type
REMARK                         _______ _______ _______ _____ _____    ______ ____
ROOT
ATOM     12  C   UNL     1      -0.594   1.671  25.464  0.00  0.00    +0.205 A 
ATOM     13  N   UNL     1      -0.067   1.978  26.021  0.00  0.00    -0.056 NA
ATOM     14  O   UNL     1      -0.131   2.801  26.006  0.00  0.00    -0.336 OA
ATOM     15  C   UNL     1      -0.697   3.002  25.440  0.00  0.00    +0.251 A 
ATOM     16  N   UNL     1      -0.983   2.304  25.106  0.00  0.00    -0.190 NA
ENDROOT
BRANCH  12   9
ATOM      6  C   UNL     1      -0.944  -0.727  24.961  0.00  0.00    +0.148 A 
ATOM      7  C   UNL     1      -1.200  -0.414  25.681  0.00  0.00    +0.036 A 
ATOM      8  C   UNL     1      -1.084   0.385  25.849  0.00  0.00    +0.008 A 
ATOM      9  C   UNL     1      -0.711   0.872  25.297  0.00  0.00    +0.058 A 
ATOM     10  C   UNL     1      -0.455   0.560  24.578  0.00  0.00    +0.103 A 
ATOM     11  N   UNL     1      -0.571  -0.239  24.410  0.00  0.00    -0.228 NA
BRANCH   6   5
ATOM      5  N   UNL     1      -1.061  -1.526  24.793  0.00  0.00    -0.218 NA
BRANCH   5   4
ATOM      4  C   UNL     1      -1.771  -1.778  24.460  0.00  0.00    +0.146 C 
BRANCH   4   3
ATOM      3  C   UNL     1      -2.002  -2.567  24.526  0.00  0.00    +0.166 C 
BRANCH   3   2
ATOM      1  C   UNL     1      -3.359  -3.014  24.489  0.00  0.00    +0.174 C 
ATOM      2  O   UNL     1      -2.652  -2.845  24.100  0.00  0.00    -0.349 OA
ENDBRANCH   3   2
ENDBRANCH   4   3
ENDBRANCH   5   4
ENDBRANCH   6   5
ENDBRANCH  12   9
BRANCH  15  17
ATOM     17  C   UNL     1      -0.935   3.767  25.243  0.00  0.00    +0.138 C 
ATOM     18  C   UNL     1      -0.474   4.335  24.861  0.00  0.00    +0.027 C 
ATOM     19  C   UNL     1      -0.931   5.017  24.775  0.00  0.00    +0.019 C 
ATOM     20  C   UNL     1      -1.672   4.871  25.105  0.00  0.00    +0.073 C 
ATOM     21  N   UNL     1      -1.675   4.098  25.394  0.00  0.00    -0.263 NA
BRANCH  21  22
ATOM     22  C   UNL     1      -2.308   3.723  25.768  0.00  0.00    +0.099 C 
BRANCH  22  23
ATOM     23  C   UNL     1      -3.070   3.798  25.463  0.00  0.00    -0.010 A 
ATOM     24  C   UNL     1      -3.192   3.785  24.647  0.00  0.00    -0.003 A 
ATOM     25  C   UNL     1      -3.955   3.860  24.343  0.00  0.00    -0.000 A 
ATOM     26  C   UNL     1      -4.596   3.947  24.853  0.00  0.00    -0.000 A 
ATOM     27  C   UNL     1      -4.475   3.960  25.670  0.00  0.00    -0.005 A 
ATOM     28  C   UNL     1      -3.712   3.885  25.974  0.00  0.00    -0.024 A 
ATOM     29  C   UNL     1      -3.591   3.898  26.790  0.00  0.00    +0.031 C 
ENDBRANCH  22  23
ENDBRANCH  21  22
ENDBRANCH  15  17
TORSDOF 8
ENDMDL
MODEL 4
REMARK VINA RESULT:      -8.8      3.238      5.027
REMARK  Name = 
REMARK  8 active torsions:
REMARK  status: ('A' for Active; 'I' for Inactive)
REMARK    1  A    between atoms: O_2  and  C_3
REMARK    2  A    between atoms: C_3  and  C_4
REMARK    3  A    between atoms: C_4  and  N_5
REMARK    4  A    between atoms: N_5  and  C_6
REMARK    5  A    between atoms: C_9  and  C_12
REMARK    6  A    between atoms: C_15  and  C_17
REMARK    7  A    between atoms: N_21  and  C_22
REMARK    8  A    between atoms: C_22  and  C_23
REMARK                            x       y       z     vdW  Elec       q    Type
REMARK                         _______ _______ _______ _____ _____    ______ ____
ROOT
ATOM     12  C   UNL     1      -4.180   1.673  24.605  0.00  0.00    +0.205 A 
ATOM     13  N   UNL     1      -4.574   2.222  24.132  0.00  0.00    -0.056 NA
ATOM     14  O   UNL     1      -4.467   2.969  24.465  0.00  0.00    -0.336 OA
ATOM     15  C   UNL     1      -4.007   2.882  25.145  0.00  0.00    +0.251 A 
ATOM     16  N   UNL     1      -3.830   2.080  25.231  0.00  0.00    -0.190 NA
ENDROOT
BRANCH  12   9
ATOM      6  C   UNL     1      -4.070  -0.769  24.216  0.00  0.00    +0.148 A 
ATOM      7  C   UNL     1      -4.456  -0.474  24.884  0.00  0.00    +0.036 A 
ATOM      8  C   UNL     1      -4.493   0.340  25.014  0.00  0.00    +0.008 A 
ATOM      9  C   UNL     1      -4.144   0.859  24.476  0.00  0.00    +0.058 A 
ATOM     10  C   UNL     1      -3.759   0.565  23.809  0.00  0.00    +0.103 A 
ATOM     11  N   UNL     1      -3.722  -0.249  23.679  0.00  0.00    -0.228 NA
BRANCH   6   5
ATOM      5  N   UNL     1      -4.034  -1.583  24.086  0.00  0.00    -0.218 NA
BRANCH   5   4
ATOM      4  C   UNL     1      -3.530  -2.051  24.542  0.00  0.00    +0.146 C 
BRANCH   4   3
ATOM      3  C   UNL     1      -3.129  -2.683  24.195  0.00  0.00    +0.166 C 
BRANCH   3   2
ATOM      1  C   UNL     1      -1.734  -2.922  24.398  0.00  0.00    +0.174 C 
ATOM      2  O   UNL     1      -2.520  -3.060  24.606  0.00  0.00    -0.349 OA
ENDBRANCH   3   2
ENDBRANCH   4   3
ENDBRANCH   5   4
ENDBRANCH   6   5
ENDBRANCH  12   9
BRANCH  15  17
ATOM     17  C   UNL     1      -3.767   3.488  25.649  0.00  0.00    +0.138 C 
ATOM     18  C   UNL     1      -4.242   3.878  26.199  0.00  0.00    +0.027 C 
ATOM     19  C   UNL     1      -3.777   4.443  26.583  0.00  0.00    +0.019 C 
ATOM     20  C   UNL     1      -3.016   4.402  26.269  0.00  0.00    +0.073 C 
ATOM     21  N   UNL     1      -3.009   3.812  25.692  0.00  0.00    -0.263 NA
BRANCH  21  22
ATOM     22  C   UNL     1      -2.359   3.585  25.238  0.00  0.00    +0.099 C 
BRANCH  22  23
ATOM     23  C   UNL     1      -1.741   4.116  25.109  0.00  0.00    -0.010 A 
ATOM     24  C   UNL     1      -1.898   4.923  25.039  0.00  0.00    -0.003 A 
ATOM     25  C   UNL     1      -1.280   5.454  24.910  0.00  0.00    -0.000 A 
ATOM     26  C   UNL     1      -0.505   5.179  24.850  0.00  0.00    -0.000 A 
ATOM     27  C   UNL     1      -0.347   4.372  24.920  0.00  0.00    -0.005 A 
ATOM     28  C   UNL     1      -0.966   3.841  25.049  0.00  0.00    -0.024 A 
ATOM     29  C   UNL     1      -0.808   3.034  25.119  0.00  0.00    +0.031 C 
ENDBRANCH  22  23
ENDBRANCH  21  22
ENDBRANCH  15  17
TORSDOF 8
ENDMDL
MODEL 5
REMARK VINA RESULT:      -8.8      1.499      2.329
REMARK  Name = 
REMARK  8 active torsions:
REMARK  status: ('A' for Active; 'I' for Inactive)
REMARK    1  A    between atoms: O_2  and  C_3
REMARK    2  A    between atoms: C_3  and  C_4
REMARK    3  A    between atoms: C_4  and  N_5
REMARK    4  A    between atoms: N_5  and  C_6
REMARK    5  A    between atoms: C_9  and  C_12
REMARK    6  A    between atoms: C_15  and  C_17
REMARK    7  A    between atoms: N_21  and  C_22
REMARK    8  A    between atoms: C_22  and  C_23
REMARK                            x       y       z     vdW  Elec       q    Type
REMARK                         _______ _______ _______ _____ _____    ______ ____
ROOT
ATOM     12  C   UNL     1      -0.783   1.851  24.865  0.00  0.00    +0.205 A 
ATOM     13  N   UNL     1      -0.935   1.727  25.666  0.00  0.00    -0.056 NA
ATOM     14  O   UNL     1      -1.550   2.231  25.890  0.00  0.00    -0.336 OA
ATOM     15  C   UNL     1      -1.776   2.666  25.227  0.00  0.00    +0.251 A 
ATOM     16  N   UNL     1      -1.302   2.431  24.593  0.00  0.00    -0.190 NA
ENDROOT
BRANCH  12   9
ATOM      6  C   UNL     1       0.932   0.686  23.513  0.00  0.00    +0.148 A 
ATOM      7  C   UNL     1       0.184   0.350  23.610  0.00  0.00    +0.036 A 
ATOM      8  C   UNL     1      -0.388   0.738  24.060  0.00  0.00    +0.008 A 
ATOM      9  C   UNL     1      -0.211   1.463  24.414  0.00  0.00    +0.058 A 
ATOM     10  C   UNL     1       0.536   1.798  24.318  0.00  0.00    +0.103 A 
ATOM     11  N   UNL     1       1.107   1.410  23.867  0.00  0.00    -0.228 NA
BRANCH   6   5
ATOM      5  N   UNL     1       1.504   0.297  23.063  0.00  0.00    -0.218 NA
BRANCH   5   4
ATOM      4  C   UNL     1       2.252   0.631  22.970  0.00  0.00    +0.146 C 
BRANCH   4   3
ATOM      3  C   UNL     1       2.858   0.193  22.621  0.00  0.00    +0.166 C 
BRANCH   3   2
ATOM      1  C   UNL     1       4.261   0.447  22.735  0.00  0.00    +0.174 C 
ATOM      2  O   UNL     1       3.541   0.573  22.353  0.00  0.00    -0.349 OA
ENDBRANCH   3   2
ENDBRANCH   4   3
ENDBRANCH   5   4
ENDBRANCH   6   5
ENDBRANCH  12   9
BRANCH  15  17
ATOM     17  C   UNL     1      -2.372   3.236  25.201  0.00  0.00    +0.138 C 
ATOM     18  C   UNL     1      -2.265   4.052  25.268  0.00  0.00    +0.027 C 
ATOM     19  C   UNL     1      -3.006   4.411  25.213  0.00  0.00    +0.019 C 
ATOM     20  C   UNL     1      -3.570   3.818  25.111  0.00  0.00    +0.073 C 
ATOM     21  N   UNL     1      -3.178   3.092  25.104  0.00  0.00    -0.263 NA
BRANCH  21  22
ATOM     22  C   UNL     1      -3.531   2.351  25.015  0.00  0.00    +0.099 C 
BRANCH  22  23
ATOM     23  C   UNL     1      -4.344   2.267  25.117  0.00  0.00    -0.010 A 
ATOM     24  C   UNL     1      -4.763   2.816  25.569  0.00  0.00    -0.003 A 
ATOM     25  C   UNL     1      -5.577   2.732  25.671  0.00  0.00    -0.000 A 
ATOM     26  C   UNL     1      -5.973   2.099  25.322  0.00  0.00    -0.000 A 
ATOM     27  C   UNL     1      -5.556   1.549  24.870  0.00  0.00    -0.005 A 
ATOM     28  C   UNL     1      -4.741   1.634  24.768  0.00  0.00    -0.024 A 
ATOM     29  C   UNL     1      -4.323   1.084  24.316  0.00  0.00    +0.031 C 
ENDBRANCH  22  23
ENDBRANCH  21  22
ENDBRANCH  15  17
TORSDOF 8
ENDMDL
MODEL 6
REMARK VINA RESULT:      -8.8      1.632      2.125
REMARK  Name = 
REMARK  8 active torsions:
REMARK  status: ('A' for Active; 'I' for Inactive)
REMARK    1  A    between atoms: O_2  and  C_3
REMARK    2  A    between atoms: C_3  and  C_4
REMARK    3  A    between atoms: C_4  and  N_5
REMARK    4  A    between atoms: N_5  and  C_6
REMARK    5  A    between atoms: C_9  and  C_12
REMARK    6  A    between atoms: C_15  and  C_17
REMARK    7  A    between atoms: N_21  and  C_22
REMARK    8  A    between atoms: C_22  and  C_23
REMARK                            x       y       z     vdW  Elec       q    Type
REMARK                         _______ _______ _______ _____ _____    ______ ____
ROOT
ATOM     12  C   UNL     1      -0.377   0.624  23.856  0.00  0.00    +0.205 A 
ATOM     13  N   UNL     1      -0.668   0.265  24.540  0.00  0.00    -0.056 NA
ATOM     14  O   UNL     1      -1.440   0.531  24.658  0.00  0.00    -0.336 OA
ATOM     15  C   UNL     1      -1.626   1.055  24.049  0.00  0.00    +0.251 A 
ATOM     16  N   UNL     1      -0.968   1.112  23.553  0.00  0.00    -0.190 NA
ENDROOT
BRANCH  12   9
ATOM      6  C   UNL     1       1.877   0.295  22.888  0.00  0.00    +0.148 A 
ATOM      7  C   UNL     1       1.287  -0.270  22.763  0.00  0.00    +0.036 A 
ATOM      8  C   UNL     1       0.536  -0.160  23.086  0.00  0.00    +0.008 A 
ATOM      9  C   UNL     1       0.375   0.514  23.533  0.00  0.00    +0.058 A 
ATOM     10  C   UNL     1       0.963   1.078  23.658  0.00  0.00    +0.103 A 
ATOM     11  N   UNL     1       1.714   0.968  23.336  0.00  0.00    -0.228 NA
BRANCH   6   5
ATOM      5  N   UNL     1       2.628   0.185  22.565  0.00  0.00    -0.218 NA
BRANCH   5   4
ATOM      4  C   UNL     1       3.286   0.524  22.928  0.00  0.00    +0.146 C 
BRANCH   4   3
ATOM      3  C   UNL     1       4.046   0.306  22.692  0.00  0.00    +0.166 C 
BRANCH   3   2
ATOM      1  C   UNL     1       5.314   0.166  23.337  0.00  0.00    +0.174 C 
ATOM      2  O   UNL     1       4.705   0.645  23.055  0.00  0.00    -0.349 OA
ENDBRANCH   3   2
ENDBRANCH   4   3
ENDBRANCH   5   4
ENDBRANCH   6   5
ENDBRANCH  12   9
BRANCH  15  17
ATOM     17  C   UNL     1      -2.342   1.452  23.951  0.00  0.00    +0.138 C 
ATOM     18  C   UNL     1      -2.993   1.179  23.523  0.00  0.00    +0.027 C 
ATOM     19  C   UNL     1      -3.587   1.750  23.572  0.00  0.00    +0.019 C 
ATOM     20  C   UNL     1      -3.304   2.374  24.029  0.00  0.00    +0.073 C 
ATOM     21  N   UNL     1      -2.534   2.190  24.264  0.00  0.00    -0.263 NA
BRANCH  21  22
ATOM     22  C   UNL     1      -2.044   2.662  24.729  0.00  0.00    +0.099 C 
BRANCH  22  23
ATOM     23  C   UNL     1      -2.365   3.272  25.182  0.00  0.00    -0.010 A 
ATOM     24  C   UNL     1      -3.117   3.188  25.512  0.00  0.00    -0.003 A 
ATOM     25  C   UNL     1      -3.439   3.798  25.964  0.00  0.00    -0.000 A 
ATOM     26  C   UNL     1      -3.010   4.491  26.087  0.00  0.00    -0.000 A 
ATOM     27  C   UNL     1      -2.259   4.576  25.757  0.00  0.00    -0.005 A 
ATOM     28  C   UNL     1      -1.936   3.965  25.305  0.00  0.00    -0.024 A 
ATOM     29  C   UNL     1      -1.185   4.050  24.975  0.00  0.00    +0.031 C 
ENDBRANCH  22  23
ENDBRANCH  21  22
ENDBRANCH  15  17
TORSDOF 8
ENDMDL
MODEL 7
REMARK VINA RESULT:      -8.7      2.708      3.804
REMARK  Name = 
REMARK  8 active torsions:
REMARK  status: ('A' for Active; 'I' for Inactive)
REMARK    1  A    between atoms: O_2  and  C_3
REMARK    2  A    between atoms: C_3  and  C_4
REMARK    3  A    between atoms: C_4  and  N_5
REMARK    4  A    between atoms: N_5  and  C_6
REMARK    5  A    between atoms: C_9  and  C_12
REMARK    6  A    between atoms: C_15  and  C_17
REMARK    7  A    between atoms: N_21  and  C_22
REMARK    8  A    between atoms: C_22  and  C_23
REMARK                            x       y       z     vdW  Elec       q    Type
REMARK                         _______ _______ _______ _____ _____    ______ ____
ROOT
ATOM     12  C   UNL     1      -1.914   1.912  24.952  0.00  0.00    +0.205 A 
ATOM     13  N   UNL     1      -2.014   2.020  24.140  0.00  0.00    -0.056 NA
ATOM     14  O   UNL     1      -2.757   1.729  23.933  0.00  0.00    -0.336 OA
ATOM     15  C   UNL     1      -3.117   1.440  24.617  0.00  0.00    +0.251 A 
ATOM     16  N   UNL     1      -2.596   1.553  25.246  0.00  0.00    -0.190 NA
ENDROOT
BRANCH  12   9
ATOM      6  C   UNL     1       0.080   2.550  26.271  0.00  0.00    +0.148 A 
ATOM      7  C   UNL     1      -0.541   3.085  26.177  0.00  0.00    +0.036 A 
ATOM      8  C   UNL     1      -1.206   2.872  25.738  0.00  0.00    +0.008 A 
ATOM      9  C   UNL     1      -1.249   2.124  25.392  0.00  0.00    +0.058 A 
ATOM     10  C   UNL     1      -0.629   1.590  25.485  0.00  0.00    +0.103 A 
ATOM     11  N   UNL     1       0.036   1.802  25.925  0.00  0.00    -0.228 NA
BRANCH   6   5
ATOM      5  N   UNL     1       0.745   2.762  26.711  0.00  0.00    -0.218 NA
BRANCH   5   4
ATOM      4  C   UNL     1       0.785   2.577  27.513  0.00  0.00    +0.146 C 
BRANCH   4   3
ATOM      3  C   UNL     1       1.485   2.704  27.931  0.00  0.00    +0.166 C 
BRANCH   3   2
ATOM      1  C   UNL     1       2.212   2.685  29.162  0.00  0.00    +0.174 C 
ATOM      2  O   UNL     1       1.507   2.579  28.747  0.00  0.00    -0.349 OA
ENDBRANCH   3   2
ENDBRANCH   4   3
ENDBRANCH   5   4
ENDBRANCH   6   5
ENDBRANCH  12   9
BRANCH  15  17
ATOM     17  C   UNL     1      -3.867   1.098  24.663  0.00  0.00    +0.138 C 
ATOM     18  C   UNL     1      -4.586   1.501  24.634  0.00  0.00    +0.027 C 
ATOM     19  C   UNL     1      -5.193   0.945  24.700  0.00  0.00    +0.019 C 
ATOM     20  C   UNL     1      -4.848   0.199  24.770  0.00  0.00    +0.073 C 
ATOM     21  N   UNL     1      -4.028   0.294  24.747  0.00  0.00    -0.263 NA
BRANCH  21  22
ATOM     22  C   UNL     1      -3.470  -0.311  24.799  0.00  0.00    +0.099 C 
BRANCH  22  23
ATOM     23  C   UNL     1      -3.671  -1.079  24.580  0.00  0.00    -0.010 A 
ATOM     24  C   UNL     1      -4.114  -1.211  23.896  0.00  0.00    -0.003 A 
ATOM     25  C   UNL     1      -4.316  -1.979  23.677  0.00  0.00    -0.000 A 
ATOM     26  C   UNL     1      -4.076  -2.618  24.140  0.00  0.00    -0.000 A 
ATOM     27  C   UNL     1      -3.633  -2.487  24.824  0.00  0.00    -0.005 A 
ATOM     28  C   UNL     1      -3.431  -1.718  25.044  0.00  0.00    -0.024 A 
ATOM     29  C   UNL     1      -2.989  -1.587  25.728  0.00  0.00    +0.031 C 
ENDBRANCH  22  23
ENDBRANCH  21  22
ENDBRANCH  15  17
TORSDOF 8
ENDMDL
MODEL 8
REMARK VINA RESULT:      -8.4      2.383      4.075
REMARK  Name = 
REMARK  8 active torsions:
REMARK  status: ('A' for Active; 'I' for Inactive)
REMARK    1  A    between atoms: O_2  and  C_3
REMARK    2  A    between atoms: C_3  and  C_4
REMARK    3  A    between atoms: C_4  and  N_5
REMARK    4  A    between atoms: N_5  and  C_6
REMARK    5  A    between atoms: C_9  and  C_12
REMARK    6  A    between atoms: C_15  and  C_17
REMARK    7  A    between atoms: N_21  and  C_22
REMARK    8  A    between atoms: C_22  and  C_23
REMARK                            x       y       z     vdW  Elec       q    Type
REMARK                         _______ _______ _______ _____ _____    ______ ____
ROOT
ATOM     12  C   UNL     1      -0.419   0.713  24.409  0.00  0.00    +0.205 A 
ATOM     13  N   UNL     1      -0.090   0.334  23.754  0.00  0.00    -0.056 NA
ATOM     14  O   UNL     1      -0.232  -0.476  23.831  0.00  0.00    -0.336 OA
ATOM     15  C   UNL     1      -0.648  -0.596  24.533  0.00  0.00    +0.251 A 
ATOM     16  N   UNL     1      -0.763   0.139  24.891  0.00  0.00    -0.190 NA
ENDROOT
BRANCH  12   9
ATOM      6  C   UNL     1      -0.377   3.148  24.852  0.00  0.00    +0.148 A 
ATOM      7  C   UNL     1      -0.180   2.616  25.451  0.00  0.00    +0.036 A 
ATOM      8  C   UNL     1      -0.194   1.805  25.304  0.00  0.00    +0.008 A 
ATOM      9  C   UNL     1      -0.405   1.525  24.557  0.00  0.00    +0.058 A 
ATOM     10  C   UNL     1      -0.602   2.056  23.958  0.00  0.00    +0.103 A 
ATOM     11  N   UNL     1      -0.588   2.868  24.105  0.00  0.00    -0.228 NA
BRANCH   6   5
ATOM      5  N   UNL     1      -0.363   3.960  24.999  0.00  0.00    -0.218 NA
BRANCH   5   4
ATOM      4  C   UNL     1      -1.070   4.381  25.055  0.00  0.00    +0.146 C 
BRANCH   4   3
ATOM      3  C   UNL     1      -1.063   5.205  25.016  0.00  0.00    +0.166 C 
BRANCH   3   2
ATOM      1  C   UNL     1      -2.349   5.829  25.020  0.00  0.00    +0.174 C 
ATOM      2  O   UNL     1      -1.645   5.641  25.407  0.00  0.00    -0.349 OA
ENDBRANCH   3   2
ENDBRANCH   4   3
ENDBRANCH   5   4
ENDBRANCH   6   5
ENDBRANCH  12   9
BRANCH  15  17
ATOM     17  C   UNL     1      -0.904  -1.323  24.827  0.00  0.00    +0.138 C 
ATOM     18  C   UNL     1      -0.428  -1.898  25.179  0.00  0.00    +0.027 C 
ATOM     19  C   UNL     1      -0.911  -2.534  25.390  0.00  0.00    +0.019 C 
ATOM     20  C   UNL     1      -1.684  -2.351  25.168  0.00  0.00    +0.073 C 
ATOM     21  N   UNL     1      -1.680  -1.603  24.820  0.00  0.00    -0.263 NA
BRANCH  21  22
ATOM     22  C   UNL     1      -2.336  -1.206  24.518  0.00  0.00    +0.099 C 
BRANCH  22  23
ATOM     23  C   UNL     1      -3.022  -1.624  24.332  0.00  0.00    -0.010 A 
ATOM     24  C   UNL     1      -3.006  -2.448  24.295  0.00  0.00    -0.003 A 
ATOM     25  C   UNL     1      -3.692  -2.866  24.109  0.00  0.00    -0.000 A 
ATOM     26  C   UNL     1      -4.394  -2.461  23.959  0.00  0.00    -0.000 A 
ATOM     27  C   UNL     1      -4.411  -1.637  23.996  0.00  0.00    -0.005 A 
ATOM     28  C   UNL     1      -3.725  -1.218  24.182  0.00  0.00    -0.024 A 
ATOM     29  C   UNL     1      -3.742  -0.394  24.219  0.00  0.00    +0.031 C 
ENDBRANCH  22  23
ENDBRANCH  21  22
ENDBRANCH  15  17
TORSDOF 8
ENDMDL
MODEL 9
REMARK VINA RESULT:      -5.9     16.939     18.280
REMARK  Name = 
REMARK  8 active torsions:
REMARK  status: ('A' for Active; 'I' for Inactive)
REMARK    1  A    between atoms: O_2  and  C_3
REMARK    2  A    between atoms: C_3  and  C_4
REMARK    3  A    between atoms: C_4  and  N_5
REMARK    4  A    between atoms: N_5  and  C_6
REMARK    5  A    between atoms: C_9  and  C_12
REMARK    6  A    between atoms: C_15  and  C_17
REMARK    7  A    between atoms: N_21  and  C_22
REMARK    8  A    between atoms: C_22  and  C_23
REMARK                            x       y       z     vdW  Elec       q    Type
REMARK                         _______ _______ _______ _____ _____    ______ ____
ROOT
ATOM     12  C   UNL     1      -7.225  -9.116   9.943  0.00  0.00    +0.205 A 
ATOM     13  N   UNL     1      -7.112  -9.904   9.722  0.00  0.00    -0.056 NA
ATOM     14  O   UNL     1      -6.631 -10.261  10.289  0.00  0.00    -0.336 OA
ATOM     15  C   UNL     1      -6.446  -9.695  10.860  0.00  0.00    +0.251 A 
ATOM     16  N   UNL     1      -6.813  -8.988  10.646  0.00  0.00    -0.190 NA
ENDROOT
BRANCH  12   9
ATOM      6  C   UNL     1      -8.564  -7.438   8.713  0.00  0.00    +0.148 A 
ATOM      7  C   UNL     1      -7.752  -7.498   8.577  0.00  0.00    +0.036 A 
ATOM      8  C   UNL     1      -7.305  -8.058   8.987  0.00  0.00    +0.008 A 
ATOM      9  C   UNL     1      -7.671  -8.557   9.533  0.00  0.00    +0.058 A 
ATOM     10  C   UNL     1      -8.482  -8.497   9.669  0.00  0.00    +0.103 A 
ATOM     11  N   UNL     1      -8.929  -7.937   9.259  0.00  0.00    -0.228 NA
BRANCH   6   5
ATOM      5  N   UNL     1      -9.010  -6.878   8.303  0.00  0.00    -0.218 NA
BRANCH   5   4
ATOM      4  C   UNL     1      -9.407  -6.285   8.715  0.00  0.00    +0.146 C 
BRANCH   4   3
ATOM      3  C   UNL     1      -9.657  -5.605   8.321  0.00  0.00    +0.166 C 
BRANCH   3   2
ATOM      1  C   UNL     1     -10.168  -4.342   8.756  0.00  0.00    +0.174 C 
ATOM      2  O   UNL     1     -10.274  -5.151   8.630  0.00  0.00    -0.349 OA
ENDBRANCH   3   2
ENDBRANCH   4   3
ENDBRANCH   5   4
ENDBRANCH   6   5
ENDBRANCH  12   9
BRANCH  15  17
ATOM     17  C   UNL     1      -5.976  -9.815  11.527  0.00  0.00    +0.138 C 
ATOM     18  C   UNL     1      -6.249  -9.951  12.294  0.00  0.00    +0.027 C 
ATOM     19  C   UNL     1      -5.592 -10.040  12.786  0.00  0.00    +0.019 C 
ATOM     20  C   UNL     1      -4.914  -9.959  12.324  0.00  0.00    +0.073 C 
ATOM     21  N   UNL     1      -5.151  -9.820  11.545  0.00  0.00    -0.263 NA
BRANCH  21  22
ATOM     22  C   UNL     1      -4.651  -9.706  10.900  0.00  0.00    +0.099 C 
BRANCH  22  23
ATOM     23  C   UNL     1      -3.838  -9.816  10.983  0.00  0.00    -0.010 A 
ATOM     24  C   UNL     1      -3.550 -10.375  11.517  0.00  0.00    -0.003 A 
ATOM     25  C   UNL     1      -2.737 -10.484  11.601  0.00  0.00    -0.000 A 
ATOM     26  C   UNL     1      -2.211 -10.035  11.151  0.00  0.00    -0.000 A 
ATOM     27  C   UNL     1      -2.499  -9.476  10.616  0.00  0.00    -0.005 A 
ATOM     28  C   UNL     1      -3.313  -9.367  10.533  0.00  0.00    -0.024 A 
ATOM     29  C   UNL     1      -3.601  -8.808   9.999  0.00  0.00    +0.031 C 
ENDBRANCH  22  23
ENDBRANCH  21  22
ENDBRANCH  15  17
TORSDOF 8
ENDMDL
