MODEL 1
REMARK VINA RESULT:     -12.3      0.000      0.000
REMARK  Name = 
REMARK  3 active torsions:
REMARK  status: ('A' for Active; 'I' for Inactive)
REMARK    1  A    between atoms: C_5  and  C_8
REMARK    2  A    between atoms: C_11  and  C_13
REMARK    3  A    between atoms: N_16  and  C_18
REMARK                            x       y       z     vdW  Elec       q    Type
REMARK                         _______ _______ _______ _____ _____    ______ ____
ROOT
ATOM      8  C   UNL     1      -4.163   0.296  24.859  0.00  0.00    +0.250 A 
ATOM      9  N   UNL     1      -4.858   0.629  25.153  0.00  0.00    -0.107 NA
ATOM     10  N   UNL     1      -4.768   1.450  25.151  0.00  0.00    -0.111 NA
ATOM     11  C   UNL     1      -4.018   1.623  24.856  0.00  0.00    +0.227 A 
ATOM     12  O   UNL     1      -3.644   0.910  24.675  0.00  0.00    -0.419 OA
ENDROOT
BRANCH   8   5
ATOM      1 CL   UNL     1      -3.567  -2.928  24.481  0.00  0.00    -0.082 Cl
ATOM      2  C   UNL     1      -3.716  -2.122  24.575  0.00  0.00    +0.058 A 
ATOM      3  C   UNL     1      -4.089  -1.698  23.974  0.00  0.00    +0.012 A 
ATOM      4  C   UNL     1      -4.238  -0.892  24.068  0.00  0.00    +0.006 A 
ATOM      5  C   UNL     1      -4.014  -0.510  24.764  0.00  0.00    +0.055 A 
ATOM      6  C   UNL     1      -3.642  -0.934  25.366  0.00  0.00    +0.006 A 
ATOM      7  C   UNL     1      -3.493  -1.739  25.271  0.00  0.00    +0.012 A 
ENDBRANCH   8   5
BRANCH  11  13
ATOM     13  C   UNL     1      -3.697   2.377  24.759  0.00  0.00    +0.096 C 
ATOM     14  C   UNL     1      -4.045   3.003  24.349  0.00  0.00    +0.028 C 
ATOM     15  C   UNL     1      -3.535   3.650  24.391  0.00  0.00    +0.073 C 
ATOM     16  N   UNL     1      -2.871   3.423  24.826  0.00  0.00    -0.274 NA
ATOM     17  C   UNL     1      -2.972   2.637  25.053  0.00  0.00    +0.081 C 
BRANCH  16  18
ATOM     18  C   UNL     1      -2.222   3.900  25.003  0.00  0.00    +0.058 C 
ATOM     19  C   UNL     1      -1.408   3.849  24.876  0.00  0.00    +0.016 C 
ATOM     20  C   UNL     1      -1.303   4.575  25.253  0.00  0.00    +0.003 C 
ATOM     21  C   UNL     1      -2.116   4.627  25.380  0.00  0.00    +0.016 C 
ENDBRANCH  16  18
ENDBRANCH  11  13
TORSDOF 3
ENDMDL
MODEL 2
REMARK VINA RESULT:     -11.0      2.122      5.010
REMARK  Name = 
REMARK  3 active torsions:
REMARK  status: ('A' for Active; 'I' for Inactive)
REMARK    1  A    between atoms: C_5  and  C_8
REMARK    2  A    between atoms: C_11  and  C_13
REMARK    3  A    between atoms: N_16  and  C_18
REMARK                            x       y       z     vdW  Elec       q    Type
REMARK                         _______ _______ _______ _____ _____    ______ ____
ROOT
ATOM      8  C   UNL     1      -2.710   2.426  24.268  0.00  0.00    +0.250 A 
ATOM      9  N   UNL     1      -2.893   2.254  23.483  0.00  0.00    -0.107 NA
ATOM     10  N   UNL     1      -3.253   1.512  23.461  0.00  0.00    -0.111 NA
ATOM     11  C   UNL     1      -3.292   1.225  24.233  0.00  0.00    +0.227 A 
ATOM     12  O   UNL     1      -2.956   1.790  24.732  0.00  0.00    -0.419 OA
ENDROOT
BRANCH   8   5
ATOM      1 CL   UNL     1      -1.246   5.174  25.362  0.00  0.00    -0.082 Cl
ATOM      2  C   UNL     1      -1.612   4.487  25.089  0.00  0.00    +0.058 A 
ATOM      3  C   UNL     1      -2.435   4.436  25.074  0.00  0.00    +0.012 A 
ATOM      4  C   UNL     1      -2.801   3.749  24.800  0.00  0.00    +0.006 A 
ATOM      5  C   UNL     1      -2.344   3.113  24.542  0.00  0.00    +0.055 A 
ATOM      6  C   UNL     1      -1.520   3.164  24.556  0.00  0.00    +0.006 A 
ATOM      7  C   UNL     1      -1.155   3.851  24.830  0.00  0.00    +0.012 A 
ENDBRANCH   8   5
BRANCH  11  13
ATOM     13  C   UNL     1      -3.611   0.501  24.467  0.00  0.00    +0.096 C 
ATOM     14  C   UNL     1      -4.254   0.394  24.972  0.00  0.00    +0.028 C 
ATOM     15  C   UNL     1      -4.383  -0.416  25.053  0.00  0.00    +0.073 C 
ATOM     16  N   UNL     1      -3.819  -0.811  24.598  0.00  0.00    -0.274 NA
ATOM     17  C   UNL     1      -3.342  -0.244  24.236  0.00  0.00    +0.081 C 
BRANCH  16  18
ATOM     18  C   UNL     1      -3.746  -1.629  24.519  0.00  0.00    +0.058 C 
ATOM     19  C   UNL     1      -3.315  -2.216  24.908  0.00  0.00    +0.016 C 
ATOM     20  C   UNL     1      -3.642  -2.786  24.408  0.00  0.00    +0.003 C 
ATOM     21  C   UNL     1      -4.072  -2.199  24.020  0.00  0.00    +0.016 C 
ENDBRANCH  16  18
ENDBRANCH  11  13
TORSDOF 3
ENDMDL
MODEL 3
REMARK VINA RESULT:     -10.8      1.823      2.148
REMARK  Name = 
REMARK  3 active torsions:
REMARK  status: ('A' for Active; 'I' for Inactive)
REMARK    1  A    between atoms: C_5  and  C_8
REMARK    2  A    between atoms: C_11  and  C_13
REMARK    3  A    between atoms: N_16  and  C_18
REMARK                            x       y       z     vdW  Elec       q    Type
REMARK                         _______ _______ _______ _____ _____    ______ ____
ROOT
ATOM      8  C   UNL     1      -1.864  -0.290  25.230  0.00  0.00    +0.250 A 
ATOM      9  N   UNL     1      -1.296  -0.232  25.825  0.00  0.00    -0.107 NA
ATOM     10  N   UNL     1      -0.967   0.524  25.791  0.00  0.00    -0.111 NA
ATOM     11  C   UNL     1      -1.331   0.932  25.174  0.00  0.00    +0.227 A 
ATOM     12  O   UNL     1      -1.886   0.429  24.828  0.00  0.00    -0.419 OA
ENDROOT
BRANCH   8   5
ATOM      1 CL   UNL     1      -3.722  -2.938  24.575  0.00  0.00    -0.082 Cl
ATOM      2  C   UNL     1      -3.257  -2.276  24.739  0.00  0.00    +0.058 A 
ATOM      3  C   UNL     1      -3.588  -1.625  25.122  0.00  0.00    +0.012 A 
ATOM      4  C   UNL     1      -3.123  -0.963  25.286  0.00  0.00    +0.006 A 
ATOM      5  C   UNL     1      -2.328  -0.953  25.066  0.00  0.00    +0.055 A 
ATOM      6  C   UNL     1      -1.998  -1.604  24.683  0.00  0.00    +0.006 A 
ATOM      7  C   UNL     1      -2.462  -2.265  24.519  0.00  0.00    +0.012 A 
ENDBRANCH   8   5
BRANCH  11  13
ATOM     13  C   UNL     1      -1.170   1.708  24.944  0.00  0.00    +0.096 C 
ATOM     14  C   UNL     1      -0.669   1.937  24.330  0.00  0.00    +0.028 C 
ATOM     15  C   UNL     1      -0.671   2.761  24.293  0.00  0.00    +0.073 C 
ATOM     16  N   UNL     1      -1.173   3.041  24.885  0.00  0.00    -0.274 NA
ATOM     17  C   UNL     1      -1.481   2.390  25.287  0.00  0.00    +0.081 C 
BRANCH  16  18
ATOM     18  C   UNL     1      -1.337   3.833  25.047  0.00  0.00    +0.058 C 
ATOM     19  C   UNL     1      -1.992   4.247  25.333  0.00  0.00    +0.016 C 
ATOM     20  C   UNL     1      -1.570   4.954  25.275  0.00  0.00    +0.003 C 
ATOM     21  C   UNL     1      -0.916   4.541  24.989  0.00  0.00    +0.016 C 
ENDBRANCH  16  18
ENDBRANCH  11  13
TORSDOF 3
ENDMDL
MODEL 4
REMARK VINA RESULT:     -10.0      2.265      4.891
REMARK  Name = 
REMARK  3 active torsions:
REMARK  status: ('A' for Active; 'I' for Inactive)
REMARK    1  A    between atoms: C_5  and  C_8
REMARK    2  A    between atoms: C_11  and  C_13
REMARK    3  A    between atoms: N_16  and  C_18
REMARK                            x       y       z     vdW  Elec       q    Type
REMARK                         _______ _______ _______ _____ _____    ______ ____
ROOT
ATOM      8  C   UNL     1      -3.951   1.927  24.493  0.00  0.00    +0.250 A 
ATOM      9  N   UNL     1      -3.514   1.967  23.795  0.00  0.00    -0.107 NA
ATOM     10  N   UNL     1      -3.143   1.238  23.685  0.00  0.00    -0.111 NA
ATOM     11  C   UNL     1      -3.351   0.749  24.315  0.00  0.00    +0.227 A 
ATOM     12  O   UNL     1      -3.851   1.175  24.814  0.00  0.00    -0.419 OA
ENDROOT
BRANCH   8   5
ATOM      1 CL   UNL     1      -5.783   4.356  25.774  0.00  0.00    -0.082 Cl
ATOM      2  C   UNL     1      -5.325   3.749  25.454  0.00  0.00    +0.058 A 
ATOM      3  C   UNL     1      -5.655   3.002  25.334  0.00  0.00    +0.012 A 
ATOM      4  C   UNL     1      -5.197   2.395  25.014  0.00  0.00    +0.006 A 
ATOM      5  C   UNL     1      -4.409   2.535  24.813  0.00  0.00    +0.055 A 
ATOM      6  C   UNL     1      -4.079   3.281  24.933  0.00  0.00    +0.006 A 
ATOM      7  C   UNL     1      -4.536   3.888  25.253  0.00  0.00    +0.012 A 
ENDBRANCH   8   5
BRANCH  11  13
ATOM     13  C   UNL     1      -3.104  -0.031  24.427  0.00  0.00    +0.096 C 
ATOM     14  C   UNL     1      -2.361  -0.270  24.695  0.00  0.00    +0.028 C 
ATOM     15  C   UNL     1      -2.353  -1.094  24.724  0.00  0.00    +0.073 C 
ATOM     16  N   UNL     1      -3.092  -1.364  24.474  0.00  0.00    -0.274 NA
ATOM     17  C   UNL     1      -3.555  -0.707  24.290  0.00  0.00    +0.081 C 
BRANCH  16  18
ATOM     18  C   UNL     1      -3.325  -2.153  24.417  0.00  0.00    +0.058 C 
ATOM     19  C   UNL     1      -3.950  -2.553  24.054  0.00  0.00    +0.016 C 
ATOM     20  C   UNL     1      -3.655  -3.270  24.338  0.00  0.00    +0.003 C 
ATOM     21  C   UNL     1      -3.032  -2.871  24.700  0.00  0.00    +0.016 C 
ENDBRANCH  16  18
ENDBRANCH  11  13
TORSDOF 3
ENDMDL
