REMARK  Name = 
REMARK  6 active torsions:
REMARK  status: ('A' for Active; 'I' for Inactive)
REMARK    1  A    between atoms: C_2  and  C_4
REMARK    2  A    between atoms: C_4  and  O_5
REMARK    3  A    between atoms: O_5  and  C_6
REMARK    4  A    between atoms: C_6  and  C_7
REMARK    5  A    between atoms: N_9  and  C_10
REMARK    6  A    between atoms: C_21  and  C_26
REMARK                            x       y       z     vdW  Elec       q    Type
REMARK                         _______ _______ _______ _____ _____    ______ ____
ROOT
ATOM     10  C   UNL     1      -0.708  -1.045   0.000  0.00  0.00    +0.124 C 
ATOM     11  C   UNL     1      -0.622  -1.866   0.000  0.00  0.00    +0.045 C 
ATOM     12  C   UNL     1       0.185  -2.037   0.000  0.00  0.00    +0.096 C 
ATOM     13  N   UNL     1       0.598  -1.323   0.000  0.00  0.00    -0.268 N 
ATOM     14  C   UNL     1       0.046  -0.710   0.000  0.00  0.00    +0.174 C 
ATOM     15  C   UNL     1       0.181   0.104   0.000  0.00  0.00    +0.265 C 
ATOM     16  O   UNL     1      -0.494   0.579   0.000  0.00  0.00    -0.271 OA
ATOM     17  N   UNL     1       0.901   0.506   0.000  0.00  0.00    -0.178 NA
ATOM     18  C   UNL     1       1.665   0.193   0.000  0.00  0.00    +0.078 A 
ATOM     19  C   UNL     1       2.235   0.789   0.000  0.00  0.00    +0.017 A 
ATOM     20  C   UNL     1       3.037   0.594   0.000  0.00  0.00    +0.001 A 
ATOM     21  C   UNL     1       3.268  -0.198   0.000  0.00  0.00    +0.002 A 
ATOM     22  C   UNL     1       2.698  -0.794   0.000  0.00  0.00    +0.006 A 
ATOM     23  C   UNL     1       1.896  -0.599   0.000  0.00  0.00    +0.069 A 
ATOM     24  C   UNL     1       1.421  -1.274   0.000  0.00  0.00    +0.251 C 
ATOM     25  O   UNL     1       1.823  -1.994   0.000  0.00  0.00    -0.270 OA
ENDROOT
BRANCH  21  26
ATOM     26  C   UNL     1       4.069  -0.394   0.000  0.00  0.00    +0.028 A 
ATOM     27  C   UNL     1       4.639   0.203   0.000  0.00  0.00    +0.142 A 
ATOM     28  F   UNL     1       4.408   0.995   0.000  0.00  0.00    -0.204 F 
ATOM     29  C   UNL     1       5.441   0.007   0.000  0.00  0.00    +0.059 A 
ATOM     30  C   UNL     1       5.672  -0.785   0.000  0.00  0.00    +0.142 A 
ATOM     31  F   UNL     1       6.474  -0.981   0.000  0.00  0.00    -0.204 F 
ATOM     32  C   UNL     1       5.102  -1.381   0.000  0.00  0.00    +0.030 A 
ATOM     33  C   UNL     1       4.301  -1.186   0.000  0.00  0.00    +0.005 A 
ENDBRANCH  21  26
BRANCH  10   9
ATOM      7  C   UNL     1      -2.137  -1.045   0.000  0.00  0.00    +0.272 C 
ATOM      8  O   UNL     1      -2.137  -1.870   0.000  0.00  0.00    -0.271 OA
ATOM      9  N   UNL     1      -1.422  -0.633   0.000  0.00  0.00    -0.203 NA
BRANCH   7   6
ATOM      6  C   UNL     1      -2.851  -0.633   0.000  0.00  0.00    +0.229 C 
BRANCH   6   5
ATOM      5  O   UNL     1      -3.566  -1.045   0.000  0.00  0.00    -0.333 OA
BRANCH   5   4
ATOM      4  C   UNL     1      -4.280  -0.633   0.000  0.00  0.00    +0.257 C 
BRANCH   4   2
ATOM      1  O   UNL     1      -5.709  -0.633   0.000  0.00  0.00    -0.243 OA
ATOM      2  C   UNL     1      -4.995  -1.045   0.000  0.00  0.00    +0.394 C 
ATOM      3  O   UNL     1      -4.995  -1.870   0.000  0.00  0.00    -0.243 OA
ENDBRANCH   4   2
ENDBRANCH   5   4
ENDBRANCH   6   5
ENDBRANCH   7   6
ENDBRANCH  10   9
TORSDOF 6
