REMARK  Name = 
REMARK  7 active torsions:
REMARK  status: ('A' for Active; 'I' for Inactive)
REMARK    1  A    between atoms: C_3  and  C_4
REMARK    2  A    between atoms: C_4  and  N_5
REMARK    3  A    between atoms: N_5  and  S_6
REMARK    4  A    between atoms: S_6  and  C_9
REMARK    5  A    between atoms: C_17  and  N_18
REMARK    6  A    between atoms: N_18  and  C_19
REMARK    7  A    between atoms: C_19  and  C_20
REMARK                            x       y       z     vdW  Elec       q    Type
REMARK                         _______ _______ _______ _____ _____    ______ ____
ROOT
ATOM      1  O   UNL     1       0.000  -2.475   0.000  0.00  0.00    -0.219 OA
ATOM      2  C   UNL     1       0.000  -3.300   0.000  0.00  0.00    +0.199 C 
ATOM      3  C   UNL     1       0.667  -3.785   0.000  0.00  0.00    +0.166 C 
ATOM     15  O   UNL     1       0.412  -4.569   0.000  0.00  0.00    -0.350 OA
ATOM     16  C   UNL     1      -0.412  -4.569   0.000  0.00  0.00    +0.162 C 
ATOM     17  C   UNL     1      -0.667  -3.785   0.000  0.00  0.00    +0.135 C 
ENDROOT
BRANCH   3   4
ATOM      4  C   UNL     1       1.452  -3.530   0.000  0.00  0.00    +0.148 C 
BRANCH   4   5
ATOM      5  N   UNL     1       2.065  -4.082   0.000  0.00  0.00    -0.075 NA
BRANCH   5   6
ATOM      6  S   UNL     1       2.850  -3.827   0.000  0.00  0.00    +0.077 S 
ATOM      7  O   UNL     1       2.595  -3.042   0.000  0.00  0.00    -0.152 OA
ATOM      8  O   UNL     1       3.105  -4.612   0.000  0.00  0.00    -0.152 OA
BRANCH   6   9
ATOM      9  C   UNL     1       3.634  -3.572   0.000  0.00  0.00    +0.124 A 
ATOM     10  C   UNL     1       3.806  -2.765   0.000  0.00  0.00    +0.020 A 
ATOM     11  C   UNL     1       4.590  -2.510   0.000  0.00  0.00    +0.001 A 
ATOM     12  C   UNL     1       5.204  -3.062   0.000  0.00  0.00    +0.000 A 
ATOM     13  C   UNL     1       5.032  -3.869   0.000  0.00  0.00    +0.001 A 
ATOM     14  C   UNL     1       4.247  -4.124   0.000  0.00  0.00    +0.020 A 
ENDBRANCH   6   9
ENDBRANCH   5   6
ENDBRANCH   4   5
ENDBRANCH   3   4
BRANCH  17  18
ATOM     18  N   UNL     1      -1.452  -3.530   0.000  0.00  0.00    -0.209 NA
BRANCH  18  19
ATOM     19  C   UNL     1      -2.065  -4.082   0.000  0.00  0.00    +0.122 C 
BRANCH  19  20
ATOM     20  C   UNL     1      -2.850  -3.827   0.000  0.00  0.00    +0.025 A 
ATOM     21  C   UNL     1      -3.517  -4.312   0.000  0.00  0.00    +0.004 A 
ATOM     22  C   UNL     1      -4.185  -3.827   0.000  0.00  0.00    +0.007 A 
ATOM     23  C   UNL     1      -3.930  -3.042   0.000  0.00  0.00    +0.035 A 
ATOM     24  S   UNL     1      -3.105  -3.042   0.000  0.00  0.00    -0.089 S 
ENDBRANCH  19  20
ENDBRANCH  18  19
ENDBRANCH  17  18
TORSDOF 7
