MODEL 1
REMARK VINA RESULT:     -11.6      0.000      0.000
REMARK  Name = 
REMARK  6 active torsions:
REMARK  status: ('A' for Active; 'I' for Inactive)
REMARK    1  A    between atoms: C_5  and  S_8
REMARK    2  A    between atoms: S_8  and  C_11
REMARK    3  A    between atoms: C_11  and  C_12
REMARK    4  A    between atoms: C_15  and  C_17
REMARK    5  A    between atoms: N_22  and  C_23
REMARK    6  A    between atoms: C_23  and  C_24
REMARK                            x       y       z     vdW  Elec       q    Type
REMARK                         _______ _______ _______ _____ _____    ______ ____
ROOT
ATOM     12  C   UNL     1      -3.089   1.350  24.472  0.00  0.00    +0.205 A 
ATOM     13  N   UNL     1      -2.765   1.587  23.751  0.00  0.00    -0.059 NA
ATOM     14  O   UNL     1      -2.068   1.999  23.907  0.00  0.00    -0.336 OA
ATOM     15  C   UNL     1      -1.960   2.017  24.725  0.00  0.00    +0.251 A 
ATOM     16  N   UNL     1      -2.591   1.616  25.074  0.00  0.00    -0.192 NA
ENDROOT
BRANCH  15  17
ATOM     17  C   UNL     1      -1.332   2.373  25.124  0.00  0.00    +0.140 C 
ATOM     18  C   UNL     1      -0.699   1.981  25.479  0.00  0.00    +0.060 C 
ATOM     19  C   UNL     1      -0.202   2.548  25.812  0.00  0.00    +0.170 C 
ATOM     20  O   UNL     1       0.498   2.400  26.223  0.00  0.00    -0.222 OA
ATOM     21  C   UNL     1      -0.528   3.292  25.664  0.00  0.00    +0.106 C 
ATOM     22  N   UNL     1      -1.227   3.183  25.238  0.00  0.00    -0.264 NA
BRANCH  22  23
ATOM     23  C   UNL     1      -1.731   3.780  24.973  0.00  0.00    +0.073 C 
BRANCH  23  24
ATOM     24  C   UNL     1      -1.497   4.570  25.024  0.00  0.00    +0.016 C 
ATOM     25  C   UNL     1      -1.651   5.347  25.256  0.00  0.00    +0.001 C 
ATOM     26  C   UNL     1      -0.940   5.161  24.881  0.00  0.00    +0.001 C 
ENDBRANCH  23  24
ENDBRANCH  22  23
ENDBRANCH  15  17
BRANCH  12  11
ATOM     11  C   UNL     1      -3.786   0.923  24.573  0.00  0.00    +0.224 C 
BRANCH  11   8
ATOM      8  S   UNL     1      -3.774   0.098  24.549  0.00  0.00    +0.016 S 
ATOM      9  O   UNL     1      -3.741   0.122  23.725  0.00  0.00    -0.168 OA
ATOM     10  O   UNL     1      -3.807   0.075  25.373  0.00  0.00    -0.168 OA
BRANCH   8   5
ATOM      1  C   UNL     1      -3.723  -3.200  24.459  0.00  0.00    +0.031 C 
ATOM      2  C   UNL     1      -3.736  -2.375  24.481  0.00  0.00    -0.022 A 
ATOM      3  C   UNL     1      -4.121  -1.952  23.886  0.00  0.00    -0.003 A 
ATOM      4  C   UNL     1      -4.134  -1.128  23.909  0.00  0.00    +0.018 A 
ATOM      5  C   UNL     1      -3.761  -0.726  24.526  0.00  0.00    +0.106 A 
ATOM      6  C   UNL     1      -3.376  -1.149  25.120  0.00  0.00    +0.018 A 
ATOM      7  C   UNL     1      -3.363  -1.974  25.098  0.00  0.00    -0.003 A 
ENDBRANCH   8   5
ENDBRANCH  11   8
ENDBRANCH  12  11
TORSDOF 6
ENDMDL
MODEL 2
REMARK VINA RESULT:     -11.6      1.016      1.674
REMARK  Name = 
REMARK  6 active torsions:
REMARK  status: ('A' for Active; 'I' for Inactive)
REMARK    1  A    between atoms: C_5  and  S_8
REMARK    2  A    between atoms: S_8  and  C_11
REMARK    3  A    between atoms: C_11  and  C_12
REMARK    4  A    between atoms: C_15  and  C_17
REMARK    5  A    between atoms: N_22  and  C_23
REMARK    6  A    between atoms: C_23  and  C_24
REMARK                            x       y       z     vdW  Elec       q    Type
REMARK                         _______ _______ _______ _____ _____    ______ ____
ROOT
ATOM     12  C   UNL     1      -3.840   1.660  24.431  0.00  0.00    +0.205 A 
ATOM     13  N   UNL     1      -3.509   1.818  23.692  0.00  0.00    -0.059 NA
ATOM     14  O   UNL     1      -2.957   2.424  23.784  0.00  0.00    -0.336 OA
ATOM     15  C   UNL     1      -2.947   2.641  24.579  0.00  0.00    +0.251 A 
ATOM     16  N   UNL     1      -3.492   2.169  24.979  0.00  0.00    -0.192 NA
ENDROOT
BRANCH  15  17
ATOM     17  C   UNL     1      -2.474   3.228  24.916  0.00  0.00    +0.140 C 
ATOM     18  C   UNL     1      -2.663   4.028  24.975  0.00  0.00    +0.060 C 
ATOM     19  C   UNL     1      -2.037   4.412  25.349  0.00  0.00    +0.170 C 
ATOM     20  O   UNL     1      -1.993   5.218  25.520  0.00  0.00    -0.222 OA
ATOM     21  C   UNL     1      -1.459   3.849  25.521  0.00  0.00    +0.106 C 
ATOM     22  N   UNL     1      -1.729   3.116  25.254  0.00  0.00    -0.264 NA
BRANCH  22  23
ATOM     23  C   UNL     1      -1.327   2.399  25.313  0.00  0.00    +0.073 C 
BRANCH  23  24
ATOM     24  C   UNL     1      -0.590   2.370  25.683  0.00  0.00    +0.016 C 
ATOM     25  C   UNL     1       0.232   2.298  25.636  0.00  0.00    +0.001 C 
ATOM     26  C   UNL     1      -0.133   2.391  26.370  0.00  0.00    +0.001 C 
ENDBRANCH  23  24
ENDBRANCH  22  23
ENDBRANCH  15  17
BRANCH  12  11
ATOM     11  C   UNL     1      -4.417   1.094  24.593  0.00  0.00    +0.224 C 
BRANCH  11   8
ATOM      8  S   UNL     1      -4.209   0.298  24.654  0.00  0.00    +0.016 S 
ATOM      9  O   UNL     1      -4.073   0.269  23.841  0.00  0.00    -0.168 OA
ATOM     10  O   UNL     1      -4.344   0.326  25.468  0.00  0.00    -0.168 OA
BRANCH   8   5
ATOM      1  C   UNL     1      -3.377  -2.886  24.905  0.00  0.00    +0.031 C 
ATOM      2  C   UNL     1      -3.585  -2.090  24.843  0.00  0.00    -0.022 A 
ATOM      3  C   UNL     1      -3.973  -1.817  24.167  0.00  0.00    -0.003 A 
ATOM      4  C   UNL     1      -4.181  -1.021  24.104  0.00  0.00    +0.018 A 
ATOM      5  C   UNL     1      -4.001  -0.498  24.717  0.00  0.00    +0.106 A 
ATOM      6  C   UNL     1      -3.613  -0.772  25.392  0.00  0.00    +0.018 A 
ATOM      7  C   UNL     1      -3.406  -1.567  25.454  0.00  0.00    -0.003 A 
ENDBRANCH   8   5
ENDBRANCH  11   8
ENDBRANCH  12  11
TORSDOF 6
ENDMDL
MODEL 3
REMARK VINA RESULT:     -11.1      1.650      2.118
REMARK  Name = 
REMARK  6 active torsions:
REMARK  status: ('A' for Active; 'I' for Inactive)
REMARK    1  A    between atoms: C_5  and  S_8
REMARK    2  A    between atoms: S_8  and  C_11
REMARK    3  A    between atoms: C_11  and  C_12
REMARK    4  A    between atoms: C_15  and  C_17
REMARK    5  A    between atoms: N_22  and  C_23
REMARK    6  A    between atoms: C_23  and  C_24
REMARK                            x       y       z     vdW  Elec       q    Type
REMARK                         _______ _______ _______ _____ _____    ______ ____
ROOT
ATOM     12  C   UNL     1      -1.105   0.988  24.858  0.00  0.00    +0.205 A 
ATOM     13  N   UNL     1      -1.075   1.179  24.056  0.00  0.00    -0.059 NA
ATOM     14  O   UNL     1      -1.279   1.974  23.975  0.00  0.00    -0.336 OA
ATOM     15  C   UNL     1      -1.436   2.275  24.726  0.00  0.00    +0.251 A 
ATOM     16  N   UNL     1      -1.329   1.666  25.272  0.00  0.00    -0.192 NA
ENDROOT
BRANCH  15  17
ATOM     17  C   UNL     1      -1.661   3.049  24.901  0.00  0.00    +0.140 C 
ATOM     18  C   UNL     1      -1.151   3.684  25.034  0.00  0.00    +0.060 C 
ATOM     19  C   UNL     1      -1.609   4.351  25.190  0.00  0.00    +0.170 C 
ATOM     20  O   UNL     1      -1.325   5.108  25.353  0.00  0.00    -0.222 OA
ATOM     21  C   UNL     1      -2.403   4.130  25.153  0.00  0.00    +0.106 C 
ATOM     22  N   UNL     1      -2.435   3.324  24.975  0.00  0.00    -0.264 NA
BRANCH  22  23
ATOM     23  C   UNL     1      -3.121   2.875  24.885  0.00  0.00    +0.073 C 
BRANCH  23  24
ATOM     24  C   UNL     1      -3.855   3.201  25.072  0.00  0.00    +0.016 C 
ATOM     25  C   UNL     1      -4.601   3.464  24.835  0.00  0.00    +0.001 C 
ATOM     26  C   UNL     1      -4.382   3.504  25.629  0.00  0.00    +0.001 C 
ENDBRANCH  23  24
ENDBRANCH  22  23
ENDBRANCH  15  17
BRANCH  12  11
ATOM     11  C   UNL     1      -0.942   0.250  25.187  0.00  0.00    +0.224 C 
BRANCH  11   8
ATOM      8  S   UNL     1      -1.470  -0.375  25.083  0.00  0.00    +0.016 S 
ATOM      9  O   UNL     1      -1.144  -0.529  24.341  0.00  0.00    -0.168 OA
ATOM     10  O   UNL     1      -1.796  -0.222  25.826  0.00  0.00    -0.168 OA
BRANCH   8   5
ATOM      1  C   UNL     1      -3.583  -2.876  24.673  0.00  0.00    +0.031 C 
ATOM      2  C   UNL     1      -3.055  -2.251  24.776  0.00  0.00    -0.022 A 
ATOM      3  C   UNL     1      -2.267  -2.334  24.542  0.00  0.00    -0.003 A 
ATOM      4  C   UNL     1      -1.739  -1.709  24.645  0.00  0.00    +0.018 A 
ATOM      5  C   UNL     1      -1.998  -1.000  24.981  0.00  0.00    +0.106 A 
ATOM      6  C   UNL     1      -2.785  -0.918  25.213  0.00  0.00    +0.018 A 
ATOM      7  C   UNL     1      -3.313  -1.543  25.111  0.00  0.00    -0.003 A 
ENDBRANCH   8   5
ENDBRANCH  11   8
ENDBRANCH  12  11
TORSDOF 6
ENDMDL
MODEL 4
REMARK VINA RESULT:     -10.9      1.813      5.066
REMARK  Name = 
REMARK  6 active torsions:
REMARK  status: ('A' for Active; 'I' for Inactive)
REMARK    1  A    between atoms: C_5  and  S_8
REMARK    2  A    between atoms: S_8  and  C_11
REMARK    3  A    between atoms: C_11  and  C_12
REMARK    4  A    between atoms: C_15  and  C_17
REMARK    5  A    between atoms: N_22  and  C_23
REMARK    6  A    between atoms: C_23  and  C_24
REMARK                            x       y       z     vdW  Elec       q    Type
REMARK                         _______ _______ _______ _____ _____    ______ ____
ROOT
ATOM     12  C   UNL     1      -0.366   1.203  24.924  0.00  0.00    +0.205 A 
ATOM     13  N   UNL     1      -0.283   1.103  24.109  0.00  0.00    -0.059 NA
ATOM     14  O   UNL     1      -0.654   0.397  23.900  0.00  0.00    -0.336 OA
ATOM     15  C   UNL     1      -0.965   0.059  24.585  0.00  0.00    +0.251 A 
ATOM     16  N   UNL     1      -0.787   0.557  25.218  0.00  0.00    -0.192 NA
ENDROOT
BRANCH  15  17
ATOM     17  C   UNL     1      -1.382  -0.652  24.630  0.00  0.00    +0.140 C 
ATOM     18  C   UNL     1      -1.053  -1.400  24.738  0.00  0.00    +0.060 C 
ATOM     19  C   UNL     1      -1.667  -1.950  24.750  0.00  0.00    +0.170 C 
ATOM     20  O   UNL     1      -1.588  -2.765  24.846  0.00  0.00    -0.222 OA
ATOM     21  C   UNL     1      -2.377  -1.541  24.648  0.00  0.00    +0.106 C 
ATOM     22  N   UNL     1      -2.201  -0.738  24.574  0.00  0.00    -0.264 NA
BRANCH  22  23
ATOM     23  C   UNL     1      -2.746  -0.130  24.463  0.00  0.00    +0.073 C 
BRANCH  23  24
ATOM     24  C   UNL     1      -3.555  -0.293  24.484  0.00  0.00    +0.016 C 
ATOM     25  C   UNL     1      -4.295  -0.195  24.837  0.00  0.00    +0.001 C 
ATOM     26  C   UNL     1      -4.216  -0.673  24.169  0.00  0.00    +0.001 C 
ENDBRANCH  23  24
ENDBRANCH  22  23
ENDBRANCH  15  17
BRANCH  12  11
ATOM     11  C   UNL     1      -0.077   1.836  25.366  0.00  0.00    +0.224 C 
BRANCH  11   8
ATOM      8  S   UNL     1      -0.456   2.568  25.336  0.00  0.00    +0.016 S 
ATOM      9  O   UNL     1      -0.087   2.731  24.617  0.00  0.00    -0.168 OA
ATOM     10  O   UNL     1      -0.826   2.405  26.056  0.00  0.00    -0.168 OA
BRANCH   8   5
ATOM      1  C   UNL     1      -1.974   5.495  25.219  0.00  0.00    +0.031 C 
ATOM      2  C   UNL     1      -1.595   4.764  25.249  0.00  0.00    -0.022 A 
ATOM      3  C   UNL     1      -0.845   4.674  24.914  0.00  0.00    -0.003 A 
ATOM      4  C   UNL     1      -0.466   3.942  24.944  0.00  0.00    +0.018 A 
ATOM      5  C   UNL     1      -0.835   3.300  25.307  0.00  0.00    +0.106 A 
ATOM      6  C   UNL     1      -1.584   3.390  25.640  0.00  0.00    +0.018 A 
ATOM      7  C   UNL     1      -1.964   4.122  25.611  0.00  0.00    -0.003 A 
ENDBRANCH   8   5
ENDBRANCH  11   8
ENDBRANCH  12  11
TORSDOF 6
ENDMDL
MODEL 5
REMARK VINA RESULT:     -10.9      1.687      4.954
REMARK  Name = 
REMARK  6 active torsions:
REMARK  status: ('A' for Active; 'I' for Inactive)
REMARK    1  A    between atoms: C_5  and  S_8
REMARK    2  A    between atoms: S_8  and  C_11
REMARK    3  A    between atoms: C_11  and  C_12
REMARK    4  A    between atoms: C_15  and  C_17
REMARK    5  A    between atoms: N_22  and  C_23
REMARK    6  A    between atoms: C_23  and  C_24
REMARK                            x       y       z     vdW  Elec       q    Type
REMARK                         _______ _______ _______ _____ _____    ______ ____
ROOT
ATOM     12  C   UNL     1      -4.295   1.261  24.623  0.00  0.00    +0.205 A 
ATOM     13  N   UNL     1      -4.606   1.005  25.343  0.00  0.00    -0.059 NA
ATOM     14  O   UNL     1      -4.469   0.194  25.406  0.00  0.00    -0.336 OA
ATOM     15  C   UNL     1      -4.075  -0.052  24.724  0.00  0.00    +0.251 A 
ATOM     16  N   UNL     1      -3.968   0.607  24.241  0.00  0.00    -0.192 NA
ENDROOT
BRANCH  15  17
ATOM     17  C   UNL     1      -3.831  -0.822  24.556  0.00  0.00    +0.140 C 
ATOM     18  C   UNL     1      -4.283  -1.403  24.183  0.00  0.00    +0.060 C 
ATOM     19  C   UNL     1      -3.824  -2.085  24.127  0.00  0.00    +0.170 C 
ATOM     20  O   UNL     1      -4.058  -2.802  23.792  0.00  0.00    -0.222 OA
ATOM     21  C   UNL     1      -3.088  -1.927  24.465  0.00  0.00    +0.106 C 
ATOM     22  N   UNL     1      -3.092  -1.145  24.730  0.00  0.00    -0.264 NA
BRANCH  22  23
ATOM     23  C   UNL     1      -2.468  -0.757  25.103  0.00  0.00    +0.073 C 
BRANCH  23  24
ATOM     24  C   UNL     1      -1.706  -1.069  25.065  0.00  0.00    +0.016 C 
ATOM     25  C   UNL     1      -1.053  -1.409  25.439  0.00  0.00    +0.001 C 
ATOM     26  C   UNL     1      -1.037  -1.272  24.626  0.00  0.00    +0.001 C 
ENDBRANCH  23  24
ENDBRANCH  22  23
ENDBRANCH  15  17
BRANCH  12  11
ATOM     11  C   UNL     1      -4.311   2.034  24.336  0.00  0.00    +0.224 C 
BRANCH  11   8
ATOM      8  S   UNL     1      -3.704   2.558  24.528  0.00  0.00    +0.016 S 
ATOM      9  O   UNL     1      -4.054   2.696  25.263  0.00  0.00    -0.168 OA
ATOM     10  O   UNL     1      -3.353   2.421  23.794  0.00  0.00    -0.168 OA
BRANCH   8   5
ATOM      1  C   UNL     1      -1.274   4.656  25.293  0.00  0.00    +0.031 C 
ATOM      2  C   UNL     1      -1.882   4.131  25.102  0.00  0.00    -0.022 A 
ATOM      3  C   UNL     1      -2.646   4.267  25.382  0.00  0.00    -0.003 A 
ATOM      4  C   UNL     1      -3.254   3.742  25.190  0.00  0.00    +0.018 A 
ATOM      5  C   UNL     1      -3.097   3.083  24.720  0.00  0.00    +0.106 A 
ATOM      6  C   UNL     1      -2.332   2.948  24.441  0.00  0.00    +0.018 A 
ATOM      7  C   UNL     1      -1.725   3.473  24.632  0.00  0.00    -0.003 A 
ENDBRANCH   8   5
ENDBRANCH  11   8
ENDBRANCH  12  11
TORSDOF 6
ENDMDL
MODEL 6
REMARK VINA RESULT:     -10.6      1.962      2.885
REMARK  Name = 
REMARK  6 active torsions:
REMARK  status: ('A' for Active; 'I' for Inactive)
REMARK    1  A    between atoms: C_5  and  S_8
REMARK    2  A    between atoms: S_8  and  C_11
REMARK    3  A    between atoms: C_11  and  C_12
REMARK    4  A    between atoms: C_15  and  C_17
REMARK    5  A    between atoms: N_22  and  C_23
REMARK    6  A    between atoms: C_23  and  C_24
REMARK                            x       y       z     vdW  Elec       q    Type
REMARK                         _______ _______ _______ _____ _____    ______ ____
ROOT
ATOM     12  C   UNL     1      -4.172   0.368  24.738  0.00  0.00    +0.205 A 
ATOM     13  N   UNL     1      -4.091   0.681  23.979  0.00  0.00    -0.059 NA
ATOM     14  O   UNL     1      -4.253   1.489  24.018  0.00  0.00    -0.336 OA
ATOM     15  C   UNL     1      -4.434   1.676  24.800  0.00  0.00    +0.251 A 
ATOM     16  N   UNL     1      -4.384   0.983  25.245  0.00  0.00    -0.192 NA
ENDROOT
BRANCH  15  17
ATOM     17  C   UNL     1      -4.631   2.423  25.088  0.00  0.00    +0.140 C 
ATOM     18  C   UNL     1      -5.391   2.690  25.265  0.00  0.00    +0.060 C 
ATOM     19  C   UNL     1      -5.332   3.466  25.536  0.00  0.00    +0.170 C 
ATOM     20  O   UNL     1      -5.960   3.946  25.775  0.00  0.00    -0.222 OA
ATOM     21  C   UNL     1      -4.536   3.681  25.526  0.00  0.00    +0.106 C 
ATOM     22  N   UNL     1      -4.101   3.036  25.249  0.00  0.00    -0.264 NA
BRANCH  22  23
ATOM     23  C   UNL     1      -3.283   3.008  25.151  0.00  0.00    +0.073 C 
BRANCH  23  24
ATOM     24  C   UNL     1      -2.814   3.628  25.427  0.00  0.00    +0.016 C 
ATOM     25  C   UNL     1      -2.286   4.245  25.280  0.00  0.00    +0.001 C 
ATOM     26  C   UNL     1      -2.528   4.084  26.052  0.00  0.00    +0.001 C 
ENDBRANCH  23  24
ENDBRANCH  22  23
ENDBRANCH  15  17
BRANCH  12  11
ATOM     11  C   UNL     1      -4.061  -0.421  24.951  0.00  0.00    +0.224 C 
BRANCH  11   8
ATOM      8  S   UNL     1      -3.298  -0.730  25.007  0.00  0.00    +0.016 S 
ATOM      9  O   UNL     1      -3.278  -0.832  24.189  0.00  0.00    -0.168 OA
ATOM     10  O   UNL     1      -3.318  -0.629  25.826  0.00  0.00    -0.168 OA
BRANCH   8   5
ATOM      1  C   UNL     1      -0.249  -1.969  25.237  0.00  0.00    +0.031 C 
ATOM      2  C   UNL     1      -1.011  -1.659  25.179  0.00  0.00    -0.022 A 
ATOM      3  C   UNL     1      -1.198  -0.950  25.558  0.00  0.00    -0.003 A 
ATOM      4  C   UNL     1      -1.960  -0.641  25.501  0.00  0.00    +0.018 A 
ATOM      5  C   UNL     1      -2.536  -1.040  25.065  0.00  0.00    +0.106 A 
ATOM      6  C   UNL     1      -2.349  -1.748  24.686  0.00  0.00    +0.018 A 
ATOM      7  C   UNL     1      -1.586  -2.058  24.744  0.00  0.00    -0.003 A 
ENDBRANCH   8   5
ENDBRANCH  11   8
ENDBRANCH  12  11
TORSDOF 6
ENDMDL
MODEL 7
REMARK VINA RESULT:     -10.3      2.142      3.937
REMARK  Name = 
REMARK  6 active torsions:
REMARK  status: ('A' for Active; 'I' for Inactive)
REMARK    1  A    between atoms: C_5  and  S_8
REMARK    2  A    between atoms: S_8  and  C_11
REMARK    3  A    between atoms: C_11  and  C_12
REMARK    4  A    between atoms: C_15  and  C_17
REMARK    5  A    between atoms: N_22  and  C_23
REMARK    6  A    between atoms: C_23  and  C_24
REMARK                            x       y       z     vdW  Elec       q    Type
REMARK                         _______ _______ _______ _____ _____    ______ ____
ROOT
ATOM     12  C   UNL     1      -1.810   2.341  24.549  0.00  0.00    +0.205 A 
ATOM     13  N   UNL     1      -1.383   2.303  25.255  0.00  0.00    -0.059 NA
ATOM     14  O   UNL     1      -0.834   1.692  25.188  0.00  0.00    -0.336 OA
ATOM     15  C   UNL     1      -0.920   1.351  24.442  0.00  0.00    +0.251 A 
ATOM     16  N   UNL     1      -1.523   1.752  24.047  0.00  0.00    -0.192 NA
ENDROOT
BRANCH  15  17
ATOM     17  C   UNL     1      -0.481   0.720  24.143  0.00  0.00    +0.140 C 
ATOM     18  C   UNL     1       0.158   0.777  23.624  0.00  0.00    +0.060 C 
ATOM     19  C   UNL     1       0.430   0.014  23.470  0.00  0.00    +0.170 C 
ATOM     20  O   UNL     1       1.062  -0.186  22.979  0.00  0.00    -0.222 OA
ATOM     21  C   UNL     1      -0.040  -0.515  23.893  0.00  0.00    +0.106 C 
ATOM     22  N   UNL     1      -0.604  -0.079  24.309  0.00  0.00    -0.264 NA
BRANCH  22  23
ATOM     23  C   UNL     1      -1.187  -0.387  24.804  0.00  0.00    +0.073 C 
BRANCH  23  24
ATOM     24  C   UNL     1      -1.315  -1.201  24.833  0.00  0.00    +0.016 C 
ATOM     25  C   UNL     1      -1.792  -1.856  24.672  0.00  0.00    +0.001 C 
ATOM     26  C   UNL     1      -1.062  -1.958  25.043  0.00  0.00    +0.001 C 
ENDBRANCH  23  24
ENDBRANCH  22  23
ENDBRANCH  15  17
BRANCH  12  11
ATOM     11  C   UNL     1      -2.415   2.873  24.377  0.00  0.00    +0.224 C 
BRANCH  11   8
ATOM      8  S   UNL     1      -3.195   2.690  24.572  0.00  0.00    +0.016 S 
ATOM      9  O   UNL     1      -3.330   2.434  23.800  0.00  0.00    -0.168 OA
ATOM     10  O   UNL     1      -3.061   2.946  25.346  0.00  0.00    -0.168 OA
BRANCH   8   5
ATOM      1  C   UNL     1      -6.315   1.957  25.359  0.00  0.00    +0.031 C 
ATOM      2  C   UNL     1      -5.535   2.141  25.163  0.00  0.00    -0.022 A 
ATOM      3  C   UNL     1      -5.060   1.576  24.792  0.00  0.00    -0.003 A 
ATOM      4  C   UNL     1      -4.280   1.759  24.596  0.00  0.00    +0.018 A 
ATOM      5  C   UNL     1      -3.975   2.507  24.769  0.00  0.00    +0.106 A 
ATOM      6  C   UNL     1      -4.451   3.070  25.139  0.00  0.00    +0.018 A 
ATOM      7  C   UNL     1      -5.230   2.887  25.336  0.00  0.00    -0.003 A 
ENDBRANCH   8   5
ENDBRANCH  11   8
ENDBRANCH  12  11
TORSDOF 6
ENDMDL
