MODEL 1
REMARK VINA RESULT:     -14.2      0.000      0.000
REMARK  Name = 
REMARK  5 active torsions:
REMARK  status: ('A' for Active; 'I' for Inactive)
REMARK    1  A    between atoms: N_4  and  C_5
REMARK    2  A    between atoms: C_8  and  S_11
REMARK    3  A    between atoms: S_11  and  N_14
REMARK    4  A    between atoms: C_23  and  C_24
REMARK    5  A    between atoms: C_25  and  C_26
REMARK                            x       y       z     vdW  Elec       q    Type
REMARK                         _______ _______ _______ _____ _____    ______ ____
ROOT
ATOM     14  N   UNL     1      -1.709  -0.914  24.882  0.00  0.00    -0.155 NA
ATOM     15  C   UNL     1      -1.314  -1.639  24.754  0.00  0.00    +0.098 C 
ATOM     16  C   UNL     1      -2.080  -2.197  24.472  0.00  0.00    +0.041 C 
ATOM     17  C   UNL     1      -2.593  -2.779  24.227  0.00  0.00    +0.011 C 
ATOM     18  C   UNL     1      -2.625  -2.101  24.404  0.00  0.00    +0.056 C 
ATOM     19  C   UNL     1      -1.875  -1.575  24.675  0.00  0.00    +0.102 C 
ATOM     20  C   UNL     1      -3.219  -1.405  24.489  0.00  0.00    +0.041 A 
ATOM     21  C   UNL     1      -4.020  -1.232  24.398  0.00  0.00    +0.013 A 
ATOM     22  C   UNL     1      -4.298  -0.472  24.555  0.00  0.00    +0.006 A 
ATOM     23  C   UNL     1      -3.775   0.116  24.803  0.00  0.00    +0.056 A 
ATOM     33  C   UNL     1      -2.974  -0.057  24.895  0.00  0.00    +0.261 A 
ATOM     34  O   UNL     1      -2.344   0.592  25.178  0.00  0.00    -0.267 OA
ATOM     35  N   UNL     1      -2.696  -0.817  24.738  0.00  0.00    -0.299 N 
ATOM     36  C   UNL     1      -2.693  -1.464  24.564  0.00  0.00    +0.110 C 
ENDROOT
BRANCH  14  11
ATOM     11  S   UNL     1      -1.675  -0.075  25.113  0.00  0.00    +0.063 S 
ATOM     12  O   UNL     1      -2.042   0.579  25.597  0.00  0.00    -0.153 OA
ATOM     13  O   UNL     1      -2.402  -0.297  25.605  0.00  0.00    -0.153 OA
BRANCH  11   8
ATOM      5  C   UNL     1       0.442  -0.321  23.623  0.00  0.00    +0.073 A 
ATOM      6  C   UNL     1      -0.308   0.027  23.226  0.00  0.00    +0.018 A 
ATOM      7  C   UNL     1      -0.863   0.077  23.668  0.00  0.00    +0.021 A 
ATOM      8  C   UNL     1      -0.917  -0.143  24.508  0.00  0.00    +0.122 A 
ATOM      9  C   UNL     1      -0.210  -0.448  24.803  0.00  0.00    +0.021 A 
ATOM     10  C   UNL     1       0.448  -0.516  24.311  0.00  0.00    +0.018 A 
BRANCH   5   4
ATOM      1  C   UNL     1       2.483   0.113  22.653  0.00  0.00    +0.097 C 
ATOM      2  C   UNL     1       1.788  -0.157  22.303  0.00  0.00    +0.246 C 
ATOM      3  O   UNL     1       1.766  -0.310  21.492  0.00  0.00    -0.273 OA
ATOM      4  N   UNL     1       1.065  -0.284  22.796  0.00  0.00    -0.179 NA
ENDBRANCH   5   4
ENDBRANCH  11   8
ENDBRANCH  14  11
BRANCH  23  24
ATOM     24  C   UNL     1      -4.386   0.879  24.903  0.00  0.00    +0.005 C 
ATOM     25  C   UNL     1      -5.194   0.994  25.085  0.00  0.00    +0.000 C 
BRANCH  25  26
ATOM     26  C   UNL     1      -5.134   1.810  25.026  0.00  0.00    +0.000 A 
ATOM     27  C   UNL     1      -4.775   2.433  24.622  0.00  0.00    +0.001 A 
ATOM     28  C   UNL     1      -4.946   3.213  24.830  0.00  0.00    +0.011 A 
ATOM     29  C   UNL     1      -5.477   3.369  25.443  0.00  0.00    +0.058 A 
ATOM     30 CL   UNL     1      -5.703   4.135  25.713  0.00  0.00    -0.082 Cl
ATOM     31  C   UNL     1      -5.836   2.746  25.846  0.00  0.00    +0.011 A 
ATOM     32  C   UNL     1      -5.664   1.967  25.638  0.00  0.00    +0.001 A 
ENDBRANCH  25  26
ENDBRANCH  23  24
TORSDOF 5
ENDMDL
MODEL 2
REMARK VINA RESULT:     -13.6      2.892      4.593
REMARK  Name = 
REMARK  5 active torsions:
REMARK  status: ('A' for Active; 'I' for Inactive)
REMARK    1  A    between atoms: N_4  and  C_5
REMARK    2  A    between atoms: C_8  and  S_11
REMARK    3  A    between atoms: S_11  and  N_14
REMARK    4  A    between atoms: C_23  and  C_24
REMARK    5  A    between atoms: C_25  and  C_26
REMARK                            x       y       z     vdW  Elec       q    Type
REMARK                         _______ _______ _______ _____ _____    ______ ____
ROOT
ATOM     14  N   UNL     1      -4.584   1.328  24.484  0.00  0.00    -0.155 NA
ATOM     15  C   UNL     1      -5.280   0.870  24.547  0.00  0.00    +0.098 C 
ATOM     16  C   UNL     1      -5.761   1.392  25.234  0.00  0.00    +0.041 C 
ATOM     17  C   UNL     1      -6.278   1.704  25.781  0.00  0.00    +0.011 C 
ATOM     18  C   UNL     1      -5.644   1.857  25.520  0.00  0.00    +0.056 C 
ATOM     19  C   UNL     1      -5.192   1.341  24.855  0.00  0.00    +0.102 C 
ATOM     20  C   UNL     1      -4.966   2.473  25.588  0.00  0.00    +0.041 A 
ATOM     21  C   UNL     1      -4.765   3.161  25.995  0.00  0.00    +0.013 A 
ATOM     22  C   UNL     1      -4.042   3.531  25.848  0.00  0.00    +0.006 A 
ATOM     23  C   UNL     1      -3.521   3.212  25.293  0.00  0.00    +0.056 A 
ATOM     33  C   UNL     1      -3.722   2.523  24.886  0.00  0.00    +0.261 A 
ATOM     34  O   UNL     1      -3.150   2.129  24.243  0.00  0.00    -0.267 OA
ATOM     35  N   UNL     1      -4.445   2.154  25.033  0.00  0.00    -0.299 N 
ATOM     36  C   UNL     1      -5.047   2.031  25.298  0.00  0.00    +0.110 C 
ENDROOT
BRANCH  14  11
ATOM     11  S   UNL     1      -3.805   1.457  24.118  0.00  0.00    +0.063 S 
ATOM     12  O   UNL     1      -3.242   2.044  23.752  0.00  0.00    -0.153 OA
ATOM     13  O   UNL     1      -4.094   2.313  24.067  0.00  0.00    -0.153 OA
BRANCH  11   8
ATOM      5  C   UNL     1      -3.812  -1.121  24.466  0.00  0.00    +0.073 A 
ATOM      6  C   UNL     1      -3.453  -0.611  25.138  0.00  0.00    +0.018 A 
ATOM      7  C   UNL     1      -3.471   0.086  25.003  0.00  0.00    +0.021 A 
ATOM      8  C   UNL     1      -3.780   0.502  24.304  0.00  0.00    +0.122 A 
ATOM      9  C   UNL     1      -4.088  -0.012  23.738  0.00  0.00    +0.021 A 
ATOM     10  C   UNL     1      -4.079  -0.826  23.872  0.00  0.00    +0.018 A 
BRANCH   5   4
ATOM      1  C   UNL     1      -3.444  -3.387  24.311  0.00  0.00    +0.097 C 
ATOM      2  C   UNL     1      -3.525  -2.918  24.984  0.00  0.00    +0.246 C 
ATOM      3  O   UNL     1      -3.475  -3.259  25.734  0.00  0.00    -0.273 OA
ATOM      4  N   UNL     1      -3.665  -2.049  24.902  0.00  0.00    -0.179 NA
ENDBRANCH   5   4
ENDBRANCH  11   8
ENDBRANCH  14  11
BRANCH  23  24
ATOM     24  C   UNL     1      -2.779   3.854  25.344  0.00  0.00    +0.005 C 
ATOM     25  C   UNL     1      -2.645   4.606  25.685  0.00  0.00    +0.000 C 
BRANCH  25  26
ATOM     26  C   UNL     1      -1.874   4.640  25.406  0.00  0.00    +0.000 A 
ATOM     27  C   UNL     1      -1.176   4.214  25.297  0.00  0.00    +0.001 A 
ATOM     28  C   UNL     1      -0.519   4.579  24.955  0.00  0.00    +0.011 A 
ATOM     29  C   UNL     1      -0.562   5.370  24.722  0.00  0.00    +0.058 A 
ATOM     30 CL   UNL     1       0.062   5.812  24.367  0.00  0.00    -0.082 Cl
ATOM     31  C   UNL     1      -1.260   5.795  24.832  0.00  0.00    +0.011 A 
ATOM     32  C   UNL     1      -1.916   5.431  25.174  0.00  0.00    +0.001 A 
ENDBRANCH  25  26
ENDBRANCH  23  24
TORSDOF 5
ENDMDL
MODEL 3
REMARK VINA RESULT:     -12.7      3.042      4.880
REMARK  Name = 
REMARK  5 active torsions:
REMARK  status: ('A' for Active; 'I' for Inactive)
REMARK    1  A    between atoms: N_4  and  C_5
REMARK    2  A    between atoms: C_8  and  S_11
REMARK    3  A    between atoms: S_11  and  N_14
REMARK    4  A    between atoms: C_23  and  C_24
REMARK    5  A    between atoms: C_25  and  C_26
REMARK                            x       y       z     vdW  Elec       q    Type
REMARK                         _______ _______ _______ _____ _____    ______ ____
ROOT
ATOM     14  N   UNL     1      -4.167   2.393  24.360  0.00  0.00    -0.155 NA
ATOM     15  C   UNL     1      -4.530   3.137  24.471  0.00  0.00    +0.098 C 
ATOM     16  C   UNL     1      -5.249   2.879  25.097  0.00  0.00    +0.041 C 
ATOM     17  C   UNL     1      -5.883   2.832  25.606  0.00  0.00    +0.011 C 
ATOM     18  C   UNL     1      -5.405   2.398  25.332  0.00  0.00    +0.056 C 
ATOM     19  C   UNL     1      -4.714   2.663  24.727  0.00  0.00    +0.102 C 
ATOM     20  C   UNL     1      -5.145   1.516  25.334  0.00  0.00    +0.041 A 
ATOM     21  C   UNL     1      -5.350   0.789  25.665  0.00  0.00    +0.013 A 
ATOM     22  C   UNL     1      -4.913   0.114  25.480  0.00  0.00    +0.006 A 
ATOM     23  C   UNL     1      -4.272   0.166  24.964  0.00  0.00    +0.056 A 
ATOM     33  C   UNL     1      -4.067   0.893  24.633  0.00  0.00    +0.261 A 
ATOM     34  O   UNL     1      -3.337   0.992  24.036  0.00  0.00    -0.267 OA
ATOM     35  N   UNL     1      -4.503   1.568  24.818  0.00  0.00    -0.299 N 
ATOM     36  C   UNL     1      -4.971   1.961  25.093  0.00  0.00    +0.110 C 
ENDROOT
BRANCH  14  11
ATOM     11  S   UNL     1      -3.545   1.914  23.984  0.00  0.00    +0.063 S 
ATOM     12  O   UNL     1      -3.345   1.156  23.558  0.00  0.00    -0.153 OA
ATOM     13  O   UNL     1      -4.230   1.339  23.841  0.00  0.00    -0.153 OA
BRANCH  11   8
ATOM      5  C   UNL     1      -2.120   3.906  24.859  0.00  0.00    +0.073 A 
ATOM      6  C   UNL     1      -2.740   4.091  24.210  0.00  0.00    +0.018 A 
ATOM      7  C   UNL     1      -3.107   3.520  24.000  0.00  0.00    +0.021 A 
ATOM      8  C   UNL     1      -3.043   2.697  24.271  0.00  0.00    +0.122 A 
ATOM      9  C   UNL     1      -2.468   2.596  24.854  0.00  0.00    +0.021 A 
ATOM     10  C   UNL     1      -2.029   3.244  25.115  0.00  0.00    +0.018 A 
BRANCH   5   4
ATOM      1  C   UNL     1      -0.395   5.427  24.768  0.00  0.00    +0.097 C 
ATOM      2  C   UNL     1      -1.182   5.544  24.983  0.00  0.00    +0.246 C 
ATOM      3  O   UNL     1      -1.442   6.296  25.205  0.00  0.00    -0.273 OA
ATOM      4  N   UNL     1      -1.749   4.866  24.974  0.00  0.00    -0.179 NA
ENDBRANCH   5   4
ENDBRANCH  11   8
ENDBRANCH  14  11
BRANCH  23  24
ATOM     24  C   UNL     1      -3.971  -0.769  24.946  0.00  0.00    +0.005 C 
ATOM     25  C   UNL     1      -3.722  -1.340  25.504  0.00  0.00    +0.000 C 
BRANCH  25  26
ATOM     26  C   UNL     1      -3.603  -1.911  24.926  0.00  0.00    +0.000 A 
ATOM     27  C   UNL     1      -3.947  -2.315  24.294  0.00  0.00    +0.001 A 
ATOM     28  C   UNL     1      -3.513  -2.884  23.883  0.00  0.00    +0.011 A 
ATOM     29  C   UNL     1      -2.735  -3.048  24.104  0.00  0.00    +0.058 A 
ATOM     30 CL   UNL     1      -2.228  -3.612  23.735  0.00  0.00    -0.082 Cl
ATOM     31  C   UNL     1      -2.391  -2.644  24.735  0.00  0.00    +0.011 A 
ATOM     32  C   UNL     1      -2.825  -2.076  25.147  0.00  0.00    +0.001 A 
ENDBRANCH  25  26
ENDBRANCH  23  24
TORSDOF 5
ENDMDL
MODEL 4
REMARK VINA RESULT:     -11.8      3.162      4.600
REMARK  Name = 
REMARK  5 active torsions:
REMARK  status: ('A' for Active; 'I' for Inactive)
REMARK    1  A    between atoms: N_4  and  C_5
REMARK    2  A    between atoms: C_8  and  S_11
REMARK    3  A    between atoms: S_11  and  N_14
REMARK    4  A    between atoms: C_23  and  C_24
REMARK    5  A    between atoms: C_25  and  C_26
REMARK                            x       y       z     vdW  Elec       q    Type
REMARK                         _______ _______ _______ _____ _____    ______ ____
ROOT
ATOM     14  N   UNL     1      -1.180   2.759  25.256  0.00  0.00    -0.155 NA
ATOM     15  C   UNL     1      -0.971   3.547  25.436  0.00  0.00    +0.098 C 
ATOM     16  C   UNL     1      -1.872   3.943  25.523  0.00  0.00    +0.041 C 
ATOM     17  C   UNL     1      -2.530   4.412  25.627  0.00  0.00    +0.011 C 
ATOM     18  C   UNL     1      -2.390   3.741  25.474  0.00  0.00    +0.056 C 
ATOM     19  C   UNL     1      -1.512   3.374  25.394  0.00  0.00    +0.102 C 
ATOM     20  C   UNL     1      -2.805   2.942  25.291  0.00  0.00    +0.041 A 
ATOM     21  C   UNL     1      -3.558   2.614  25.213  0.00  0.00    +0.013 A 
ATOM     22  C   UNL     1      -3.642   1.814  25.030  0.00  0.00    +0.006 A 
ATOM     23  C   UNL     1      -2.974   1.342  24.925  0.00  0.00    +0.056 A 
ATOM     33  C   UNL     1      -2.221   1.670  25.003  0.00  0.00    +0.261 A 
ATOM     34  O   UNL     1      -1.431   1.159  24.890  0.00  0.00    -0.267 OA
ATOM     35  N   UNL     1      -2.137   2.470  25.186  0.00  0.00    -0.299 N 
ATOM     36  C   UNL     1      -2.297   3.103  25.330  0.00  0.00    +0.110 C 
ENDROOT
BRANCH  14  11
ATOM     11  S   UNL     1      -0.935   1.944  25.071  0.00  0.00    +0.063 S 
ATOM     12  O   UNL     1      -1.039   1.239  24.535  0.00  0.00    -0.153 OA
ATOM     13  O   UNL     1      -1.540   2.032  24.403  0.00  0.00    -0.153 OA
BRANCH  11   8
ATOM      5  C   UNL     1       0.651   2.559  27.039  0.00  0.00    +0.073 A 
ATOM      6  C   UNL     1      -0.111   2.094  27.248  0.00  0.00    +0.018 A 
ATOM      7  C   UNL     1      -0.515   1.947  26.682  0.00  0.00    +0.021 A 
ATOM      8  C   UNL     1      -0.382   2.145  25.846  0.00  0.00    +0.122 A 
ATOM      9  C   UNL     1       0.319   2.563  25.725  0.00  0.00    +0.021 A 
ATOM     10  C   UNL     1       0.806   2.746  26.366  0.00  0.00    +0.018 A 
BRANCH   5   4
ATOM      1  C   UNL     1       2.397   2.933  28.490  0.00  0.00    +0.097 C 
ATOM      2  C   UNL     1       1.609   2.759  28.658  0.00  0.00    +0.246 C 
ATOM      3  O   UNL     1       1.358   2.698  29.442  0.00  0.00    -0.273 OA
ATOM      4  N   UNL     1       1.034   2.637  27.999  0.00  0.00    -0.179 NA
ENDBRANCH   5   4
ENDBRANCH  11   8
ENDBRANCH  14  11
BRANCH  23  24
ATOM     24  C   UNL     1      -3.389   0.474  24.725  0.00  0.00    +0.005 C 
ATOM     25  C   UNL     1      -4.025   0.194  24.261  0.00  0.00    +0.000 C 
BRANCH  25  26
ATOM     26  C   UNL     1      -3.897  -0.586  24.481  0.00  0.00    +0.000 A 
ATOM     27  C   UNL     1      -3.616  -1.081  25.078  0.00  0.00    +0.001 A 
ATOM     28  C   UNL     1      -3.627  -1.900  24.973  0.00  0.00    +0.011 A 
ATOM     29  C   UNL     1      -3.919  -2.222  24.272  0.00  0.00    +0.058 A 
ATOM     30 CL   UNL     1      -3.963  -3.044  24.090  0.00  0.00    -0.082 Cl
ATOM     31  C   UNL     1      -4.199  -1.727  23.676  0.00  0.00    +0.011 A 
ATOM     32  C   UNL     1      -4.188  -0.908  23.780  0.00  0.00    +0.001 A 
ENDBRANCH  25  26
ENDBRANCH  23  24
TORSDOF 5
ENDMDL
MODEL 5
REMARK VINA RESULT:     -11.5      1.891      2.897
REMARK  Name = 
REMARK  5 active torsions:
REMARK  status: ('A' for Active; 'I' for Inactive)
REMARK    1  A    between atoms: N_4  and  C_5
REMARK    2  A    between atoms: C_8  and  S_11
REMARK    3  A    between atoms: S_11  and  N_14
REMARK    4  A    between atoms: C_23  and  C_24
REMARK    5  A    between atoms: C_25  and  C_26
REMARK                            x       y       z     vdW  Elec       q    Type
REMARK                         _______ _______ _______ _____ _____    ______ ____
ROOT
ATOM     14  N   UNL     1      -0.718   1.430  25.297  0.00  0.00    -0.155 NA
ATOM     15  C   UNL     1       0.104   1.470  25.441  0.00  0.00    +0.098 C 
ATOM     16  C   UNL     1       0.175   2.409  25.739  0.00  0.00    +0.041 C 
ATOM     17  C   UNL     1       0.398   3.148  25.999  0.00  0.00    +0.011 C 
ATOM     18  C   UNL     1      -0.193   2.823  25.806  0.00  0.00    +0.056 C 
ATOM     19  C   UNL     1      -0.245   1.913  25.520  0.00  0.00    +0.102 C 
ATOM     20  C   UNL     1      -1.095   2.968  25.705  0.00  0.00    +0.041 A 
ATOM     21  C   UNL     1      -1.663   3.560  25.794  0.00  0.00    +0.013 A 
ATOM     22  C   UNL     1      -2.453   3.402  25.619  0.00  0.00    +0.006 A 
ATOM     23  C   UNL     1      -2.676   2.653  25.355  0.00  0.00    +0.056 A 
ATOM     33  C   UNL     1      -2.109   2.061  25.266  0.00  0.00    +0.261 A 
ATOM     34  O   UNL     1      -2.327   1.189  24.965  0.00  0.00    -0.267 OA
ATOM     35  N   UNL     1      -1.318   2.219  25.441  0.00  0.00    -0.299 N 
ATOM     36  C   UNL     1      -0.769   2.551  25.630  0.00  0.00    +0.110 C 
ENDROOT
BRANCH  14  11
ATOM     11  S   UNL     1      -1.411   0.966  25.045  0.00  0.00    +0.063 S 
ATOM     12  O   UNL     1      -2.274   0.786  25.178  0.00  0.00    -0.153 OA
ATOM     13  O   UNL     1      -1.818   1.420  25.714  0.00  0.00    -0.153 OA
BRANCH  11   8
ATOM      5  C   UNL     1       0.441  -0.002  23.496  0.00  0.00    +0.073 A 
ATOM      6  C   UNL     1       0.033   0.773  23.223  0.00  0.00    +0.018 A 
ATOM      7  C   UNL     1      -0.466   1.002  23.674  0.00  0.00    +0.021 A 
ATOM      8  C   UNL     1      -0.728   0.653  24.426  0.00  0.00    +0.122 A 
ATOM      9  C   UNL     1      -0.323  -0.040  24.614  0.00  0.00    +0.021 A 
ATOM     10  C   UNL     1       0.261  -0.327  24.107  0.00  0.00    +0.018 A 
BRANCH   5   4
ATOM      1  C   UNL     1       2.557   0.057  22.593  0.00  0.00    +0.097 C 
ATOM      2  C   UNL     1       1.840  -0.119  22.227  0.00  0.00    +0.246 C 
ATOM      3  O   UNL     1       1.822  -0.309  21.424  0.00  0.00    -0.273 OA
ATOM      4  N   UNL     1       1.090  -0.106  22.695  0.00  0.00    -0.179 NA
ENDBRANCH   5   4
ENDBRANCH  11   8
ENDBRANCH  14  11
BRANCH  23  24
ATOM     24  C   UNL     1      -3.644   2.777  25.237  0.00  0.00    +0.005 C 
ATOM     25  C   UNL     1      -4.145   3.228  24.743  0.00  0.00    +0.000 C 
BRANCH  25  26
ATOM     26  C   UNL     1      -4.826   2.930  25.092  0.00  0.00    +0.000 A 
ATOM     27  C   UNL     1      -5.273   2.905  25.785  0.00  0.00    +0.001 A 
ATOM     28  C   UNL     1      -5.976   2.471  25.806  0.00  0.00    +0.011 A 
ATOM     29  C   UNL     1      -6.229   2.063  25.135  0.00  0.00    +0.058 A 
ATOM     30 CL   UNL     1      -6.931   1.600  25.077  0.00  0.00    -0.082 Cl
ATOM     31  C   UNL     1      -5.781   2.089  24.443  0.00  0.00    +0.011 A 
ATOM     32  C   UNL     1      -5.079   2.522  24.422  0.00  0.00    +0.001 A 
ENDBRANCH  25  26
ENDBRANCH  23  24
TORSDOF 5
ENDMDL
MODEL 6
REMARK VINA RESULT:     -11.4      2.339      4.026
REMARK  Name = 
REMARK  5 active torsions:
REMARK  status: ('A' for Active; 'I' for Inactive)
REMARK    1  A    between atoms: N_4  and  C_5
REMARK    2  A    between atoms: C_8  and  S_11
REMARK    3  A    between atoms: S_11  and  N_14
REMARK    4  A    between atoms: C_23  and  C_24
REMARK    5  A    between atoms: C_25  and  C_26
REMARK                            x       y       z     vdW  Elec       q    Type
REMARK                         _______ _______ _______ _____ _____    ______ ____
ROOT
ATOM     14  N   UNL     1      -0.903  -0.253  24.960  0.00  0.00    -0.155 NA
ATOM     15  C   UNL     1      -0.681  -1.013  24.693  0.00  0.00    +0.098 C 
ATOM     16  C   UNL     1      -0.028  -0.759  23.996  0.00  0.00    +0.041 C 
ATOM     17  C   UNL     1       0.524  -0.718  23.399  0.00  0.00    +0.011 C 
ATOM     18  C   UNL     1       0.164  -0.272  23.804  0.00  0.00    +0.056 C 
ATOM     19  C   UNL     1      -0.464  -0.533  24.474  0.00  0.00    +0.102 C 
ATOM     20  C   UNL     1       0.047   0.626  23.960  0.00  0.00    +0.041 A 
ATOM     21  C   UNL     1       0.312   1.362  23.698  0.00  0.00    +0.013 A 
ATOM     22  C   UNL     1       0.017   2.052  24.040  0.00  0.00    +0.006 A 
ATOM     23  C   UNL     1      -0.543   2.006  24.644  0.00  0.00    +0.056 A 
ATOM     33  C   UNL     1      -0.808   1.271  24.907  0.00  0.00    +0.261 A 
ATOM     34  O   UNL     1      -1.449   1.179  25.598  0.00  0.00    -0.267 OA
ATOM     35  N   UNL     1      -0.513   0.580  24.565  0.00  0.00    -0.299 N 
ATOM     36  C   UNL     1      -0.157   0.177  24.166  0.00  0.00    +0.110 C 
ENDROOT
BRANCH  14  11
ATOM     11  S   UNL     1      -1.382   0.241  25.494  0.00  0.00    +0.063 S 
ATOM     12  O   UNL     1      -1.397   0.943  26.044  0.00  0.00    -0.153 OA
ATOM     13  O   UNL     1      -0.602   0.689  25.598  0.00  0.00    -0.153 OA
BRANCH  11   8
ATOM      5  C   UNL     1      -3.085  -1.603  24.814  0.00  0.00    +0.073 A 
ATOM      6  C   UNL     1      -3.051  -0.853  24.287  0.00  0.00    +0.018 A 
ATOM      7  C   UNL     1      -2.574  -0.376  24.508  0.00  0.00    +0.021 A 
ATOM      8  C   UNL     1      -2.036  -0.412  25.191  0.00  0.00    +0.122 A 
ATOM      9  C   UNL     1      -2.116  -1.110  25.622  0.00  0.00    +0.021 A 
ATOM     10  C   UNL     1      -2.664  -1.681  25.386  0.00  0.00    +0.018 A 
BRANCH   5   4
ATOM      1  C   UNL     1      -3.934  -3.515  23.853  0.00  0.00    +0.097 C 
ATOM      2  C   UNL     1      -4.262  -2.759  23.887  0.00  0.00    +0.246 C 
ATOM      3  O   UNL     1      -4.998  -2.613  23.543  0.00  0.00    -0.273 OA
ATOM      4  N   UNL     1      -3.826  -2.106  24.291  0.00  0.00    -0.179 NA
ENDBRANCH   5   4
ENDBRANCH  11   8
ENDBRANCH  14  11
BRANCH  23  24
ATOM     24  C   UNL     1      -0.690   2.959  24.834  0.00  0.00    +0.005 C 
ATOM     25  C   UNL     1      -0.225   3.654  24.863  0.00  0.00    +0.000 C 
BRANCH  25  26
ATOM     26  C   UNL     1      -0.867   4.124  25.066  0.00  0.00    +0.000 A 
ATOM     27  C   UNL     1      -1.607   4.134  25.431  0.00  0.00    +0.001 A 
ATOM     28  C   UNL     1      -2.037   4.838  25.472  0.00  0.00    +0.011 A 
ATOM     29  C   UNL     1      -1.726   5.530  25.148  0.00  0.00    +0.058 A 
ATOM     30 CL   UNL     1      -2.101   6.285  25.149  0.00  0.00    -0.082 Cl
ATOM     31  C   UNL     1      -0.986   5.519  24.784  0.00  0.00    +0.011 A 
ATOM     32  C   UNL     1      -0.557   4.816  24.743  0.00  0.00    +0.001 A 
ENDBRANCH  25  26
ENDBRANCH  23  24
TORSDOF 5
ENDMDL
MODEL 7
REMARK VINA RESULT:     -11.0      2.386      5.564
REMARK  Name = 
REMARK  5 active torsions:
REMARK  status: ('A' for Active; 'I' for Inactive)
REMARK    1  A    between atoms: N_4  and  C_5
REMARK    2  A    between atoms: C_8  and  S_11
REMARK    3  A    between atoms: S_11  and  N_14
REMARK    4  A    between atoms: C_23  and  C_24
REMARK    5  A    between atoms: C_25  and  C_26
REMARK                            x       y       z     vdW  Elec       q    Type
REMARK                         _______ _______ _______ _____ _____    ______ ____
ROOT
ATOM     14  N   UNL     1      -2.607   0.649  24.328  0.00  0.00    -0.155 NA
ATOM     15  C   UNL     1      -3.308   0.439  24.730  0.00  0.00    +0.098 C 
ATOM     16  C   UNL     1      -3.013  -0.406  25.148  0.00  0.00    +0.041 C 
ATOM     17  C   UNL     1      -2.927  -1.106  25.556  0.00  0.00    +0.011 C 
ATOM     18  C   UNL     1      -2.535  -0.694  25.145  0.00  0.00    +0.056 C 
ATOM     19  C   UNL     1      -2.836   0.121  24.748  0.00  0.00    +0.102 C 
ATOM     20  C   UNL     1      -1.694  -0.629  24.780  0.00  0.00    +0.041 A 
ATOM     21  C   UNL     1      -0.974  -1.031  24.756  0.00  0.00    +0.013 A 
ATOM     22  C   UNL     1      -0.345  -0.724  24.320  0.00  0.00    +0.006 A 
ATOM     23  C   UNL     1      -0.435  -0.014  23.908  0.00  0.00    +0.056 A 
ATOM     33  C   UNL     1      -1.155   0.388  23.933  0.00  0.00    +0.261 A 
ATOM     34  O   UNL     1      -1.296   1.204  23.473  0.00  0.00    -0.267 OA
ATOM     35  N   UNL     1      -1.784   0.080  24.369  0.00  0.00    -0.299 N 
ATOM     36  C   UNL     1      -2.136  -0.331  24.763  0.00  0.00    +0.110 C 
ENDROOT
BRANCH  14  11
ATOM     11  S   UNL     1      -2.180   1.206  23.812  0.00  0.00    +0.063 S 
ATOM     12  O   UNL     1      -1.529   1.315  23.213  0.00  0.00    -0.153 OA
ATOM     13  O   UNL     1      -1.712   0.464  23.587  0.00  0.00    -0.153 OA
BRANCH  11   8
ATOM      5  C   UNL     1      -3.793   2.830  25.047  0.00  0.00    +0.073 A 
ATOM      6  C   UNL     1      -4.157   2.298  24.396  0.00  0.00    +0.018 A 
ATOM      7  C   UNL     1      -3.682   1.870  24.084  0.00  0.00    +0.021 A 
ATOM      8  C   UNL     1      -2.830   1.791  24.238  0.00  0.00    +0.122 A 
ATOM      9  C   UNL     1      -2.566   2.296  24.834  0.00  0.00    +0.021 A 
ATOM     10  C   UNL     1      -3.097   2.803  25.211  0.00  0.00    +0.018 A 
BRANCH   5   4
ATOM      1  C   UNL     1      -5.839   2.887  26.098  0.00  0.00    +0.097 C 
ATOM      2  C   UNL     1      -5.452   3.482  25.680  0.00  0.00    +0.246 C 
ATOM      3  O   UNL     1      -5.805   4.223  25.595  0.00  0.00    -0.273 OA
ATOM      4  N   UNL     1      -4.660   3.327  25.321  0.00  0.00    -0.179 NA
ENDBRANCH   5   4
ENDBRANCH  11   8
ENDBRANCH  14  11
BRANCH  23  24
ATOM     24  C   UNL     1       0.455   0.082  23.505  0.00  0.00    +0.005 C 
ATOM     25  C   UNL     1       0.905  -0.309  22.918  0.00  0.00    +0.000 C 
BRANCH  25  26
ATOM     26  C   UNL     1       1.544   0.198  23.011  0.00  0.00    +0.000 A 
ATOM     27  C   UNL     1       1.815   0.878  23.390  0.00  0.00    +0.001 A 
ATOM     28  C   UNL     1       2.584   1.148  23.253  0.00  0.00    +0.011 A 
ATOM     29  C   UNL     1       3.079   0.736  22.736  0.00  0.00    +0.058 A 
ATOM     30 CL   UNL     1       3.872   0.946  22.545  0.00  0.00    -0.082 Cl
ATOM     31  C   UNL     1       2.806   0.056  22.358  0.00  0.00    +0.011 A 
ATOM     32  C   UNL     1       2.039  -0.213  22.495  0.00  0.00    +0.001 A 
ENDBRANCH  25  26
ENDBRANCH  23  24
TORSDOF 5
ENDMDL
MODEL 8
REMARK VINA RESULT:     -10.3      2.623      5.488
REMARK  Name = 
REMARK  5 active torsions:
REMARK  status: ('A' for Active; 'I' for Inactive)
REMARK    1  A    between atoms: N_4  and  C_5
REMARK    2  A    between atoms: C_8  and  S_11
REMARK    3  A    between atoms: S_11  and  N_14
REMARK    4  A    between atoms: C_23  and  C_24
REMARK    5  A    between atoms: C_25  and  C_26
REMARK                            x       y       z     vdW  Elec       q    Type
REMARK                         _______ _______ _______ _____ _____    ______ ____
ROOT
ATOM     14  N   UNL     1      -2.309   2.447  24.389  0.00  0.00    -0.155 NA
ATOM     15  C   UNL     1      -2.114   3.252  24.500  0.00  0.00    +0.098 C 
ATOM     16  C   UNL     1      -1.389   3.157  25.165  0.00  0.00    +0.041 C 
ATOM     17  C   UNL     1      -0.786   3.248  25.705  0.00  0.00    +0.011 C 
ATOM     18  C   UNL     1      -1.150   2.721  25.418  0.00  0.00    +0.056 C 
ATOM     19  C   UNL     1      -1.848   2.829  24.776  0.00  0.00    +0.102 C 
ATOM     20  C   UNL     1      -1.222   1.805  25.428  0.00  0.00    +0.041 A 
ATOM     21  C   UNL     1      -0.888   1.140  25.785  0.00  0.00    +0.013 A 
ATOM     22  C   UNL     1      -1.166   0.387  25.595  0.00  0.00    +0.006 A 
ATOM     23  C   UNL     1      -1.777   0.298  25.048  0.00  0.00    +0.056 A 
ATOM     33  C   UNL     1      -2.110   0.963  24.691  0.00  0.00    +0.261 A 
ATOM     34  O   UNL     1      -2.813   0.900  24.058  0.00  0.00    -0.267 OA
ATOM     35  N   UNL     1      -1.833   1.716  24.881  0.00  0.00    -0.299 N 
ATOM     36  C   UNL     1      -1.471   2.200  25.169  0.00  0.00    +0.110 C 
ENDROOT
BRANCH  14  11
ATOM     11  S   UNL     1      -2.798   1.844  23.994  0.00  0.00    +0.063 S 
ATOM     12  O   UNL     1      -2.810   1.078  23.538  0.00  0.00    -0.153 OA
ATOM     13  O   UNL     1      -1.994   1.462  23.827  0.00  0.00    -0.153 OA
BRANCH  11   8
ATOM      5  C   UNL     1      -4.573   3.605  24.712  0.00  0.00    +0.073 A 
ATOM      6  C   UNL     1      -4.452   2.885  25.267  0.00  0.00    +0.018 A 
ATOM      7  C   UNL     1      -3.959   2.430  25.034  0.00  0.00    +0.021 A 
ATOM      8  C   UNL     1      -3.473   2.468  24.314  0.00  0.00    +0.122 A 
ATOM      9  C   UNL     1      -3.629   3.138  23.859  0.00  0.00    +0.021 A 
ATOM     10  C   UNL     1      -4.198   3.682  24.108  0.00  0.00    +0.018 A 
BRANCH   5   4
ATOM      1  C   UNL     1      -5.973   5.393  25.085  0.00  0.00    +0.097 C 
ATOM      2  C   UNL     1      -5.891   4.697  25.518  0.00  0.00    +0.246 C 
ATOM      3  O   UNL     1      -6.354   4.572  26.190  0.00  0.00    -0.273 OA
ATOM      4  N   UNL     1      -5.309   4.083  25.263  0.00  0.00    -0.179 NA
ENDBRANCH   5   4
ENDBRANCH  11   8
ENDBRANCH  14  11
BRANCH  23  24
ATOM     24  C   UNL     1      -1.877  -0.679  25.037  0.00  0.00    +0.005 C 
ATOM     25  C   UNL     1      -1.719  -1.314  25.557  0.00  0.00    +0.000 C 
BRANCH  25  26
ATOM     26  C   UNL     1      -1.999  -1.873  25.025  0.00  0.00    +0.000 A 
ATOM     27  C   UNL     1      -1.840  -2.275  24.322  0.00  0.00    +0.001 A 
ATOM     28  C   UNL     1      -2.381  -2.827  24.032  0.00  0.00    +0.011 A 
ATOM     29  C   UNL     1      -3.079  -2.977  24.445  0.00  0.00    +0.058 A 
ATOM     30 CL   UNL     1      -3.678  -3.524  24.216  0.00  0.00    -0.082 Cl
ATOM     31  C   UNL     1      -3.237  -2.575  25.148  0.00  0.00    +0.011 A 
ATOM     32  C   UNL     1      -2.697  -2.023  25.438  0.00  0.00    +0.001 A 
ENDBRANCH  25  26
ENDBRANCH  23  24
TORSDOF 5
ENDMDL
