MODEL 1
REMARK VINA RESULT:     -12.2      0.000      0.000
REMARK  Name = 
REMARK  3 active torsions:
REMARK  status: ('A' for Active; 'I' for Inactive)
REMARK    1  A    between atoms: C_2  and  C_4
REMARK    2  A    between atoms: C_4  and  C_5
REMARK    3  A    between atoms: C_7  and  C_18
REMARK                            x       y       z     vdW  Elec       q    Type
REMARK                         _______ _______ _______ _____ _____    ______ ____
ROOT
ATOM      5  C   UNL     1      -2.415  -0.362  24.966  0.00  0.00    +0.095 C 
ATOM      6  N   UNL     1      -2.655   0.351  24.627  0.00  0.00    -0.207 NA
ATOM      7  C   UNL     1      -3.297   0.492  24.127  0.00  0.00    +0.154 C 
ATOM      8  C   UNL     1      -3.855  -0.045  23.843  0.00  0.00    +0.055 C 
ATOM      9  C   UNL     1      -3.911  -0.855  23.989  0.00  0.00    +0.000 A 
ATOM     10  C   UNL     1      -4.501  -1.335  23.670  0.00  0.00    +0.095 A 
ATOM     11  N   UNL     1      -4.377  -2.105  23.938  0.00  0.00    -0.244 NA
ATOM     12  C   UNL     1      -3.709  -2.101  24.423  0.00  0.00    +0.081 A 
ATOM     13  C   UNL     1      -3.422  -1.328  24.455  0.00  0.00    +0.013 A 
ATOM     14  C   UNL     1      -2.756  -1.108  24.890  0.00  0.00    -0.005 A 
ATOM     15  C   UNL     1      -2.369  -1.756  25.321  0.00  0.00    -0.003 A 
ATOM     16  C   UNL     1      -2.656  -2.528  25.290  0.00  0.00    +0.001 A 
ATOM     17  C   UNL     1      -3.327  -2.701  24.841  0.00  0.00    +0.019 A 
ENDROOT
BRANCH   7  18
ATOM     18  C   UNL     1      -3.391   1.273  23.878  0.00  0.00    +0.242 C 
ATOM     19  O   UNL     1      -2.988   1.545  23.212  0.00  0.00    -0.273 OA
ATOM     20  N   UNL     1      -3.889   1.781  24.296  0.00  0.00    -0.276 N 
ATOM     21  C   UNL     1      -3.984   2.562  24.047  0.00  0.00    +0.111 C 
ATOM     22  C   UNL     1      -4.482   3.070  24.465  0.00  0.00    +0.094 C 
ATOM     23  N   UNL     1      -4.885   2.797  25.132  0.00  0.00    -0.269 NA
ATOM     24  C   UNL     1      -5.382   3.306  25.549  0.00  0.00    +0.090 C 
ATOM     25  C   UNL     1      -4.790   2.017  25.379  0.00  0.00    +0.094 C 
ATOM     26  C   UNL     1      -4.292   1.509  24.962  0.00  0.00    +0.111 C 
ENDBRANCH   7  18
BRANCH   5   4
ATOM      4  C   UNL     1      -1.745  -0.321  25.446  0.00  0.00    +0.022 C 
BRANCH   4   2
ATOM      1  C   UNL     1      -0.621  -0.091  24.593  0.00  0.00    +0.000 C 
ATOM      2  C   UNL     1      -1.103   0.147  25.219  0.00  0.00    +0.002 C 
ATOM      3  C   UNL     1      -0.946   0.852  25.617  0.00  0.00    +0.000 C 
ENDBRANCH   4   2
ENDBRANCH   5   4
TORSDOF 3
ENDMDL
MODEL 2
REMARK VINA RESULT:     -12.0      1.294      3.745
REMARK  Name = 
REMARK  3 active torsions:
REMARK  status: ('A' for Active; 'I' for Inactive)
REMARK    1  A    between atoms: C_2  and  C_4
REMARK    2  A    between atoms: C_4  and  C_5
REMARK    3  A    between atoms: C_7  and  C_18
REMARK                            x       y       z     vdW  Elec       q    Type
REMARK                         _______ _______ _______ _____ _____    ______ ____
ROOT
ATOM      5  C   UNL     1      -3.896   0.849  24.917  0.00  0.00    +0.095 C 
ATOM      6  N   UNL     1      -3.132   0.967  24.628  0.00  0.00    -0.207 NA
ATOM      7  C   UNL     1      -2.790   1.663  24.348  0.00  0.00    +0.154 C 
ATOM      8  C   UNL     1      -3.127   2.414  24.288  0.00  0.00    +0.055 C 
ATOM      9  C   UNL     1      -3.890   2.653  24.493  0.00  0.00    +0.000 A 
ATOM     10  C   UNL     1      -4.163   3.427  24.405  0.00  0.00    +0.095 A 
ATOM     11  N   UNL     1      -4.945   3.453  24.667  0.00  0.00    -0.244 NA
ATOM     12  C   UNL     1      -5.156   2.695  24.916  0.00  0.00    +0.081 A 
ATOM     13  C   UNL     1      -4.504   2.201  24.809  0.00  0.00    +0.013 A 
ATOM     14  C   UNL     1      -4.506   1.397  24.997  0.00  0.00    -0.005 A 
ATOM     15  C   UNL     1      -5.254   1.099  25.322  0.00  0.00    -0.003 A 
ATOM     16  C   UNL     1      -5.906   1.593  25.430  0.00  0.00    +0.001 A 
ATOM     17  C   UNL     1      -5.856   2.392  25.227  0.00  0.00    +0.019 A 
ENDROOT
BRANCH   7  18
ATOM     18  C   UNL     1      -2.007   1.601  24.095  0.00  0.00    +0.242 C 
ATOM     19  O   UNL     1      -1.840   1.328  23.335  0.00  0.00    -0.273 OA
ATOM     20  N   UNL     1      -1.392   1.812  24.603  0.00  0.00    -0.276 N 
ATOM     21  C   UNL     1      -0.609   1.750  24.350  0.00  0.00    +0.111 C 
ATOM     22  C   UNL     1       0.006   1.961  24.858  0.00  0.00    +0.094 C 
ATOM     23  N   UNL     1      -0.162   2.235  25.618  0.00  0.00    -0.269 NA
ATOM     24  C   UNL     1       0.454   2.446  26.125  0.00  0.00    +0.090 C 
ATOM     25  C   UNL     1      -0.944   2.297  25.870  0.00  0.00    +0.094 C 
ATOM     26  C   UNL     1      -1.559   2.086  25.363  0.00  0.00    +0.111 C 
ENDBRANCH   7  18
BRANCH   5   4
ATOM      4  C   UNL     1      -4.072   0.079  25.157  0.00  0.00    +0.022 C 
BRANCH   4   2
ATOM      1  C   UNL     1      -4.050  -0.748  23.992  0.00  0.00    +0.000 C 
ATOM      2  C   UNL     1      -3.761  -0.563  24.742  0.00  0.00    +0.002 C 
ATOM      3  C   UNL     1      -3.162  -1.021  25.079  0.00  0.00    +0.000 C 
ENDBRANCH   4   2
ENDBRANCH   5   4
TORSDOF 3
ENDMDL
MODEL 3
REMARK VINA RESULT:     -11.8      1.818      4.140
REMARK  Name = 
REMARK  3 active torsions:
REMARK  status: ('A' for Active; 'I' for Inactive)
REMARK    1  A    between atoms: C_2  and  C_4
REMARK    2  A    between atoms: C_4  and  C_5
REMARK    3  A    between atoms: C_7  and  C_18
REMARK                            x       y       z     vdW  Elec       q    Type
REMARK                         _______ _______ _______ _____ _____    ______ ____
ROOT
ATOM      5  C   UNL     1      -2.462   3.025  25.264  0.00  0.00    +0.095 C 
ATOM      6  N   UNL     1      -2.013   2.483  24.834  0.00  0.00    -0.207 NA
ATOM      7  C   UNL     1      -2.275   1.870  24.346  0.00  0.00    +0.154 C 
ATOM      8  C   UNL     1      -3.050   1.649  24.170  0.00  0.00    +0.055 C 
ATOM      9  C   UNL     1      -3.754   1.985  24.437  0.00  0.00    +0.000 A 
ATOM     10  C   UNL     1      -4.501   1.710  24.218  0.00  0.00    +0.095 A 
ATOM     11  N   UNL     1      -5.066   2.181  24.593  0.00  0.00    -0.244 NA
ATOM     12  C   UNL     1      -4.669   2.747  25.043  0.00  0.00    +0.081 A 
ATOM     13  C   UNL     1      -3.858   2.626  24.947  0.00  0.00    +0.013 A 
ATOM     14  C   UNL     1      -3.282   3.088  25.315  0.00  0.00    -0.005 A 
ATOM     15  C   UNL     1      -3.591   3.724  25.820  0.00  0.00    -0.003 A 
ATOM     16  C   UNL     1      -4.401   3.845  25.917  0.00  0.00    +0.001 A 
ATOM     17  C   UNL     1      -4.940   3.356  25.527  0.00  0.00    +0.019 A 
ENDROOT
BRANCH   7  18
ATOM     18  C   UNL     1      -1.683   1.420  23.988  0.00  0.00    +0.242 C 
ATOM     19  O   UNL     1      -1.357   1.664  23.271  0.00  0.00    -0.273 OA
ATOM     20  N   UNL     1      -1.418   0.726  24.349  0.00  0.00    -0.276 N 
ATOM     21  C   UNL     1      -0.827   0.277  23.991  0.00  0.00    +0.111 C 
ATOM     22  C   UNL     1      -0.562  -0.417  24.352  0.00  0.00    +0.094 C 
ATOM     23  N   UNL     1      -0.888  -0.660  25.070  0.00  0.00    -0.269 NA
ATOM     24  C   UNL     1      -0.623  -1.353  25.429  0.00  0.00    +0.090 C 
ATOM     25  C   UNL     1      -1.480  -0.209  25.426  0.00  0.00    +0.094 C 
ATOM     26  C   UNL     1      -1.745   0.484  25.067  0.00  0.00    +0.111 C 
ENDBRANCH   7  18
BRANCH   5   4
ATOM      4  C   UNL     1      -2.032   3.576  25.703  0.00  0.00    +0.022 C 
BRANCH   4   2
ATOM      1  C   UNL     1      -1.404   4.526  24.839  0.00  0.00    +0.000 C 
ATOM      2  C   UNL     1      -1.347   3.911  25.386  0.00  0.00    +0.002 C 
ATOM      3  C   UNL     1      -0.606   3.631  25.617  0.00  0.00    +0.000 C 
ENDBRANCH   4   2
ENDBRANCH   5   4
TORSDOF 3
ENDMDL
MODEL 4
REMARK VINA RESULT:     -11.4      1.699      4.586
REMARK  Name = 
REMARK  3 active torsions:
REMARK  status: ('A' for Active; 'I' for Inactive)
REMARK    1  A    between atoms: C_2  and  C_4
REMARK    2  A    between atoms: C_4  and  C_5
REMARK    3  A    between atoms: C_7  and  C_18
REMARK                            x       y       z     vdW  Elec       q    Type
REMARK                         _______ _______ _______ _____ _____    ______ ____
ROOT
ATOM      5  C   UNL     1      -3.243   1.353  24.544  0.00  0.00    +0.095 C 
ATOM      6  N   UNL     1      -2.605   0.857  24.712  0.00  0.00    -0.207 NA
ATOM      7  C   UNL     1      -1.877   1.052  25.048  0.00  0.00    +0.154 C 
ATOM      8  C   UNL     1      -1.607   1.789  25.299  0.00  0.00    +0.055 C 
ATOM      9  C   UNL     1      -1.998   2.516  25.276  0.00  0.00    +0.000 A 
ATOM     10  C   UNL     1      -1.665   3.220  25.547  0.00  0.00    +0.095 A 
ATOM     11  N   UNL     1      -2.217   3.823  25.435  0.00  0.00    -0.244 NA
ATOM     12  C   UNL     1      -2.892   3.491  25.095  0.00  0.00    +0.081 A 
ATOM     13  C   UNL     1      -2.756   2.683  24.997  0.00  0.00    +0.013 A 
ATOM     14  C   UNL     1      -3.310   2.165  24.671  0.00  0.00    -0.005 A 
ATOM     15  C   UNL     1      -4.060   2.532  24.433  0.00  0.00    -0.003 A 
ATOM     16  C   UNL     1      -4.196   3.340  24.531  0.00  0.00    +0.001 A 
ATOM     17  C   UNL     1      -3.611   3.819  24.862  0.00  0.00    +0.019 A 
ENDROOT
BRANCH   7  18
ATOM     18  C   UNL     1      -1.349   0.425  25.145  0.00  0.00    +0.242 C 
ATOM     19  O   UNL     1      -1.391  -0.048  25.819  0.00  0.00    -0.273 OA
ATOM     20  N   UNL     1      -0.779   0.272  24.567  0.00  0.00    -0.276 N 
ATOM     21  C   UNL     1      -0.252  -0.354  24.664  0.00  0.00    +0.111 C 
ATOM     22  C   UNL     1       0.317  -0.507  24.087  0.00  0.00    +0.094 C 
ATOM     23  N   UNL     1       0.358  -0.034  23.412  0.00  0.00    -0.269 NA
ATOM     24  C   UNL     1       0.927  -0.187  22.835  0.00  0.00    +0.090 C 
ATOM     25  C   UNL     1      -0.169   0.592  23.316  0.00  0.00    +0.094 C 
ATOM     26  C   UNL     1      -0.738   0.745  23.893  0.00  0.00    +0.111 C 
ENDBRANCH   7  18
BRANCH   5   4
ATOM      4  C   UNL     1      -3.900   0.988  24.205  0.00  0.00    +0.022 C 
BRANCH   4   2
ATOM      1  C   UNL     1      -4.472   0.140  25.204  0.00  0.00    +0.000 C 
ATOM      2  C   UNL     1      -4.131   0.237  24.459  0.00  0.00    +0.002 C 
ATOM      3  C   UNL     1      -4.020  -0.417  23.967  0.00  0.00    +0.000 C 
ENDBRANCH   4   2
ENDBRANCH   5   4
TORSDOF 3
ENDMDL
MODEL 5
REMARK VINA RESULT:     -11.4      1.347      3.254
REMARK  Name = 
REMARK  3 active torsions:
REMARK  status: ('A' for Active; 'I' for Inactive)
REMARK    1  A    between atoms: C_2  and  C_4
REMARK    2  A    between atoms: C_4  and  C_5
REMARK    3  A    between atoms: C_7  and  C_18
REMARK                            x       y       z     vdW  Elec       q    Type
REMARK                         _______ _______ _______ _____ _____    ______ ____
ROOT
ATOM      5  C   UNL     1      -3.395  -0.121  24.418  0.00  0.00    +0.095 C 
ATOM      6  N   UNL     1      -2.773   0.295  24.764  0.00  0.00    -0.207 NA
ATOM      7  C   UNL     1      -2.084  -0.003  25.108  0.00  0.00    +0.154 C 
ATOM      8  C   UNL     1      -1.849  -0.789  25.191  0.00  0.00    +0.055 C 
ATOM      9  C   UNL     1      -2.243  -1.472  24.950  0.00  0.00    +0.000 A 
ATOM     10  C   UNL     1      -1.947  -2.233  25.066  0.00  0.00    +0.095 A 
ATOM     11  N   UNL     1      -2.491  -2.770  24.754  0.00  0.00    -0.244 NA
ATOM     12  C   UNL     1      -3.124  -2.340  24.446  0.00  0.00    +0.081 A 
ATOM     13  C   UNL     1      -2.971  -1.538  24.567  0.00  0.00    +0.013 A 
ATOM     14  C   UNL     1      -3.483  -0.936  24.330  0.00  0.00    -0.005 A 
ATOM     15  C   UNL     1      -4.209  -1.206  23.937  0.00  0.00    -0.003 A 
ATOM     16  C   UNL     1      -4.363  -2.008  23.816  0.00  0.00    +0.001 A 
ATOM     17  C   UNL     1      -3.820  -2.575  24.070  0.00  0.00    +0.019 A 
ENDROOT
BRANCH   7  18
ATOM     18  C   UNL     1      -1.562   0.561  25.410  0.00  0.00    +0.242 C 
ATOM     19  O   UNL     1      -1.677   0.866  26.167  0.00  0.00    -0.273 OA
ATOM     20  N   UNL     1      -0.926   0.820  24.952  0.00  0.00    -0.276 N 
ATOM     21  C   UNL     1      -0.405   1.384  25.253  0.00  0.00    +0.111 C 
ATOM     22  C   UNL     1       0.232   1.642  24.796  0.00  0.00    +0.094 C 
ATOM     23  N   UNL     1       0.346   1.337  24.038  0.00  0.00    -0.269 NA
ATOM     24  C   UNL     1       0.982   1.596  23.581  0.00  0.00    +0.090 C 
ATOM     25  C   UNL     1      -0.175   0.774  23.738  0.00  0.00    +0.094 C 
ATOM     26  C   UNL     1      -0.811   0.515  24.194  0.00  0.00    +0.111 C 
ENDBRANCH   7  18
BRANCH   5   4
ATOM      4  C   UNL     1      -4.011   0.340  24.120  0.00  0.00    +0.022 C 
BRANCH   4   2
ATOM      1  C   UNL     1      -4.699   0.928  25.226  0.00  0.00    +0.000 C 
ATOM      2  C   UNL     1      -4.260   1.010  24.532  0.00  0.00    +0.002 C 
ATOM      3  C   UNL     1      -4.071   1.763  24.249  0.00  0.00    +0.000 C 
ENDBRANCH   4   2
ENDBRANCH   5   4
TORSDOF 3
ENDMDL
MODEL 6
REMARK VINA RESULT:     -11.2      1.427      2.590
REMARK  Name = 
REMARK  3 active torsions:
REMARK  status: ('A' for Active; 'I' for Inactive)
REMARK    1  A    between atoms: C_2  and  C_4
REMARK    2  A    between atoms: C_4  and  C_5
REMARK    3  A    between atoms: C_7  and  C_18
REMARK                            x       y       z     vdW  Elec       q    Type
REMARK                         _______ _______ _______ _____ _____    ______ ____
ROOT
ATOM      5  C   UNL     1      -2.568  -0.139  24.796  0.00  0.00    +0.095 C 
ATOM      6  N   UNL     1      -2.799   0.598  24.507  0.00  0.00    -0.207 NA
ATOM      7  C   UNL     1      -2.346   1.156  24.101  0.00  0.00    +0.154 C 
ATOM      8  C   UNL     1      -1.551   1.113  23.885  0.00  0.00    +0.055 C 
ATOM      9  C   UNL     1      -1.012   0.503  24.021  0.00  0.00    +0.000 A 
ATOM     10  C   UNL     1      -0.226   0.528  23.774  0.00  0.00    +0.095 A 
ATOM     11  N   UNL     1       0.137  -0.175  24.008  0.00  0.00    -0.244 NA
ATOM     12  C   UNL     1      -0.425  -0.635  24.399  0.00  0.00    +0.081 A 
ATOM     13  C   UNL     1      -1.136  -0.215  24.407  0.00  0.00    +0.013 A 
ATOM     14  C   UNL     1      -1.830  -0.501  24.752  0.00  0.00    -0.005 A 
ATOM     15  C   UNL     1      -1.761  -1.287  25.114  0.00  0.00    -0.003 A 
ATOM     16  C   UNL     1      -1.051  -1.707  25.106  0.00  0.00    +0.001 A 
ATOM     17  C   UNL     1      -0.383  -1.381  24.748  0.00  0.00    +0.019 A 
ENDROOT
BRANCH   7  18
ATOM     18  C   UNL     1      -2.740   1.847  23.883  0.00  0.00    +0.242 C 
ATOM     19  O   UNL     1      -3.147   1.881  23.166  0.00  0.00    -0.273 OA
ATOM     20  N   UNL     1      -2.727   2.505  24.382  0.00  0.00    -0.276 N 
ATOM     21  C   UNL     1      -3.121   3.195  24.164  0.00  0.00    +0.111 C 
ATOM     22  C   UNL     1      -3.107   3.852  24.663  0.00  0.00    +0.094 C 
ATOM     23  N   UNL     1      -2.700   3.818  25.380  0.00  0.00    -0.269 NA
ATOM     24  C   UNL     1      -2.687   4.475  25.878  0.00  0.00    +0.090 C 
ATOM     25  C   UNL     1      -2.306   3.127  25.597  0.00  0.00    +0.094 C 
ATOM     26  C   UNL     1      -2.319   2.470  25.098  0.00  0.00    +0.111 C 
ENDBRANCH   7  18
BRANCH   5   4
ATOM      4  C   UNL     1      -3.156  -0.571  25.182  0.00  0.00    +0.022 C 
BRANCH   4   2
ATOM      1  C   UNL     1      -4.509  -0.119  25.275  0.00  0.00    +0.000 C 
ATOM      2  C   UNL     1      -3.930  -0.564  24.892  0.00  0.00    +0.002 C 
ATOM      3  C   UNL     1      -4.122  -1.003  24.220  0.00  0.00    +0.000 C 
ENDBRANCH   4   2
ENDBRANCH   5   4
TORSDOF 3
ENDMDL
MODEL 7
REMARK VINA RESULT:     -11.2      1.690      4.316
REMARK  Name = 
REMARK  3 active torsions:
REMARK  status: ('A' for Active; 'I' for Inactive)
REMARK    1  A    between atoms: C_2  and  C_4
REMARK    2  A    between atoms: C_4  and  C_5
REMARK    3  A    between atoms: C_7  and  C_18
REMARK                            x       y       z     vdW  Elec       q    Type
REMARK                         _______ _______ _______ _____ _____    ______ ____
ROOT
ATOM      5  C   UNL     1      -3.114   2.715  25.016  0.00  0.00    +0.095 C 
ATOM      6  N   UNL     1      -3.344   2.020  24.636  0.00  0.00    -0.207 NA
ATOM      7  C   UNL     1      -2.879   1.493  24.203  0.00  0.00    +0.154 C 
ATOM      8  C   UNL     1      -2.071   1.531  24.044  0.00  0.00    +0.055 C 
ATOM      9  C   UNL     1      -1.527   2.104  24.279  0.00  0.00    +0.000 A 
ATOM     10  C   UNL     1      -0.726   2.079  24.083  0.00  0.00    +0.095 A 
ATOM     11  N   UNL     1      -0.361   2.741  24.413  0.00  0.00    -0.244 NA
ATOM     12  C   UNL     1      -0.936   3.176  24.813  0.00  0.00    +0.081 A 
ATOM     13  C   UNL     1      -1.657   2.783  24.730  0.00  0.00    +0.013 A 
ATOM     14  C   UNL     1      -2.364   3.054  25.059  0.00  0.00    -0.005 A 
ATOM     15  C   UNL     1      -2.299   3.796  25.506  0.00  0.00    -0.003 A 
ATOM     16  C   UNL     1      -1.579   4.190  25.589  0.00  0.00    +0.001 A 
ATOM     17  C   UNL     1      -0.897   3.879  25.242  0.00  0.00    +0.019 A 
ENDROOT
BRANCH   7  18
ATOM     18  C   UNL     1      -3.277   0.842  23.887  0.00  0.00    +0.242 C 
ATOM     19  O   UNL     1      -3.634   0.897  23.146  0.00  0.00    -0.273 OA
ATOM     20  N   UNL     1      -3.316   0.137  24.314  0.00  0.00    -0.276 N 
ATOM     21  C   UNL     1      -3.713  -0.514  23.999  0.00  0.00    +0.111 C 
ATOM     22  C   UNL     1      -3.753  -1.219  24.425  0.00  0.00    +0.094 C 
ATOM     23  N   UNL     1      -3.395  -1.273  25.167  0.00  0.00    -0.269 NA
ATOM     24  C   UNL     1      -3.435  -1.978  25.593  0.00  0.00    +0.090 C 
ATOM     25  C   UNL     1      -2.999  -0.623  25.481  0.00  0.00    +0.094 C 
ATOM     26  C   UNL     1      -2.959   0.082  25.055  0.00  0.00    +0.111 C 
ENDBRANCH   7  18
BRANCH   5   4
ATOM      4  C   UNL     1      -3.715   3.124  25.406  0.00  0.00    +0.022 C 
BRANCH   4   2
ATOM      1  C   UNL     1      -4.575   3.637  24.386  0.00  0.00    +0.000 C 
ATOM      2  C   UNL     1      -4.464   3.181  25.065  0.00  0.00    +0.002 C 
ATOM      3  C   UNL     1      -5.102   2.781  25.403  0.00  0.00    +0.000 C 
ENDBRANCH   4   2
ENDBRANCH   5   4
TORSDOF 3
ENDMDL
MODEL 8
REMARK VINA RESULT:     -11.2      1.168      3.847
REMARK  Name = 
REMARK  3 active torsions:
REMARK  status: ('A' for Active; 'I' for Inactive)
REMARK    1  A    between atoms: C_2  and  C_4
REMARK    2  A    between atoms: C_4  and  C_5
REMARK    3  A    between atoms: C_7  and  C_18
REMARK                            x       y       z     vdW  Elec       q    Type
REMARK                         _______ _______ _______ _____ _____    ______ ____
ROOT
ATOM      5  C   UNL     1      -2.903   1.327  24.351  0.00  0.00    +0.095 C 
ATOM      6  N   UNL     1      -2.905   0.578  24.696  0.00  0.00    -0.207 NA
ATOM      7  C   UNL     1      -3.514   0.202  25.107  0.00  0.00    +0.154 C 
ATOM      8  C   UNL     1      -4.270   0.485  25.276  0.00  0.00    +0.055 C 
ATOM      9  C   UNL     1      -4.605   1.211  25.074  0.00  0.00    +0.000 A 
ATOM     10  C   UNL     1      -5.375   1.429  25.277  0.00  0.00    +0.095 A 
ATOM     11  N   UNL     1      -5.511   2.188  24.983  0.00  0.00    -0.244 NA
ATOM     12  C   UNL     1      -4.826   2.439  24.598  0.00  0.00    +0.081 A 
ATOM     13  C   UNL     1      -4.266   1.835  24.655  0.00  0.00    +0.013 A 
ATOM     14  C   UNL     1      -3.508   1.886  24.333  0.00  0.00    -0.005 A 
ATOM     15  C   UNL     1      -3.333   2.632  23.923  0.00  0.00    -0.003 A 
ATOM     16  C   UNL     1      -3.892   3.236  23.866  0.00  0.00    +0.001 A 
ATOM     17  C   UNL     1      -4.639   3.139  24.204  0.00  0.00    +0.019 A 
ENDROOT
BRANCH   7  18
ATOM     18  C   UNL     1      -3.343  -0.555  25.387  0.00  0.00    +0.242 C 
ATOM     19  O   UNL     1      -2.970  -0.650  26.116  0.00  0.00    -0.273 OA
ATOM     20  N   UNL     1      -3.547  -1.216  24.937  0.00  0.00    -0.276 N 
ATOM     21  C   UNL     1      -3.376  -1.973  25.217  0.00  0.00    +0.111 C 
ATOM     22  C   UNL     1      -3.580  -2.634  24.767  0.00  0.00    +0.094 C 
ATOM     23  N   UNL     1      -3.953  -2.538  24.037  0.00  0.00    -0.269 NA
ATOM     24  C   UNL     1      -4.156  -3.199  23.588  0.00  0.00    +0.090 C 
ATOM     25  C   UNL     1      -4.124  -1.781  23.759  0.00  0.00    +0.094 C 
ATOM     26  C   UNL     1      -3.920  -1.120  24.208  0.00  0.00    +0.111 C 
ENDBRANCH   7  18
BRANCH   5   4
ATOM      4  C   UNL     1      -2.202   1.545  23.975  0.00  0.00    +0.022 C 
BRANCH   4   2
ATOM      1  C   UNL     1      -1.230   1.740  25.006  0.00  0.00    +0.000 C 
ATOM      2  C   UNL     1      -1.474   1.357  24.317  0.00  0.00    +0.002 C 
ATOM      3  C   UNL     1      -0.991   0.784  23.970  0.00  0.00    +0.000 C 
ENDBRANCH   4   2
ENDBRANCH   5   4
TORSDOF 3
ENDMDL
