MODEL 1
REMARK VINA RESULT:     -12.4      0.000      0.000
REMARK  Name = 
REMARK  7 active torsions:
REMARK  status: ('A' for Active; 'I' for Inactive)
REMARK    1  A    between atoms: C_2  and  C_4
REMARK    2  A    between atoms: C_4  and  C_5
REMARK    3  A    between atoms: C_7  and  C_25
REMARK    4  A    between atoms: N_11  and  C_12
REMARK    5  A    between atoms: C_12  and  C_13
REMARK    6  A    between atoms: N_27  and  C_28
REMARK    7  A    between atoms: C_28  and  C_29
REMARK                            x       y       z     vdW  Elec       q    Type
REMARK                         _______ _______ _______ _____ _____    ______ ____
ROOT
ATOM      5  C   UNL     1      -4.713   2.342  24.932  0.00  0.00    +0.095 C 
ATOM      6  N   UNL     1      -4.615   1.618  24.548  0.00  0.00    -0.207 NA
ATOM      7  C   UNL     1      -3.913   1.248  24.320  0.00  0.00    +0.155 C 
ATOM      8  C   UNL     1      -3.138   1.511  24.419  0.00  0.00    +0.055 C 
ATOM      9  C   UNL     1      -2.872   2.208  24.771  0.00  0.00    -0.002 A 
ATOM     10  C   UNL     1      -2.074   2.409  24.836  0.00  0.00    +0.072 A 
ATOM     11  N   UNL     1      -2.025   3.140  25.216  0.00  0.00    -0.322 N 
ATOM     19  C   UNL     1      -2.793   3.391  25.385  0.00  0.00    +0.060 A 
ATOM     20  C   UNL     1      -3.316   2.815  25.110  0.00  0.00    +0.011 A 
ATOM     21  C   UNL     1      -4.136   2.874  25.181  0.00  0.00    -0.005 A 
ATOM     22  C   UNL     1      -4.419   3.596  25.573  0.00  0.00    -0.003 A 
ATOM     23  C   UNL     1      -3.896   4.172  25.848  0.00  0.00    +0.001 A 
ATOM     24  C   UNL     1      -3.083   4.069  25.754  0.00  0.00    +0.017 A 
ENDROOT
BRANCH   7  25
ATOM     25  C   UNL     1      -3.999   0.519  23.943  0.00  0.00    +0.258 C 
ATOM     26  O   UNL     1      -4.125   0.488  23.129  0.00  0.00    -0.272 OA
ATOM     27  N   UNL     1      -3.959  -0.179  24.382  0.00  0.00    -0.199 NA
BRANCH  27  28
ATOM     28  C   UNL     1      -4.045  -0.907  24.005  0.00  0.00    +0.142 C 
BRANCH  28  29
ATOM     29  C   UNL     1      -3.818  -1.601  24.392  0.00  0.00    -0.001 A 
ATOM     30  C   UNL     1      -3.812  -2.317  23.983  0.00  0.00    -0.003 A 
ATOM     31  C   UNL     1      -3.586  -3.011  24.370  0.00  0.00    -0.000 A 
ATOM     32  C   UNL     1      -3.365  -2.987  25.165  0.00  0.00    -0.000 A 
ATOM     33  C   UNL     1      -3.371  -2.269  25.573  0.00  0.00    -0.000 A 
ATOM     34  C   UNL     1      -3.598  -1.577  25.187  0.00  0.00    -0.003 A 
ENDBRANCH  28  29
ENDBRANCH  27  28
ENDBRANCH   7  25
BRANCH   5   4
ATOM      4  C   UNL     1      -5.494   2.561  25.085  0.00  0.00    +0.022 C 
BRANCH   4   2
ATOM      1  C   UNL     1      -6.609   1.725  24.769  0.00  0.00    +0.000 C 
ATOM      2  C   UNL     1      -6.046   1.990  25.310  0.00  0.00    +0.002 C 
ATOM      3  C   UNL     1      -6.035   1.686  26.078  0.00  0.00    +0.000 C 
ENDBRANCH   4   2
ENDBRANCH   5   4
BRANCH  11  12
ATOM     12  C   UNL     1      -1.332   3.549  25.395  0.00  0.00    +0.134 C 
BRANCH  12  13
ATOM     13  C   UNL     1      -0.650   3.134  25.604  0.00  0.00    +0.020 A 
ATOM     14  C   UNL     1      -0.518   2.929  26.392  0.00  0.00    +0.001 A 
ATOM     15  C   UNL     1       0.164   2.513  26.601  0.00  0.00    +0.020 A 
ATOM     16  C   UNL     1       0.713   2.304  26.022  0.00  0.00    +0.099 A 
ATOM     17  N   UNL     1       0.580   2.509  25.234  0.00  0.00    -0.243 NA
ATOM     18  C   UNL     1      -0.101   2.924  25.025  0.00  0.00    +0.096 A 
ENDBRANCH  12  13
ENDBRANCH  11  12
TORSDOF 7
ENDMDL
MODEL 2
REMARK VINA RESULT:     -11.9      1.761      4.298
REMARK  Name = 
REMARK  7 active torsions:
REMARK  status: ('A' for Active; 'I' for Inactive)
REMARK    1  A    between atoms: C_2  and  C_4
REMARK    2  A    between atoms: C_4  and  C_5
REMARK    3  A    between atoms: C_7  and  C_25
REMARK    4  A    between atoms: N_11  and  C_12
REMARK    5  A    between atoms: C_12  and  C_13
REMARK    6  A    between atoms: N_27  and  C_28
REMARK    7  A    between atoms: C_28  and  C_29
REMARK                            x       y       z     vdW  Elec       q    Type
REMARK                         _______ _______ _______ _____ _____    ______ ____
ROOT
ATOM      5  C   UNL     1      -1.257   3.086  24.455  0.00  0.00    +0.095 C 
ATOM      6  N   UNL     1      -2.066   3.097  24.295  0.00  0.00    -0.207 NA
ATOM      7  C   UNL     1      -2.559   2.468  24.090  0.00  0.00    +0.155 C 
ATOM      8  C   UNL     1      -2.365   1.672  23.995  0.00  0.00    +0.055 C 
ATOM      9  C   UNL     1      -1.629   1.309  24.081  0.00  0.00    -0.002 A 
ATOM     10  C   UNL     1      -1.505   0.501  23.969  0.00  0.00    +0.072 A 
ATOM     11  N   UNL     1      -0.706   0.344  24.103  0.00  0.00    -0.322 N 
ATOM     19  C   UNL     1      -0.336   1.055  24.297  0.00  0.00    +0.060 A 
ATOM     20  C   UNL     1      -0.906   1.652  24.283  0.00  0.00    +0.011 A 
ATOM     21  C   UNL     1      -0.741   2.443  24.450  0.00  0.00    -0.005 A 
ATOM     22  C   UNL     1       0.088   2.611  24.644  0.00  0.00    -0.003 A 
ATOM     23  C   UNL     1       0.659   2.016  24.658  0.00  0.00    +0.001 A 
ATOM     24  C   UNL     1       0.446   1.237  24.484  0.00  0.00    +0.017 A 
ENDROOT
BRANCH   7  25
ATOM     25  C   UNL     1      -3.352   2.661  23.964  0.00  0.00    +0.258 C 
ATOM     26  O   UNL     1      -3.583   3.011  23.254  0.00  0.00    -0.272 OA
ATOM     27  N   UNL     1      -3.913   2.503  24.549  0.00  0.00    -0.199 NA
BRANCH  27  28
ATOM     28  C   UNL     1      -4.704   2.695  24.423  0.00  0.00    +0.142 C 
BRANCH  28  29
ATOM     29  C   UNL     1      -5.274   2.484  24.982  0.00  0.00    -0.001 A 
ATOM     30  C   UNL     1      -5.362   2.931  25.670  0.00  0.00    -0.003 A 
ATOM     31  C   UNL     1      -5.931   2.719  26.229  0.00  0.00    -0.000 A 
ATOM     32  C   UNL     1      -6.412   2.062  26.099  0.00  0.00    -0.000 A 
ATOM     33  C   UNL     1      -6.324   1.615  25.411  0.00  0.00    -0.000 A 
ATOM     34  C   UNL     1      -5.755   1.826  24.852  0.00  0.00    -0.003 A 
ENDBRANCH  28  29
ENDBRANCH  27  28
ENDBRANCH   7  25
BRANCH   5   4
ATOM      4  C   UNL     1      -0.920   3.814  24.645  0.00  0.00    +0.022 C 
BRANCH   4   2
ATOM      1  C   UNL     1      -1.532   4.134  25.896  0.00  0.00    +0.000 C 
ATOM      2  C   UNL     1      -1.331   4.346  25.125  0.00  0.00    +0.002 C 
ATOM      3  C   UNL     1      -1.540   5.089  24.832  0.00  0.00    +0.000 C 
ENDBRANCH   4   2
ENDBRANCH   5   4
BRANCH  11  12
ATOM     12  C   UNL     1      -0.341  -0.394  24.052  0.00  0.00    +0.134 C 
BRANCH  12  13
ATOM     13  C   UNL     1      -0.703  -1.058  24.382  0.00  0.00    +0.020 A 
ATOM     14  C   UNL     1      -1.196  -1.530  23.919  0.00  0.00    +0.001 A 
ATOM     15  C   UNL     1      -1.558  -2.195  24.249  0.00  0.00    +0.020 A 
ATOM     16  C   UNL     1      -1.426  -2.385  25.041  0.00  0.00    +0.099 A 
ATOM     17  N   UNL     1      -0.933  -1.912  25.503  0.00  0.00    -0.243 NA
ATOM     18  C   UNL     1      -0.571  -1.248  25.173  0.00  0.00    +0.096 A 
ENDBRANCH  12  13
ENDBRANCH  11  12
TORSDOF 7
ENDMDL
MODEL 3
REMARK VINA RESULT:     -11.5      1.219      3.779
REMARK  Name = 
REMARK  7 active torsions:
REMARK  status: ('A' for Active; 'I' for Inactive)
REMARK    1  A    between atoms: C_2  and  C_4
REMARK    2  A    between atoms: C_4  and  C_5
REMARK    3  A    between atoms: C_7  and  C_25
REMARK    4  A    between atoms: N_11  and  C_12
REMARK    5  A    between atoms: C_12  and  C_13
REMARK    6  A    between atoms: N_27  and  C_28
REMARK    7  A    between atoms: C_28  and  C_29
REMARK                            x       y       z     vdW  Elec       q    Type
REMARK                         _______ _______ _______ _____ _____    ______ ____
ROOT
ATOM      5  C   UNL     1      -1.179   2.524  25.097  0.00  0.00    +0.095 C 
ATOM      6  N   UNL     1      -1.150   1.730  24.874  0.00  0.00    -0.207 NA
ATOM      7  C   UNL     1      -1.775   1.227  24.681  0.00  0.00    +0.155 C 
ATOM      8  C   UNL     1      -2.583   1.393  24.665  0.00  0.00    +0.055 C 
ATOM      9  C   UNL     1      -2.965   2.104  24.836  0.00  0.00    -0.002 A 
ATOM     10  C   UNL     1      -3.783   2.201  24.798  0.00  0.00    +0.072 A 
ATOM     11  N   UNL     1      -3.959   2.980  25.006  0.00  0.00    -0.322 N 
ATOM     19  C   UNL     1      -3.248   3.365  25.172  0.00  0.00    +0.060 A 
ATOM     20  C   UNL     1      -2.634   2.824  25.067  0.00  0.00    +0.011 A 
ATOM     21  C   UNL     1      -1.838   3.010  25.183  0.00  0.00    -0.005 A 
ATOM     22  C   UNL     1      -1.686   3.829  25.427  0.00  0.00    -0.003 A 
ATOM     23  C   UNL     1      -2.299   4.371  25.532  0.00  0.00    +0.001 A 
ATOM     24  C   UNL     1      -3.080   4.138  25.404  0.00  0.00    +0.017 A 
ENDROOT
BRANCH   7  25
ATOM     25  C   UNL     1      -1.564   0.455  24.479  0.00  0.00    +0.258 C 
ATOM     26  O   UNL     1      -0.985   0.323  23.907  0.00  0.00    -0.272 OA
ATOM     27  N   UNL     1      -1.933  -0.184  24.849  0.00  0.00    -0.199 NA
BRANCH  27  28
ATOM     28  C   UNL     1      -1.722  -0.955  24.647  0.00  0.00    +0.142 C 
BRANCH  28  29
ATOM     29  C   UNL     1      -2.255  -1.573  24.769  0.00  0.00    -0.001 A 
ATOM     30  C   UNL     1      -2.229  -2.241  24.285  0.00  0.00    -0.003 A 
ATOM     31  C   UNL     1      -2.762  -2.860  24.406  0.00  0.00    -0.000 A 
ATOM     32  C   UNL     1      -3.321  -2.810  25.011  0.00  0.00    -0.000 A 
ATOM     33  C   UNL     1      -3.347  -2.141  25.495  0.00  0.00    -0.000 A 
ATOM     34  C   UNL     1      -2.814  -1.523  25.374  0.00  0.00    -0.003 A 
ENDBRANCH  28  29
ENDBRANCH  27  28
ENDBRANCH   7  25
BRANCH   5   4
ATOM      4  C   UNL     1      -0.450   2.877  25.255  0.00  0.00    +0.022 C 
BRANCH   4   2
ATOM      1  C   UNL     1       0.746   2.098  25.178  0.00  0.00    +0.000 C 
ATOM      2  C   UNL     1       0.146   2.443  25.627  0.00  0.00    +0.002 C 
ATOM      3  C   UNL     1       0.142   2.356  26.448  0.00  0.00    +0.000 C 
ENDBRANCH   4   2
ENDBRANCH   5   4
BRANCH  11  12
ATOM     12  C   UNL     1      -4.711   3.316  25.041  0.00  0.00    +0.134 C 
BRANCH  12  13
ATOM     13  C   UNL     1      -5.345   2.877  25.334  0.00  0.00    +0.020 A 
ATOM     14  C   UNL     1      -5.777   2.390  24.827  0.00  0.00    +0.001 A 
ATOM     15  C   UNL     1      -6.413   1.951  25.120  0.00  0.00    +0.020 A 
ATOM     16  C   UNL     1      -6.615   2.000  25.918  0.00  0.00    +0.099 A 
ATOM     17  N   UNL     1      -6.182   2.488  26.424  0.00  0.00    -0.243 NA
ATOM     18  C   UNL     1      -5.547   2.926  26.132  0.00  0.00    +0.096 A 
ENDBRANCH  12  13
ENDBRANCH  11  12
TORSDOF 7
ENDMDL
MODEL 4
REMARK VINA RESULT:     -11.5      1.526      3.946
REMARK  Name = 
REMARK  7 active torsions:
REMARK  status: ('A' for Active; 'I' for Inactive)
REMARK    1  A    between atoms: C_2  and  C_4
REMARK    2  A    between atoms: C_4  and  C_5
REMARK    3  A    between atoms: C_7  and  C_25
REMARK    4  A    between atoms: N_11  and  C_12
REMARK    5  A    between atoms: C_12  and  C_13
REMARK    6  A    between atoms: N_27  and  C_28
REMARK    7  A    between atoms: C_28  and  C_29
REMARK                            x       y       z     vdW  Elec       q    Type
REMARK                         _______ _______ _______ _____ _____    ______ ____
ROOT
ATOM      5  C   UNL     1      -2.510  -1.377  24.511  0.00  0.00    +0.095 C 
ATOM      6  N   UNL     1      -3.221  -0.964  24.448  0.00  0.00    -0.207 NA
ATOM      7  C   UNL     1      -3.340  -0.148  24.413  0.00  0.00    +0.155 C 
ATOM      8  C   UNL     1      -2.778   0.455  24.432  0.00  0.00    +0.055 C 
ATOM      9  C   UNL     1      -1.957   0.392  24.492  0.00  0.00    -0.002 A 
ATOM     10  C   UNL     1      -1.451   1.043  24.506  0.00  0.00    +0.072 A 
ATOM     11  N   UNL     1      -0.677   0.763  24.569  0.00  0.00    -0.322 N 
ATOM     19  C   UNL     1      -0.705  -0.061  24.594  0.00  0.00    +0.060 A 
ATOM     20  C   UNL     1      -1.497  -0.291  24.546  0.00  0.00    +0.011 A 
ATOM     21  C   UNL     1      -1.743  -1.078  24.555  0.00  0.00    -0.005 A 
ATOM     22  C   UNL     1      -1.104  -1.662  24.619  0.00  0.00    -0.003 A 
ATOM     23  C   UNL     1      -0.312  -1.433  24.667  0.00  0.00    +0.001 A 
ATOM     24  C   UNL     1      -0.113  -0.632  24.655  0.00  0.00    +0.017 A 
ENDROOT
BRANCH   7  25
ATOM     25  C   UNL     1      -4.126   0.097  24.350  0.00  0.00    +0.258 C 
ATOM     26  O   UNL     1      -4.633  -0.279  23.819  0.00  0.00    -0.272 OA
ATOM     27  N   UNL     1      -4.403   0.717  24.818  0.00  0.00    -0.199 NA
BRANCH  27  28
ATOM     28  C   UNL     1      -5.188   0.962  24.755  0.00  0.00    +0.142 C 
BRANCH  28  29
ATOM     29  C   UNL     1      -5.434   1.657  25.126  0.00  0.00    -0.001 A 
ATOM     30  C   UNL     1      -5.935   1.620  25.781  0.00  0.00    -0.003 A 
ATOM     31  C   UNL     1      -6.182   2.315  26.151  0.00  0.00    -0.000 A 
ATOM     32  C   UNL     1      -5.927   3.046  25.867  0.00  0.00    -0.000 A 
ATOM     33  C   UNL     1      -5.426   3.083  25.212  0.00  0.00    -0.000 A 
ATOM     34  C   UNL     1      -5.180   2.389  24.842  0.00  0.00    -0.003 A 
ENDBRANCH  28  29
ENDBRANCH  27  28
ENDBRANCH   7  25
BRANCH   5   4
ATOM      4  C   UNL     1      -2.576  -2.199  24.534  0.00  0.00    +0.022 C 
BRANCH   4   2
ATOM      1  C   UNL     1      -3.366  -2.563  25.668  0.00  0.00    +0.000 C 
ATOM      2  C   UNL     1      -3.253  -2.550  24.851  0.00  0.00    +0.002 C 
ATOM      3  C   UNL     1      -3.815  -2.888  24.350  0.00  0.00    +0.000 C 
ENDBRANCH   4   2
ENDBRANCH   5   4
BRANCH  11  12
ATOM     12  C   UNL     1       0.005   1.225  24.602  0.00  0.00    +0.134 C 
BRANCH  12  13
ATOM     13  C   UNL     1      -0.042   2.016  24.832  0.00  0.00    +0.020 A 
ATOM     14  C   UNL     1       0.004   2.216  25.630  0.00  0.00    +0.001 A 
ATOM     15  C   UNL     1      -0.043   3.008  25.861  0.00  0.00    +0.020 A 
ATOM     16  C   UNL     1      -0.136   3.598  25.291  0.00  0.00    +0.099 A 
ATOM     17  N   UNL     1      -0.182   3.397  24.492  0.00  0.00    -0.243 NA
ATOM     18  C   UNL     1      -0.135   2.606  24.262  0.00  0.00    +0.096 A 
ENDBRANCH  12  13
ENDBRANCH  11  12
TORSDOF 7
ENDMDL
MODEL 5
REMARK VINA RESULT:     -11.4      2.004      4.646
REMARK  Name = 
REMARK  7 active torsions:
REMARK  status: ('A' for Active; 'I' for Inactive)
REMARK    1  A    between atoms: C_2  and  C_4
REMARK    2  A    between atoms: C_4  and  C_5
REMARK    3  A    between atoms: C_7  and  C_25
REMARK    4  A    between atoms: N_11  and  C_12
REMARK    5  A    between atoms: C_12  and  C_13
REMARK    6  A    between atoms: N_27  and  C_28
REMARK    7  A    between atoms: C_28  and  C_29
REMARK                            x       y       z     vdW  Elec       q    Type
REMARK                         _______ _______ _______ _____ _____    ______ ____
ROOT
ATOM      5  C   UNL     1      -2.349   2.716  24.737  0.00  0.00    +0.095 C 
ATOM      6  N   UNL     1      -1.565   2.462  24.764  0.00  0.00    -0.207 NA
ATOM      7  C   UNL     1      -1.275   1.691  24.821  0.00  0.00    +0.155 C 
ATOM      8  C   UNL     1      -1.698   0.985  24.866  0.00  0.00    +0.055 C 
ATOM      9  C   UNL     1      -2.516   0.874  24.864  0.00  0.00    -0.002 A 
ATOM     10  C   UNL     1      -2.874   0.132  24.912  0.00  0.00    +0.072 A 
ATOM     11  N   UNL     1      -3.692   0.242  24.895  0.00  0.00    -0.322 N 
ATOM     19  C   UNL     1      -3.839   1.052  24.836  0.00  0.00    +0.060 A 
ATOM     20  C   UNL     1      -3.112   1.443  24.817  0.00  0.00    +0.011 A 
ATOM     21  C   UNL     1      -3.037   2.263  24.761  0.00  0.00    -0.005 A 
ATOM     22  C   UNL     1      -3.788   2.697  24.722  0.00  0.00    -0.003 A 
ATOM     23  C   UNL     1      -4.515   2.308  24.741  0.00  0.00    +0.001 A 
ATOM     24  C   UNL     1      -4.540   1.484  24.798  0.00  0.00    +0.017 A 
ENDROOT
BRANCH   7  25
ATOM     25  C   UNL     1      -0.453   1.618  24.836  0.00  0.00    +0.258 C 
ATOM     26  O   UNL     1      -0.032   1.829  25.513  0.00  0.00    -0.272 OA
ATOM     27  N   UNL     1      -0.053   1.334  24.172  0.00  0.00    -0.199 NA
BRANCH  27  28
ATOM     28  C   UNL     1       0.768   1.261  24.186  0.00  0.00    +0.142 C 
BRANCH  28  29
ATOM     29  C   UNL     1       1.154   0.827  23.600  0.00  0.00    -0.001 A 
ATOM     30  C   UNL     1       1.928   1.018  23.387  0.00  0.00    -0.003 A 
ATOM     31  C   UNL     1       2.314   0.584  22.800  0.00  0.00    -0.000 A 
ATOM     32  C   UNL     1       1.925  -0.041  22.427  0.00  0.00    -0.000 A 
ATOM     33  C   UNL     1       1.151  -0.232  22.640  0.00  0.00    -0.000 A 
ATOM     34  C   UNL     1       0.765   0.202  23.226  0.00  0.00    -0.003 A 
ENDBRANCH  28  29
ENDBRANCH  27  28
ENDBRANCH   7  25
BRANCH   5   4
ATOM      4  C   UNL     1      -2.459   3.531  24.679  0.00  0.00    +0.022 C 
BRANCH   4   2
ATOM      1  C   UNL     1      -1.384   4.466  24.788  0.00  0.00    +0.000 C 
ATOM      2  C   UNL     1      -2.000   4.043  25.136  0.00  0.00    +0.002 C 
ATOM      3  C   UNL     1      -2.158   4.130  25.942  0.00  0.00    +0.000 C 
ENDBRANCH   4   2
ENDBRANCH   5   4
BRANCH  11  12
ATOM     12  C   UNL     1      -4.263  -0.352  24.930  0.00  0.00    +0.134 C 
BRANCH  12  13
ATOM     13  C   UNL     1      -4.058  -1.132  24.754  0.00  0.00    +0.020 A 
ATOM     14  C   UNL     1      -4.204  -1.435  24.001  0.00  0.00    +0.001 A 
ATOM     15  C   UNL     1      -3.999  -2.216  23.825  0.00  0.00    +0.020 A 
ATOM     16  C   UNL     1      -3.650  -2.691  24.402  0.00  0.00    +0.099 A 
ATOM     17  N   UNL     1      -3.505  -2.386  25.155  0.00  0.00    -0.243 NA
ATOM     18  C   UNL     1      -3.709  -1.606  25.331  0.00  0.00    +0.096 A 
ENDBRANCH  12  13
ENDBRANCH  11  12
TORSDOF 7
ENDMDL
MODEL 6
REMARK VINA RESULT:     -11.4      1.709      3.797
REMARK  Name = 
REMARK  7 active torsions:
REMARK  status: ('A' for Active; 'I' for Inactive)
REMARK    1  A    between atoms: C_2  and  C_4
REMARK    2  A    between atoms: C_4  and  C_5
REMARK    3  A    between atoms: C_7  and  C_25
REMARK    4  A    between atoms: N_11  and  C_12
REMARK    5  A    between atoms: C_12  and  C_13
REMARK    6  A    between atoms: N_27  and  C_28
REMARK    7  A    between atoms: C_28  and  C_29
REMARK                            x       y       z     vdW  Elec       q    Type
REMARK                         _______ _______ _______ _____ _____    ______ ____
ROOT
ATOM      5  C   UNL     1      -0.351   1.138  24.446  0.00  0.00    +0.095 C 
ATOM      6  N   UNL     1      -0.734   0.460  24.719  0.00  0.00    -0.207 NA
ATOM      7  C   UNL     1      -1.465   0.399  25.096  0.00  0.00    +0.155 C 
ATOM      8  C   UNL     1      -1.993   1.001  25.294  0.00  0.00    +0.055 C 
ATOM      9  C   UNL     1      -1.921   1.813  25.164  0.00  0.00    -0.002 A 
ATOM     10  C   UNL     1      -2.492   2.363  25.390  0.00  0.00    +0.072 A 
ATOM     11  N   UNL     1      -2.228   3.112  25.169  0.00  0.00    -0.322 N 
ATOM     19  C   UNL     1      -1.492   3.026  24.806  0.00  0.00    +0.060 A 
ATOM     20  C   UNL     1      -1.302   2.223  24.803  0.00  0.00    +0.011 A 
ATOM     21  C   UNL     1      -0.603   1.921  24.483  0.00  0.00    -0.005 A 
ATOM     22  C   UNL     1      -0.069   2.516  24.144  0.00  0.00    -0.003 A 
ATOM     23  C   UNL     1      -0.258   3.319  24.147  0.00  0.00    +0.001 A 
ATOM     24  C   UNL     1      -0.970   3.574  24.478  0.00  0.00    +0.017 A 
ENDROOT
BRANCH   7  25
ATOM     25  C   UNL     1      -1.699  -0.365  25.303  0.00  0.00    +0.258 C 
ATOM     26  O   UNL     1      -1.325  -0.756  25.926  0.00  0.00    -0.272 OA
ATOM     27  N   UNL     1      -2.306  -0.737  24.886  0.00  0.00    -0.199 NA
BRANCH  27  28
ATOM     28  C   UNL     1      -2.540  -1.500  25.093  0.00  0.00    +0.142 C 
BRANCH  28  29
ATOM     29  C   UNL     1      -3.142  -1.876  24.670  0.00  0.00    -0.001 A 
ATOM     30  C   UNL     1      -3.724  -1.427  24.296  0.00  0.00    -0.003 A 
ATOM     31  C   UNL     1      -4.326  -1.802  23.874  0.00  0.00    -0.000 A 
ATOM     32  C   UNL     1      -4.345  -2.626  23.826  0.00  0.00    -0.000 A 
ATOM     33  C   UNL     1      -3.762  -3.074  24.201  0.00  0.00    -0.000 A 
ATOM     34  C   UNL     1      -3.161  -2.699  24.623  0.00  0.00    -0.003 A 
ENDBRANCH  28  29
ENDBRANCH  27  28
ENDBRANCH   7  25
BRANCH   5   4
ATOM      4  C   UNL     1       0.382   1.014  24.089  0.00  0.00    +0.022 C 
BRANCH   4   2
ATOM      1  C   UNL     1       0.162   0.366  22.834  0.00  0.00    +0.000 C 
ATOM      2  C   UNL     1       0.494   0.366  23.589  0.00  0.00    +0.002 C 
ATOM      3  C   UNL     1       0.937  -0.281  23.846  0.00  0.00    +0.000 C 
ENDBRANCH   4   2
ENDBRANCH   5   4
BRANCH  11  12
ATOM     12  C   UNL     1      -2.627   3.823  25.290  0.00  0.00    +0.134 C 
BRANCH  12  13
ATOM     13  C   UNL     1      -3.451   3.833  25.327  0.00  0.00    +0.020 A 
ATOM     14  C   UNL     1      -3.895   3.842  24.631  0.00  0.00    +0.001 A 
ATOM     15  C   UNL     1      -4.720   3.851  24.668  0.00  0.00    +0.020 A 
ATOM     16  C   UNL     1      -5.099   3.852  25.401  0.00  0.00    +0.099 A 
ATOM     17  N   UNL     1      -4.655   3.844  26.096  0.00  0.00    -0.243 NA
ATOM     18  C   UNL     1      -3.831   3.834  26.059  0.00  0.00    +0.096 A 
ENDBRANCH  12  13
ENDBRANCH  11  12
TORSDOF 7
ENDMDL
MODEL 7
REMARK VINA RESULT:     -11.4      2.194      3.664
REMARK  Name = 
REMARK  7 active torsions:
REMARK  status: ('A' for Active; 'I' for Inactive)
REMARK    1  A    between atoms: C_2  and  C_4
REMARK    2  A    between atoms: C_4  and  C_5
REMARK    3  A    between atoms: C_7  and  C_25
REMARK    4  A    between atoms: N_11  and  C_12
REMARK    5  A    between atoms: C_12  and  C_13
REMARK    6  A    between atoms: N_27  and  C_28
REMARK    7  A    between atoms: C_28  and  C_29
REMARK                            x       y       z     vdW  Elec       q    Type
REMARK                         _______ _______ _______ _____ _____    ______ ____
ROOT
ATOM      5  C   UNL     1      -3.510  -0.430  24.901  0.00  0.00    +0.095 C 
ATOM      6  N   UNL     1      -2.702  -0.591  24.878  0.00  0.00    -0.207 NA
ATOM      7  C   UNL     1      -2.071  -0.058  24.870  0.00  0.00    +0.155 C 
ATOM      8  C   UNL     1      -2.094   0.766  24.883  0.00  0.00    +0.055 C 
ATOM      9  C   UNL     1      -2.753   1.262  24.908  0.00  0.00    -0.002 A 
ATOM     10  C   UNL     1      -2.703   2.086  24.920  0.00  0.00    +0.072 A 
ATOM     11  N   UNL     1      -3.470   2.388  24.944  0.00  0.00    -0.322 N 
ATOM     19  C   UNL     1      -3.995   1.752  24.947  0.00  0.00    +0.060 A 
ATOM     20  C   UNL     1      -3.552   1.056  24.925  0.00  0.00    +0.011 A 
ATOM     21  C   UNL     1      -3.889   0.302  24.922  0.00  0.00    -0.005 A 
ATOM     22  C   UNL     1      -4.757   0.288  24.944  0.00  0.00    -0.003 A 
ATOM     23  C   UNL     1      -5.200   0.984  24.966  0.00  0.00    +0.001 A 
ATOM     24  C   UNL     1      -4.819   1.716  24.968  0.00  0.00    +0.017 A 
ENDROOT
BRANCH   7  25
ATOM     25  C   UNL     1      -1.318  -0.395  24.846  0.00  0.00    +0.258 C 
ATOM     26  O   UNL     1      -1.055  -0.863  25.472  0.00  0.00    -0.272 OA
ATOM     27  N   UNL     1      -0.829  -0.264  24.194  0.00  0.00    -0.199 NA
BRANCH  27  28
ATOM     28  C   UNL     1      -0.077  -0.600  24.169  0.00  0.00    +0.142 C 
BRANCH  28  29
ATOM     29  C   UNL     1       0.458  -0.372  23.583  0.00  0.00    -0.001 A 
ATOM     30  C   UNL     1       0.403  -0.696  22.826  0.00  0.00    -0.003 A 
ATOM     31  C   UNL     1       0.937  -0.467  22.240  0.00  0.00    -0.000 A 
ATOM     32  C   UNL     1       1.527   0.083  22.412  0.00  0.00    -0.000 A 
ATOM     33  C   UNL     1       1.582   0.406  23.169  0.00  0.00    -0.000 A 
ATOM     34  C   UNL     1       1.048   0.179  23.755  0.00  0.00    -0.003 A 
ENDBRANCH  28  29
ENDBRANCH  27  28
ENDBRANCH   7  25
BRANCH   5   4
ATOM      4  C   UNL     1      -4.006  -1.089  24.903  0.00  0.00    +0.022 C 
BRANCH   4   2
ATOM      1  C   UNL     1      -3.500  -2.423  24.805  0.00  0.00    +0.000 C 
ATOM      2  C   UNL     1      -3.815  -1.750  24.446  0.00  0.00    +0.002 C 
ATOM      3  C   UNL     1      -3.940  -1.737  23.630  0.00  0.00    +0.000 C 
ENDBRANCH   4   2
ENDBRANCH   5   4
BRANCH  11  12
ATOM     12  C   UNL     1      -3.677   3.186  24.962  0.00  0.00    +0.134 C 
BRANCH  12  13
ATOM     13  C   UNL     1      -3.106   3.757  25.130  0.00  0.00    +0.020 A 
ATOM     14  C   UNL     1      -2.986   4.003  25.908  0.00  0.00    +0.001 A 
ATOM     15  C   UNL     1      -2.414   4.575  26.077  0.00  0.00    +0.020 A 
ATOM     16  C   UNL     1      -1.964   4.899  25.467  0.00  0.00    +0.099 A 
ATOM     17  N   UNL     1      -2.084   4.653  24.689  0.00  0.00    -0.243 NA
ATOM     18  C   UNL     1      -2.655   4.082  24.520  0.00  0.00    +0.096 A 
ENDBRANCH  12  13
ENDBRANCH  11  12
TORSDOF 7
ENDMDL
MODEL 8
REMARK VINA RESULT:     -10.5      1.661      5.349
REMARK  Name = 
REMARK  7 active torsions:
REMARK  status: ('A' for Active; 'I' for Inactive)
REMARK    1  A    between atoms: C_2  and  C_4
REMARK    2  A    between atoms: C_4  and  C_5
REMARK    3  A    between atoms: C_7  and  C_25
REMARK    4  A    between atoms: N_11  and  C_12
REMARK    5  A    between atoms: C_12  and  C_13
REMARK    6  A    between atoms: N_27  and  C_28
REMARK    7  A    between atoms: C_28  and  C_29
REMARK                            x       y       z     vdW  Elec       q    Type
REMARK                         _______ _______ _______ _____ _____    ______ ____
ROOT
ATOM      5  C   UNL     1      -1.891  -0.536  24.478  0.00  0.00    +0.095 C 
ATOM      6  N   UNL     1      -1.437   0.144  24.370  0.00  0.00    -0.207 NA
ATOM      7  C   UNL     1      -1.688   0.929  24.331  0.00  0.00    +0.155 C 
ATOM      8  C   UNL     1      -2.454   1.228  24.391  0.00  0.00    +0.055 C 
ATOM      9  C   UNL     1      -3.160   0.815  24.505  0.00  0.00    -0.002 A 
ATOM     10  C   UNL     1      -3.897   1.181  24.556  0.00  0.00    +0.072 A 
ATOM     11  N   UNL     1      -4.466   0.594  24.669  0.00  0.00    -0.322 N 
ATOM     19  C   UNL     1      -4.080  -0.135  24.688  0.00  0.00    +0.060 A 
ATOM     20  C   UNL     1      -3.272   0.001  24.586  0.00  0.00    +0.011 A 
ATOM     21  C   UNL     1      -2.707  -0.600  24.574  0.00  0.00    -0.005 A 
ATOM     22  C   UNL     1      -3.023  -1.402  24.678  0.00  0.00    -0.003 A 
ATOM     23  C   UNL     1      -3.830  -1.539  24.779  0.00  0.00    +0.001 A 
ATOM     24  C   UNL     1      -4.359  -0.905  24.784  0.00  0.00    +0.017 A 
ENDROOT
BRANCH   7  25
ATOM     25  C   UNL     1      -1.093   1.490  24.218  0.00  0.00    +0.258 C 
ATOM     26  O   UNL     1      -0.478   1.337  23.690  0.00  0.00    -0.272 OA
ATOM     27  N   UNL     1      -1.114   2.203  24.632  0.00  0.00    -0.199 NA
BRANCH  27  28
ATOM     28  C   UNL     1      -0.520   2.763  24.519  0.00  0.00    +0.142 C 
BRANCH  28  29
ATOM     29  C   UNL     1      -0.666   3.559  24.682  0.00  0.00    -0.001 A 
ATOM     30  C   UNL     1      -1.123   3.768  25.337  0.00  0.00    -0.003 A 
ATOM     31  C   UNL     1      -1.270   4.564  25.500  0.00  0.00    -0.000 A 
ATOM     32  C   UNL     1      -0.960   5.150  25.008  0.00  0.00    -0.000 A 
ATOM     33  C   UNL     1      -0.503   4.940  24.354  0.00  0.00    -0.000 A 
ATOM     34  C   UNL     1      -0.356   4.145  24.190  0.00  0.00    -0.003 A 
ENDBRANCH  28  29
ENDBRANCH  27  28
ENDBRANCH   7  25
BRANCH   5   4
ATOM      4  C   UNL     1      -1.472  -1.247  24.492  0.00  0.00    +0.022 C 
BRANCH   4   2
ATOM      1  C   UNL     1      -0.701  -1.306  25.694  0.00  0.00    +0.000 C 
ATOM      2  C   UNL     1      -0.739  -1.286  24.870  0.00  0.00    +0.002 C 
ATOM      3  C   UNL     1      -0.045  -1.306  24.424  0.00  0.00    +0.000 C 
ENDBRANCH   4   2
ENDBRANCH   5   4
BRANCH  11  12
ATOM     12  C   UNL     1      -5.278   0.714  24.749  0.00  0.00    +0.134 C 
BRANCH  12  13
ATOM     13  C   UNL     1      -5.561   1.400  25.108  0.00  0.00    +0.020 A 
ATOM     14  C   UNL     1      -5.781   1.389  25.902  0.00  0.00    +0.001 A 
ATOM     15  C   UNL     1      -6.064   2.077  26.262  0.00  0.00    +0.020 A 
ATOM     16  C   UNL     1      -6.127   2.774  25.825  0.00  0.00    +0.099 A 
ATOM     17  N   UNL     1      -5.906   2.784  25.030  0.00  0.00    -0.243 NA
ATOM     18  C   UNL     1      -5.624   2.098  24.671  0.00  0.00    +0.096 A 
ENDBRANCH  12  13
ENDBRANCH  11  12
TORSDOF 7
ENDMDL
