MODEL 1
REMARK VINA RESULT:     -12.2      0.000      0.000
REMARK  Name = 
REMARK  6 active torsions:
REMARK  status: ('A' for Active; 'I' for Inactive)
REMARK    1  A    between atoms: C_5  and  O_6
REMARK    2  A    between atoms: O_6  and  C_7
REMARK    3  A    between atoms: C_7  and  C_8
REMARK    4  A    between atoms: C_11  and  C_13
REMARK    5  A    between atoms: N_16  and  C_17
REMARK    6  A    between atoms: C_17  and  C_18
REMARK                            x       y       z     vdW  Elec       q    Type
REMARK                         _______ _______ _______ _____ _____    ______ ____
ROOT
ATOM     13  C   UNL     1      -4.131   2.883  24.868  0.00  0.00    +0.096 C 
ATOM     14  C   UNL     1      -4.261   3.534  24.377  0.00  0.00    +0.028 C 
ATOM     15  C   UNL     1      -3.724   4.123  24.587  0.00  0.00    +0.073 C 
ATOM     16  N   UNL     1      -3.262   3.837  25.207  0.00  0.00    -0.268 NA
ATOM     27  C   UNL     1      -3.514   3.070  25.381  0.00  0.00    +0.082 C 
ENDROOT
BRANCH  13  11
ATOM      8  C   UNL     1      -4.829   0.867  24.803  0.00  0.00    +0.270 A 
ATOM      9  N   UNL     1      -5.543   1.281  24.832  0.00  0.00    -0.108 NA
ATOM     10  N   UNL     1      -5.367   2.087  24.859  0.00  0.00    -0.112 NA
ATOM     11  C   UNL     1      -4.547   2.170  24.848  0.00  0.00    +0.227 A 
ATOM     12  O   UNL     1      -4.214   1.416  24.813  0.00  0.00    -0.420 OA
BRANCH   8   7
ATOM      7  C   UNL     1      -4.746   0.047  24.771  0.00  0.00    +0.291 C 
BRANCH   7   6
ATOM      6  O   UNL     1      -4.067  -0.287  24.440  0.00  0.00    -0.465 OA
BRANCH   6   5
ATOM      1  F   UNL     1      -3.636  -3.557  24.513  0.00  0.00    -0.204 F 
ATOM      2  C   UNL     1      -3.744  -2.740  24.494  0.00  0.00    +0.140 A 
ATOM      3  C   UNL     1      -3.438  -2.270  25.099  0.00  0.00    +0.033 A 
ATOM      4  C   UNL     1      -3.545  -1.452  25.080  0.00  0.00    +0.039 A 
ATOM      5  C   UNL     1      -3.960  -1.104  24.458  0.00  0.00    +0.139 A 
ATOM     28  C   UNL     1      -4.267  -1.575  23.853  0.00  0.00    +0.039 A 
ATOM     29  C   UNL     1      -4.159  -2.392  23.871  0.00  0.00    +0.033 A 
ENDBRANCH   6   5
ENDBRANCH   7   6
ENDBRANCH   8   7
ENDBRANCH  13  11
BRANCH  16  17
ATOM     17  C   UNL     1      -2.654   4.245  25.588  0.00  0.00    +0.099 C 
BRANCH  17  18
ATOM     18  C   UNL     1      -1.878   3.966  25.543  0.00  0.00    -0.003 A 
ATOM     19  C   UNL     1      -1.357   4.284  24.987  0.00  0.00    +0.000 A 
ATOM     20  C   UNL     1      -0.582   4.006  24.943  0.00  0.00    +0.040 A 
ATOM     21  C   UNL     1      -0.327   3.409  25.453  0.00  0.00    +0.176 A 
ATOM     22  O   UNL     1       0.398   3.027  25.538  0.00  0.00    -0.435 OA
ATOM     23  C   UNL     1       0.326   2.474  26.145  0.00  0.00    +0.429 C 
ATOM     24  O   UNL     1      -0.444   2.514  26.436  0.00  0.00    -0.435 OA
ATOM     25  C   UNL     1      -0.848   3.092  26.008  0.00  0.00    +0.176 A 
ATOM     26  C   UNL     1      -1.624   3.370  26.053  0.00  0.00    +0.037 A 
ENDBRANCH  17  18
ENDBRANCH  16  17
TORSDOF 6
ENDMDL
MODEL 2
REMARK VINA RESULT:     -11.7      2.382      5.222
REMARK  Name = 
REMARK  6 active torsions:
REMARK  status: ('A' for Active; 'I' for Inactive)
REMARK    1  A    between atoms: C_5  and  O_6
REMARK    2  A    between atoms: O_6  and  C_7
REMARK    3  A    between atoms: C_7  and  C_8
REMARK    4  A    between atoms: C_11  and  C_13
REMARK    5  A    between atoms: N_16  and  C_17
REMARK    6  A    between atoms: C_17  and  C_18
REMARK                            x       y       z     vdW  Elec       q    Type
REMARK                         _______ _______ _______ _____ _____    ______ ____
ROOT
ATOM     13  C   UNL     1      -4.321   0.690  24.830  0.00  0.00    +0.096 C 
ATOM     14  C   UNL     1      -4.711   0.249  24.252  0.00  0.00    +0.028 C 
ATOM     15  C   UNL     1      -4.557  -0.549  24.393  0.00  0.00    +0.073 C 
ATOM     16  N   UNL     1      -4.071  -0.601  25.057  0.00  0.00    -0.268 NA
ATOM     27  C   UNL     1      -3.925   0.165  25.327  0.00  0.00    +0.082 C 
ENDROOT
BRANCH  13  11
ATOM      8  C   UNL     1      -3.924   2.784  24.950  0.00  0.00    +0.270 A 
ATOM      9  N   UNL     1      -4.744   2.771  25.053  0.00  0.00    -0.108 NA
ATOM     10  N   UNL     1      -4.991   1.985  25.020  0.00  0.00    -0.112 NA
ATOM     11  C   UNL     1      -4.326   1.513  24.897  0.00  0.00    +0.227 A 
ATOM     12  O   UNL     1      -3.667   2.007  24.854  0.00  0.00    -0.420 OA
BRANCH   8   7
ATOM      7  C   UNL     1      -3.448   3.457  24.944  0.00  0.00    +0.291 C 
BRANCH   7   6
ATOM      6  O   UNL     1      -2.823   3.526  25.480  0.00  0.00    -0.465 OA
BRANCH   6   5
ATOM      1  F   UNL     1      -0.298   5.545  24.820  0.00  0.00    -0.204 F 
ATOM      2  C   UNL     1      -0.929   5.040  24.985  0.00  0.00    +0.140 A 
ATOM      3  C   UNL     1      -0.822   4.223  24.958  0.00  0.00    +0.033 A 
ATOM      4  C   UNL     1      -1.454   3.718  25.123  0.00  0.00    +0.039 A 
ATOM      5  C   UNL     1      -2.193   4.031  25.316  0.00  0.00    +0.139 A 
ATOM     28  C   UNL     1      -2.299   4.849  25.343  0.00  0.00    +0.039 A 
ATOM     29  C   UNL     1      -1.668   5.353  25.178  0.00  0.00    +0.033 A 
ENDBRANCH   6   5
ENDBRANCH   7   6
ENDBRANCH   8   7
ENDBRANCH  13  11
BRANCH  16  17
ATOM     17  C   UNL     1      -3.781  -1.296  25.393  0.00  0.00    +0.099 C 
BRANCH  17  18
ATOM     18  C   UNL     1      -3.032  -1.575  25.184  0.00  0.00    -0.003 A 
ATOM     19  C   UNL     1      -2.958  -2.189  24.638  0.00  0.00    +0.000 A 
ATOM     20  C   UNL     1      -2.210  -2.467  24.430  0.00  0.00    +0.040 A 
ATOM     21  C   UNL     1      -1.536  -2.132  24.767  0.00  0.00    +0.176 A 
ATOM     22  O   UNL     1      -0.733  -2.289  24.669  0.00  0.00    -0.435 OA
ATOM     23  C   UNL     1      -0.310  -1.774  25.154  0.00  0.00    +0.429 C 
ATOM     24  O   UNL     1      -0.853  -1.297  25.552  0.00  0.00    -0.435 OA
ATOM     25  C   UNL     1      -1.610  -1.518  25.313  0.00  0.00    +0.176 A 
ATOM     26  C   UNL     1      -2.359  -1.239  25.522  0.00  0.00    +0.037 A 
ENDBRANCH  17  18
ENDBRANCH  16  17
TORSDOF 6
ENDMDL
MODEL 3
REMARK VINA RESULT:     -11.7      1.958      3.217
REMARK  Name = 
REMARK  6 active torsions:
REMARK  status: ('A' for Active; 'I' for Inactive)
REMARK    1  A    between atoms: C_5  and  O_6
REMARK    2  A    between atoms: O_6  and  C_7
REMARK    3  A    between atoms: C_7  and  C_8
REMARK    4  A    between atoms: C_11  and  C_13
REMARK    5  A    between atoms: N_16  and  C_17
REMARK    6  A    between atoms: C_17  and  C_18
REMARK                            x       y       z     vdW  Elec       q    Type
REMARK                         _______ _______ _______ _____ _____    ______ ____
ROOT
ATOM     13  C   UNL     1      -0.702   1.611  25.130  0.00  0.00    +0.096 C 
ATOM     14  C   UNL     1      -0.168   1.967  25.650  0.00  0.00    +0.028 C 
ATOM     15  C   UNL     1      -0.357   2.768  25.700  0.00  0.00    +0.073 C 
ATOM     16  N   UNL     1      -1.007   2.908  25.213  0.00  0.00    -0.268 NA
ATOM     27  C   UNL     1      -1.221   2.193  24.860  0.00  0.00    +0.082 C 
ENDROOT
BRANCH  13  11
ATOM      8  C   UNL     1      -1.137  -0.430  24.681  0.00  0.00    +0.270 A 
ATOM      9  N   UNL     1      -0.331  -0.396  24.505  0.00  0.00    -0.108 NA
ATOM     10  N   UNL     1      -0.071   0.373  24.652  0.00  0.00    -0.112 NA
ATOM     11  C   UNL     1      -0.715   0.814  24.919  0.00  0.00    +0.227 A 
ATOM     12  O   UNL     1      -1.374   0.317  24.937  0.00  0.00    -0.420 OA
BRANCH   8   7
ATOM      7  C   UNL     1      -1.620  -1.095  24.614  0.00  0.00    +0.291 C 
BRANCH   7   6
ATOM      6  O   UNL     1      -2.381  -1.088  24.937  0.00  0.00    -0.465 OA
BRANCH   6   5
ATOM      1  F   UNL     1      -4.719  -3.053  23.690  0.00  0.00    -0.204 F 
ATOM      2  C   UNL     1      -4.135  -2.562  24.001  0.00  0.00    +0.140 A 
ATOM      3  C   UNL     1      -4.196  -1.744  23.918  0.00  0.00    +0.033 A 
ATOM      4  C   UNL     1      -3.611  -1.252  24.230  0.00  0.00    +0.039 A 
ATOM      5  C   UNL     1      -2.964  -1.579  24.625  0.00  0.00    +0.139 A 
ATOM     28  C   UNL     1      -2.904  -2.398  24.708  0.00  0.00    +0.039 A 
ATOM     29  C   UNL     1      -3.488  -2.889  24.396  0.00  0.00    +0.033 A 
ENDBRANCH   6   5
ENDBRANCH   7   6
ENDBRANCH   8   7
ENDBRANCH  13  11
BRANCH  16  17
ATOM     17  C   UNL     1      -1.379   3.635  25.098  0.00  0.00    +0.099 C 
BRANCH  17  18
ATOM     18  C   UNL     1      -2.165   3.739  25.330  0.00  0.00    -0.003 A 
ATOM     19  C   UNL     1      -2.338   3.999  26.094  0.00  0.00    +0.000 A 
ATOM     20  C   UNL     1      -3.122   4.103  26.326  0.00  0.00    +0.040 A 
ATOM     21  C   UNL     1      -3.734   3.946  25.795  0.00  0.00    +0.176 A 
ATOM     22  O   UNL     1      -4.554   3.996  25.867  0.00  0.00    -0.435 OA
ATOM     23  C   UNL     1      -4.888   3.767  25.148  0.00  0.00    +0.429 C 
ATOM     24  O   UNL     1      -4.274   3.575  24.632  0.00  0.00    -0.435 OA
ATOM     25  C   UNL     1      -3.561   3.685  25.032  0.00  0.00    +0.176 A 
ATOM     26  C   UNL     1      -2.776   3.581  24.799  0.00  0.00    +0.037 A 
ENDBRANCH  17  18
ENDBRANCH  16  17
TORSDOF 6
ENDMDL
