MODEL 1
REMARK VINA RESULT:      -9.5      0.000      0.000
REMARK  Name = 
REMARK  7 active torsions:
REMARK  status: ('A' for Active; 'I' for Inactive)
REMARK    1  A    between atoms: C_3  and  N_17
REMARK    2  A    between atoms: C_6  and  C_7
REMARK    3  A    between atoms: C_7  and  N_8
REMARK    4  A    between atoms: C_9  and  C_11
REMARK    5  A    between atoms: N_17  and  C_18
REMARK    6  A    between atoms: C_18  and  C_19
REMARK    7  A    between atoms: C_23  and  C_25
REMARK                            x       y       z     vdW  Elec       q    Type
REMARK                         _______ _______ _______ _____ _____    ______ ____
ROOT
ATOM      1  O   UNL     1      -3.926   1.231  25.725  0.00  0.00    -0.219 OA
ATOM      2  C   UNL     1      -3.854   1.405  24.922  0.00  0.00    +0.199 C 
ATOM      3  C   UNL     1      -3.948   0.871  24.300  0.00  0.00    +0.135 C 
ATOM      4  C   UNL     1      -3.828   1.280  23.593  0.00  0.00    +0.162 C 
ATOM      5  O   UNL     1      -3.661   2.065  23.778  0.00  0.00    -0.350 OA
ATOM      6  C   UNL     1      -3.677   2.143  24.599  0.00  0.00    +0.169 C 
ENDROOT
BRANCH   6   7
ATOM      7  C   UNL     1      -3.540   2.837  25.023  0.00  0.00    +0.148 C 
BRANCH   7   8
ATOM      8  N   UNL     1      -2.859   3.281  24.880  0.00  0.00    -0.199 NA
ATOM      9  C   UNL     1      -2.669   3.916  25.371  0.00  0.00    +0.265 C 
ATOM     10  O   UNL     1      -3.161   4.108  26.005  0.00  0.00    -0.268 OA
BRANCH   9  11
ATOM     11  C   UNL     1      -1.989   4.360  25.227  0.00  0.00    +0.058 A 
ATOM     12  C   UNL     1      -2.040   5.180  25.150  0.00  0.00    +0.025 A 
ATOM     13  C   UNL     1      -1.359   5.623  25.006  0.00  0.00    +0.099 A 
ATOM     14  N   UNL     1      -0.628   5.247  24.940  0.00  0.00    -0.242 NA
ATOM     15  C   UNL     1      -0.577   4.427  25.018  0.00  0.00    +0.099 A 
ATOM     16  C   UNL     1      -1.258   3.983  25.162  0.00  0.00    +0.025 A 
ENDBRANCH   9  11
ENDBRANCH   7   8
ENDBRANCH   6   7
BRANCH   3  17
ATOM     17  N   UNL     1      -4.129   0.069  24.372  0.00  0.00    -0.209 NA
BRANCH  17  18
ATOM     18  C   UNL     1      -3.899  -0.460  23.783  0.00  0.00    +0.115 C 
BRANCH  18  19
ATOM     19  C   UNL     1      -3.754  -1.251  23.972  0.00  0.00    -0.004 A 
ATOM     20  C   UNL     1      -4.363  -1.805  23.921  0.00  0.00    -0.003 A 
ATOM     21  C   UNL     1      -4.218  -2.595  24.110  0.00  0.00    +0.000 A 
ATOM     22  C   UNL     1      -3.465  -2.830  24.350  0.00  0.00    +0.010 A 
ATOM     23  C   UNL     1      -2.856  -2.275  24.401  0.00  0.00    +0.068 A 
ATOM     24  C   UNL     1      -3.001  -1.486  24.212  0.00  0.00    +0.007 A 
BRANCH  23  25
ATOM     25  C   UNL     1      -2.102  -2.511  24.641  0.00  0.00    +0.100 C 
ATOM     26  N   UNL     1      -1.349  -2.748  24.880  0.00  0.00    -0.191 NA
ENDBRANCH  23  25
ENDBRANCH  18  19
ENDBRANCH  17  18
ENDBRANCH   3  17
TORSDOF 7
ENDMDL
MODEL 2
REMARK VINA RESULT:      -9.3      2.146      6.126
REMARK  Name = 
REMARK  7 active torsions:
REMARK  status: ('A' for Active; 'I' for Inactive)
REMARK    1  A    between atoms: C_3  and  N_17
REMARK    2  A    between atoms: C_6  and  C_7
REMARK    3  A    between atoms: C_7  and  N_8
REMARK    4  A    between atoms: C_9  and  C_11
REMARK    5  A    between atoms: N_17  and  C_18
REMARK    6  A    between atoms: C_18  and  C_19
REMARK    7  A    between atoms: C_23  and  C_25
REMARK                            x       y       z     vdW  Elec       q    Type
REMARK                         _______ _______ _______ _____ _____    ______ ____
ROOT
ATOM      1  O   UNL     1      -0.707   0.940  25.828  0.00  0.00    -0.219 OA
ATOM      2  C   UNL     1      -0.589   0.923  25.011  0.00  0.00    +0.199 C 
ATOM      3  C   UNL     1      -0.461   1.577  24.526  0.00  0.00    +0.135 C 
ATOM      4  C   UNL     1      -0.371   1.307  23.752  0.00  0.00    +0.162 C 
ATOM      5  O   UNL     1      -0.444   0.486  23.759  0.00  0.00    -0.350 OA
ATOM      6  C   UNL     1      -0.578   0.248  24.537  0.00  0.00    +0.169 C 
ENDROOT
BRANCH   6   7
ATOM      7  C   UNL     1      -0.684  -0.528  24.795  0.00  0.00    +0.148 C 
BRANCH   7   8
ATOM      8  N   UNL     1      -1.410  -0.904  24.687  0.00  0.00    -0.199 NA
ATOM      9  C   UNL     1      -1.502  -1.695  24.904  0.00  0.00    +0.265 C 
ATOM     10  O   UNL     1      -0.867  -2.110  25.227  0.00  0.00    -0.268 OA
BRANCH   9  11
ATOM     11  C   UNL     1      -2.229  -2.071  24.796  0.00  0.00    +0.058 A 
ATOM     12  C   UNL     1      -2.877  -1.853  25.257  0.00  0.00    +0.025 A 
ATOM     13  C   UNL     1      -3.604  -2.228  25.150  0.00  0.00    +0.099 A 
ATOM     14  N   UNL     1      -3.682  -2.822  24.581  0.00  0.00    -0.242 NA
ATOM     15  C   UNL     1      -3.033  -3.039  24.120  0.00  0.00    +0.099 A 
ATOM     16  C   UNL     1      -2.306  -2.663  24.228  0.00  0.00    +0.025 A 
ENDBRANCH   9  11
ENDBRANCH   7   8
ENDBRANCH   6   7
BRANCH   3  17
ATOM     17  N   UNL     1      -0.429   2.364  24.772  0.00  0.00    -0.209 NA
BRANCH  17  18
ATOM     18  C   UNL     1      -0.753   2.958  24.300  0.00  0.00    +0.115 C 
BRANCH  18  19
ATOM     19  C   UNL     1      -1.015   3.662  24.643  0.00  0.00    -0.004 A 
ATOM     20  C   UNL     1      -0.568   4.351  24.561  0.00  0.00    -0.003 A 
ATOM     21  C   UNL     1      -0.830   5.054  24.904  0.00  0.00    +0.000 A 
ATOM     22  C   UNL     1      -1.537   5.068  25.328  0.00  0.00    +0.010 A 
ATOM     23  C   UNL     1      -1.983   4.379  25.410  0.00  0.00    +0.068 A 
ATOM     24  C   UNL     1      -1.722   3.676  25.068  0.00  0.00    +0.007 A 
BRANCH  23  25
ATOM     25  C   UNL     1      -2.690   4.393  25.835  0.00  0.00    +0.100 C 
ATOM     26  N   UNL     1      -3.397   4.409  26.260  0.00  0.00    -0.191 NA
ENDBRANCH  23  25
ENDBRANCH  18  19
ENDBRANCH  17  18
ENDBRANCH   3  17
TORSDOF 7
ENDMDL
MODEL 3
REMARK VINA RESULT:      -8.8      1.141      5.597
REMARK  Name = 
REMARK  7 active torsions:
REMARK  status: ('A' for Active; 'I' for Inactive)
REMARK    1  A    between atoms: C_3  and  N_17
REMARK    2  A    between atoms: C_6  and  C_7
REMARK    3  A    between atoms: C_7  and  N_8
REMARK    4  A    between atoms: C_9  and  C_11
REMARK    5  A    between atoms: N_17  and  C_18
REMARK    6  A    between atoms: C_18  and  C_19
REMARK    7  A    between atoms: C_23  and  C_25
REMARK                            x       y       z     vdW  Elec       q    Type
REMARK                         _______ _______ _______ _____ _____    ______ ____
ROOT
ATOM      1  O   UNL     1      -3.327   1.671  23.612  0.00  0.00    -0.219 OA
ATOM      2  C   UNL     1      -3.782   1.770  24.292  0.00  0.00    +0.199 C 
ATOM      3  C   UNL     1      -3.781   2.432  24.784  0.00  0.00    +0.135 C 
ATOM      4  C   UNL     1      -4.317   2.296  25.396  0.00  0.00    +0.162 C 
ATOM      5  O   UNL     1      -4.649   1.550  25.283  0.00  0.00    -0.350 OA
ATOM      6  C   UNL     1      -4.319   1.225  24.601  0.00  0.00    +0.169 C 
ENDROOT
BRANCH   6   7
ATOM      7  C   UNL     1      -4.495   0.484  24.283  0.00  0.00    +0.148 C 
BRANCH   7   8
ATOM      8  N   UNL     1      -4.094  -0.185  24.550  0.00  0.00    -0.199 NA
ATOM      9  C   UNL     1      -4.340  -0.936  24.312  0.00  0.00    +0.265 C 
ATOM     10  O   UNL     1      -4.986  -1.017  23.806  0.00  0.00    -0.268 OA
BRANCH   9  11
ATOM     11  C   UNL     1      -3.939  -1.606  24.580  0.00  0.00    +0.058 A 
ATOM     12  C   UNL     1      -3.821  -2.246  24.073  0.00  0.00    +0.025 A 
ATOM     13  C   UNL     1      -3.420  -2.915  24.341  0.00  0.00    +0.099 A 
ATOM     14  N   UNL     1      -3.138  -2.945  25.116  0.00  0.00    -0.242 NA
ATOM     15  C   UNL     1      -3.256  -2.305  25.623  0.00  0.00    +0.099 A 
ATOM     16  C   UNL     1      -3.657  -1.635  25.354  0.00  0.00    +0.025 A 
ENDBRANCH   9  11
ENDBRANCH   7   8
ENDBRANCH   6   7
BRANCH   3  17
ATOM     17  N   UNL     1      -3.324   3.112  24.682  0.00  0.00    -0.209 NA
BRANCH  17  18
ATOM     18  C   UNL     1      -3.016   3.504  25.339  0.00  0.00    +0.115 C 
BRANCH  18  19
ATOM     19  C   UNL     1      -2.259   3.831  25.307  0.00  0.00    -0.004 A 
ATOM     20  C   UNL     1      -2.158   4.619  25.085  0.00  0.00    -0.003 A 
ATOM     21  C   UNL     1      -1.401   4.945  25.053  0.00  0.00    +0.000 A 
ATOM     22  C   UNL     1      -0.744   4.483  25.243  0.00  0.00    +0.010 A 
ATOM     23  C   UNL     1      -0.846   3.695  25.465  0.00  0.00    +0.068 A 
ATOM     24  C   UNL     1      -1.602   3.368  25.497  0.00  0.00    +0.007 A 
BRANCH  23  25
ATOM     25  C   UNL     1      -0.188   3.233  25.655  0.00  0.00    +0.100 C 
ATOM     26  N   UNL     1       0.468   2.771  25.846  0.00  0.00    -0.191 NA
ENDBRANCH  23  25
ENDBRANCH  18  19
ENDBRANCH  17  18
ENDBRANCH   3  17
TORSDOF 7
ENDMDL
MODEL 4
REMARK VINA RESULT:      -8.6      1.920      2.533
REMARK  Name = 
REMARK  7 active torsions:
REMARK  status: ('A' for Active; 'I' for Inactive)
REMARK    1  A    between atoms: C_3  and  N_17
REMARK    2  A    between atoms: C_6  and  C_7
REMARK    3  A    between atoms: C_7  and  N_8
REMARK    4  A    between atoms: C_9  and  C_11
REMARK    5  A    between atoms: N_17  and  C_18
REMARK    6  A    between atoms: C_18  and  C_19
REMARK    7  A    between atoms: C_23  and  C_25
REMARK                            x       y       z     vdW  Elec       q    Type
REMARK                         _______ _______ _______ _____ _____    ______ ____
ROOT
ATOM      1  O   UNL     1      -1.054   0.263  26.142  0.00  0.00    -0.219 OA
ATOM      2  C   UNL     1      -0.782   0.326  25.366  0.00  0.00    +0.199 C 
ATOM      3  C   UNL     1      -0.831  -0.258  24.786  0.00  0.00    +0.135 C 
ATOM      4  C   UNL     1      -0.493   0.040  24.095  0.00  0.00    +0.162 C 
ATOM      5  O   UNL     1      -0.234   0.807  24.249  0.00  0.00    -0.350 OA
ATOM      6  C   UNL     1      -0.412   0.984  25.034  0.00  0.00    +0.169 C 
ENDROOT
BRANCH   6   7
ATOM      7  C   UNL     1      -0.250   1.695  25.420  0.00  0.00    +0.148 C 
BRANCH   7   8
ATOM      8  N   UNL     1      -0.693   2.369  25.247  0.00  0.00    -0.199 NA
ATOM      9  C   UNL     1      -0.530   3.081  25.633  0.00  0.00    +0.265 C 
ATOM     10  O   UNL     1       0.076   3.117  26.191  0.00  0.00    -0.268 OA
BRANCH   9  11
ATOM     11  C   UNL     1      -0.973   3.754  25.460  0.00  0.00    +0.058 A 
ATOM     12  C   UNL     1      -0.632   4.374  25.036  0.00  0.00    +0.025 A 
ATOM     13  C   UNL     1      -1.076   5.048  24.863  0.00  0.00    +0.099 A 
ATOM     14  N   UNL     1      -1.860   5.102  25.115  0.00  0.00    -0.242 NA
ATOM     15  C   UNL     1      -2.201   4.482  25.539  0.00  0.00    +0.099 A 
ATOM     16  C   UNL     1      -1.757   3.808  25.712  0.00  0.00    +0.025 A 
ENDBRANCH   9  11
ENDBRANCH   7   8
ENDBRANCH   6   7
BRANCH   3  17
ATOM     17  N   UNL     1      -1.162  -1.008  24.879  0.00  0.00    -0.209 NA
BRANCH  17  18
ATOM     18  C   UNL     1      -1.469  -1.408  24.226  0.00  0.00    +0.115 C 
BRANCH  18  19
ATOM     19  C   UNL     1      -2.122  -1.904  24.316  0.00  0.00    -0.004 A 
ATOM     20  C   UNL     1      -2.019  -2.676  24.588  0.00  0.00    -0.003 A 
ATOM     21  C   UNL     1      -2.673  -3.172  24.677  0.00  0.00    +0.000 A 
ATOM     22  C   UNL     1      -3.429  -2.896  24.495  0.00  0.00    +0.010 A 
ATOM     23  C   UNL     1      -3.530  -2.123  24.223  0.00  0.00    +0.068 A 
ATOM     24  C   UNL     1      -2.878  -1.628  24.134  0.00  0.00    +0.007 A 
BRANCH  23  25
ATOM     25  C   UNL     1      -4.287  -1.847  24.041  0.00  0.00    +0.100 C 
ATOM     26  N   UNL     1      -5.043  -1.571  23.859  0.00  0.00    -0.191 NA
ENDBRANCH  23  25
ENDBRANCH  18  19
ENDBRANCH  17  18
ENDBRANCH   3  17
TORSDOF 7
ENDMDL
MODEL 5
REMARK VINA RESULT:      -8.5      4.368      5.259
REMARK  Name = 
REMARK  7 active torsions:
REMARK  status: ('A' for Active; 'I' for Inactive)
REMARK    1  A    between atoms: C_3  and  N_17
REMARK    2  A    between atoms: C_6  and  C_7
REMARK    3  A    between atoms: C_7  and  N_8
REMARK    4  A    between atoms: C_9  and  C_11
REMARK    5  A    between atoms: N_17  and  C_18
REMARK    6  A    between atoms: C_18  and  C_19
REMARK    7  A    between atoms: C_23  and  C_25
REMARK                            x       y       z     vdW  Elec       q    Type
REMARK                         _______ _______ _______ _____ _____    ______ ____
ROOT
ATOM      1  O   UNL     1      -0.166  -1.071  23.247  0.00  0.00    -0.219 OA
ATOM      2  C   UNL     1      -0.056  -0.322  23.577  0.00  0.00    +0.199 C 
ATOM      3  C   UNL     1      -0.542   0.036  24.140  0.00  0.00    +0.135 C 
ATOM      4  C   UNL     1      -0.228   0.778  24.312  0.00  0.00    +0.162 C 
ATOM      5  O   UNL     1       0.451   0.880  23.856  0.00  0.00    -0.350 OA
ATOM      6  C   UNL     1       0.558   0.200  23.402  0.00  0.00    +0.169 C 
ENDROOT
BRANCH   6   7
ATOM      7  C   UNL     1       1.171   0.065  22.866  0.00  0.00    +0.148 C 
BRANCH   7   8
ATOM      8  N   UNL     1       1.954   0.176  23.100  0.00  0.00    -0.199 NA
ATOM      9  C   UNL     1       2.562   0.115  22.545  0.00  0.00    +0.265 C 
ATOM     10  O   UNL     1       2.386  -0.058  21.758  0.00  0.00    -0.268 OA
BRANCH   9  11
ATOM     11  C   UNL     1       3.346   0.226  22.778  0.00  0.00    +0.058 A 
ATOM     12  C   UNL     1       3.720   0.948  22.637  0.00  0.00    +0.025 A 
ATOM     13  C   UNL     1       4.503   1.059  22.870  0.00  0.00    +0.099 A 
ATOM     14  N   UNL     1       4.913   0.449  23.245  0.00  0.00    -0.242 NA
ATOM     15  C   UNL     1       4.539  -0.273  23.386  0.00  0.00    +0.099 A 
ATOM     16  C   UNL     1       3.755  -0.384  23.153  0.00  0.00    +0.025 A 
ENDBRANCH   9  11
ENDBRANCH   7   8
ENDBRANCH   6   7
BRANCH   3  17
ATOM     17  N   UNL     1      -1.223  -0.292  24.472  0.00  0.00    -0.209 NA
BRANCH  17  18
ATOM     18  C   UNL     1      -1.693   0.158  24.978  0.00  0.00    +0.115 C 
BRANCH  18  19
ATOM     19  C   UNL     1      -2.463  -0.083  25.149  0.00  0.00    -0.004 A 
ATOM     20  C   UNL     1      -2.597  -0.818  25.499  0.00  0.00    -0.003 A 
ATOM     21  C   UNL     1      -3.367  -1.060  25.670  0.00  0.00    +0.000 A 
ATOM     22  C   UNL     1      -4.003  -0.566  25.492  0.00  0.00    +0.010 A 
ATOM     23  C   UNL     1      -3.869   0.170  25.143  0.00  0.00    +0.068 A 
ATOM     24  C   UNL     1      -3.100   0.411  24.971  0.00  0.00    +0.007 A 
BRANCH  23  25
ATOM     25  C   UNL     1      -4.506   0.664  24.965  0.00  0.00    +0.100 C 
ATOM     26  N   UNL     1      -5.143   1.157  24.788  0.00  0.00    -0.191 NA
ENDBRANCH  23  25
ENDBRANCH  18  19
ENDBRANCH  17  18
ENDBRANCH   3  17
TORSDOF 7
ENDMDL
MODEL 6
REMARK VINA RESULT:      -8.4      3.357      5.096
REMARK  Name = 
REMARK  7 active torsions:
REMARK  status: ('A' for Active; 'I' for Inactive)
REMARK    1  A    between atoms: C_3  and  N_17
REMARK    2  A    between atoms: C_6  and  C_7
REMARK    3  A    between atoms: C_7  and  N_8
REMARK    4  A    between atoms: C_9  and  C_11
REMARK    5  A    between atoms: N_17  and  C_18
REMARK    6  A    between atoms: C_18  and  C_19
REMARK    7  A    between atoms: C_23  and  C_25
REMARK                            x       y       z     vdW  Elec       q    Type
REMARK                         _______ _______ _______ _____ _____    ______ ____
ROOT
ATOM      1  O   UNL     1      -1.818   0.621  25.166  0.00  0.00    -0.219 OA
ATOM      2  C   UNL     1      -1.649   1.148  24.555  0.00  0.00    +0.199 C 
ATOM      3  C   UNL     1      -2.063   1.841  24.385  0.00  0.00    +0.135 C 
ATOM      4  C   UNL     1      -1.707   2.196  23.731  0.00  0.00    +0.162 C 
ATOM      5  O   UNL     1      -1.074   1.723  23.497  0.00  0.00    -0.350 OA
ATOM      6  C   UNL     1      -1.038   1.076  24.006  0.00  0.00    +0.169 C 
ENDROOT
BRANCH   6   7
ATOM      7  C   UNL     1      -0.487   0.462  23.972  0.00  0.00    +0.148 C 
BRANCH   7   8
ATOM      8  N   UNL     1       0.183   0.535  23.497  0.00  0.00    -0.199 NA
ATOM      9  C   UNL     1       0.692  -0.107  23.400  0.00  0.00    +0.265 C 
ATOM     10  O   UNL     1       0.530  -0.822  23.778  0.00  0.00    -0.268 OA
BRANCH   9  11
ATOM     11  C   UNL     1       1.363  -0.034  22.925  0.00  0.00    +0.058 A 
ATOM     12  C   UNL     1       2.039   0.336  23.220  0.00  0.00    +0.025 A 
ATOM     13  C   UNL     1       2.709   0.409  22.745  0.00  0.00    +0.099 A 
ATOM     14  N   UNL     1       2.704   0.113  21.975  0.00  0.00    -0.242 NA
ATOM     15  C   UNL     1       2.028  -0.257  21.680  0.00  0.00    +0.099 A 
ATOM     16  C   UNL     1       1.357  -0.330  22.155  0.00  0.00    +0.025 A 
ENDBRANCH   9  11
ENDBRANCH   7   8
ENDBRANCH   6   7
BRANCH   3  17
ATOM     17  N   UNL     1      -2.718   2.129  24.796  0.00  0.00    -0.209 NA
BRANCH  17  18
ATOM     18  C   UNL     1      -3.255   2.629  24.420  0.00  0.00    +0.115 C 
BRANCH  18  19
ATOM     19  C   UNL     1      -3.956   2.843  24.799  0.00  0.00    -0.004 A 
ATOM     20  C   UNL     1      -3.985   3.532  25.252  0.00  0.00    -0.003 A 
ATOM     21  C   UNL     1      -4.686   3.746  25.632  0.00  0.00    +0.000 A 
ATOM     22  C   UNL     1      -5.356   3.271  25.559  0.00  0.00    +0.010 A 
ATOM     23  C   UNL     1      -5.326   2.582  25.105  0.00  0.00    +0.068 A 
ATOM     24  C   UNL     1      -4.626   2.368  24.726  0.00  0.00    +0.007 A 
BRANCH  23  25
ATOM     25  C   UNL     1      -5.998   2.108  25.032  0.00  0.00    +0.100 C 
ATOM     26  N   UNL     1      -6.669   1.633  24.959  0.00  0.00    -0.191 NA
ENDBRANCH  23  25
ENDBRANCH  18  19
ENDBRANCH  17  18
ENDBRANCH   3  17
TORSDOF 7
ENDMDL
MODEL 7
REMARK VINA RESULT:      -7.1     14.426     16.655
REMARK  Name = 
REMARK  7 active torsions:
REMARK  status: ('A' for Active; 'I' for Inactive)
REMARK    1  A    between atoms: C_3  and  N_17
REMARK    2  A    between atoms: C_6  and  C_7
REMARK    3  A    between atoms: C_7  and  N_8
REMARK    4  A    between atoms: C_9  and  C_11
REMARK    5  A    between atoms: N_17  and  C_18
REMARK    6  A    between atoms: C_18  and  C_19
REMARK    7  A    between atoms: C_23  and  C_25
REMARK                            x       y       z     vdW  Elec       q    Type
REMARK                         _______ _______ _______ _____ _____    ______ ____
ROOT
ATOM      1  O   UNL     1      -2.873 -10.599  14.128  0.00  0.00    -0.219 OA
ATOM      2  C   UNL     1      -3.661 -10.553  13.889  0.00  0.00    +0.199 C 
ATOM      3  C   UNL     1      -4.320 -10.556  14.385  0.00  0.00    +0.135 C 
ATOM      4  C   UNL     1      -4.994 -10.501  13.914  0.00  0.00    +0.162 C 
ATOM      5  O   UNL     1      -4.752 -10.465  13.127  0.00  0.00    -0.350 OA
ATOM      6  C   UNL     1      -3.929 -10.497  13.111  0.00  0.00    +0.169 C 
ENDROOT
BRANCH   6   7
ATOM      7  C   UNL     1      -3.455 -10.476  12.435  0.00  0.00    +0.148 C 
BRANCH   7   8
ATOM      8  N   UNL     1      -3.765 -10.201  11.722  0.00  0.00    -0.199 NA
ATOM      9  C   UNL     1      -3.319 -10.255  11.030  0.00  0.00    +0.265 C 
ATOM     10  O   UNL     1      -2.564 -10.585  11.051  0.00  0.00    -0.268 OA
BRANCH   9  11
ATOM     11  C   UNL     1      -3.630  -9.979  10.317  0.00  0.00    +0.058 A 
ATOM     12  C   UNL     1      -3.597  -9.174  10.137  0.00  0.00    +0.025 A 
ATOM     13  C   UNL     1      -3.907  -8.898   9.424  0.00  0.00    +0.099 A 
ATOM     14  N   UNL     1      -4.250  -9.427   8.891  0.00  0.00    -0.242 NA
ATOM     15  C   UNL     1      -4.282 -10.232   9.071  0.00  0.00    +0.099 A 
ATOM     16  C   UNL     1      -3.972 -10.507   9.785  0.00  0.00    +0.025 A 
ENDBRANCH   9  11
ENDBRANCH   7   8
ENDBRANCH   6   7
BRANCH   3  17
ATOM     17  N   UNL     1      -4.306 -10.605  15.209  0.00  0.00    -0.209 NA
BRANCH  17  18
ATOM     18  C   UNL     1      -4.969 -10.381  15.646  0.00  0.00    +0.115 C 
BRANCH  18  19
ATOM     19  C   UNL     1      -4.976 -10.482  16.465  0.00  0.00    -0.004 A 
ATOM     20  C   UNL     1      -4.280 -10.679  16.862  0.00  0.00    -0.003 A 
ATOM     21  C   UNL     1      -4.287 -10.781  17.681  0.00  0.00    +0.000 A 
ATOM     22  C   UNL     1      -4.990 -10.685  18.102  0.00  0.00    +0.010 A 
ATOM     23  C   UNL     1      -5.686 -10.488  17.705  0.00  0.00    +0.068 A 
ATOM     24  C   UNL     1      -5.679 -10.387  16.886  0.00  0.00    +0.007 A 
BRANCH  23  25
ATOM     25  C   UNL     1      -6.389 -10.393  18.127  0.00  0.00    +0.100 C 
ATOM     26  N   UNL     1      -7.091 -10.297  18.549  0.00  0.00    -0.191 NA
ENDBRANCH  23  25
ENDBRANCH  18  19
ENDBRANCH  17  18
ENDBRANCH   3  17
TORSDOF 7
ENDMDL
MODEL 8
REMARK VINA RESULT:      -7.1      2.630      4.666
REMARK  Name = 
REMARK  7 active torsions:
REMARK  status: ('A' for Active; 'I' for Inactive)
REMARK    1  A    between atoms: C_3  and  N_17
REMARK    2  A    between atoms: C_6  and  C_7
REMARK    3  A    between atoms: C_7  and  N_8
REMARK    4  A    between atoms: C_9  and  C_11
REMARK    5  A    between atoms: N_17  and  C_18
REMARK    6  A    between atoms: C_18  and  C_19
REMARK    7  A    between atoms: C_23  and  C_25
REMARK                            x       y       z     vdW  Elec       q    Type
REMARK                         _______ _______ _______ _____ _____    ______ ____
ROOT
ATOM      1  O   UNL     1      -2.643   0.252  25.799  0.00  0.00    -0.219 OA
ATOM      2  C   UNL     1      -2.960  -0.114  25.131  0.00  0.00    +0.199 C 
ATOM      3  C   UNL     1      -3.735  -0.042  24.860  0.00  0.00    +0.135 C 
ATOM      4  C   UNL     1      -3.811  -0.498  24.178  0.00  0.00    +0.162 C 
ATOM      5  O   UNL     1      -3.082  -0.852  24.027  0.00  0.00    -0.350 OA
ATOM      6  C   UNL     1      -2.556  -0.615  24.615  0.00  0.00    +0.169 C 
ENDROOT
BRANCH   6   7
ATOM      7  C   UNL     1      -1.764  -0.840  24.678  0.00  0.00    +0.148 C 
BRANCH   7   8
ATOM      8  N   UNL     1      -1.189  -0.450  24.233  0.00  0.00    -0.199 NA
ATOM      9  C   UNL     1      -0.397  -0.672  24.299  0.00  0.00    +0.265 C 
ATOM     10  O   UNL     1      -0.181  -1.283  24.809  0.00  0.00    -0.268 OA
BRANCH   9  11
ATOM     11  C   UNL     1       0.179  -0.282  23.855  0.00  0.00    +0.058 A 
ATOM     12  C   UNL     1       0.357   0.508  24.013  0.00  0.00    +0.025 A 
ATOM     13  C   UNL     1       0.933   0.898  23.569  0.00  0.00    +0.099 A 
ATOM     14  N   UNL     1       1.330   0.498  22.966  0.00  0.00    -0.242 NA
ATOM     15  C   UNL     1       1.152  -0.292  22.808  0.00  0.00    +0.099 A 
ATOM     16  C   UNL     1       0.576  -0.682  23.253  0.00  0.00    +0.025 A 
ENDBRANCH   9  11
ENDBRANCH   7   8
ENDBRANCH   6   7
BRANCH   3  17
ATOM     17  N   UNL     1      -4.331   0.409  25.211  0.00  0.00    -0.209 NA
BRANCH  17  18
ATOM     18  C   UNL     1      -4.799   0.907  24.749  0.00  0.00    +0.115 C 
BRANCH  18  19
ATOM     19  C   UNL     1      -5.181   1.552  25.093  0.00  0.00    -0.004 A 
ATOM     20  C   UNL     1      -5.912   1.451  25.460  0.00  0.00    -0.003 A 
ATOM     21  C   UNL     1      -6.294   2.096  25.804  0.00  0.00    +0.000 A 
ATOM     22  C   UNL     1      -5.944   2.843  25.782  0.00  0.00    +0.010 A 
ATOM     23  C   UNL     1      -5.212   2.944  25.414  0.00  0.00    +0.068 A 
ATOM     24  C   UNL     1      -4.830   2.299  25.070  0.00  0.00    +0.007 A 
BRANCH  23  25
ATOM     25  C   UNL     1      -4.861   3.691  25.392  0.00  0.00    +0.100 C 
ATOM     26  N   UNL     1      -4.512   4.438  25.369  0.00  0.00    -0.191 NA
ENDBRANCH  23  25
ENDBRANCH  18  19
ENDBRANCH  17  18
ENDBRANCH   3  17
TORSDOF 7
ENDMDL
MODEL 9
REMARK VINA RESULT:      -7.1      3.457      4.456
REMARK  Name = 
REMARK  7 active torsions:
REMARK  status: ('A' for Active; 'I' for Inactive)
REMARK    1  A    between atoms: C_3  and  N_17
REMARK    2  A    between atoms: C_6  and  C_7
REMARK    3  A    between atoms: C_7  and  N_8
REMARK    4  A    between atoms: C_9  and  C_11
REMARK    5  A    between atoms: N_17  and  C_18
REMARK    6  A    between atoms: C_18  and  C_19
REMARK    7  A    between atoms: C_23  and  C_25
REMARK                            x       y       z     vdW  Elec       q    Type
REMARK                         _______ _______ _______ _____ _____    ______ ____
ROOT
ATOM      1  O   UNL     1      -1.722   1.331  22.832  0.00  0.00    -0.219 OA
ATOM      2  C   UNL     1      -1.585   1.117  23.617  0.00  0.00    +0.199 C 
ATOM      3  C   UNL     1      -0.855   0.923  23.947  0.00  0.00    +0.135 C 
ATOM      4  C   UNL     1      -0.974   0.745  24.743  0.00  0.00    +0.162 C 
ATOM      5  O   UNL     1      -1.777   0.828  24.905  0.00  0.00    -0.350 OA
ATOM      6  C   UNL     1      -2.156   1.058  24.210  0.00  0.00    +0.169 C 
ENDROOT
BRANCH   6   7
ATOM      7  C   UNL     1      -2.963   1.204  24.122  0.00  0.00    +0.148 C 
BRANCH   7   8
ATOM      8  N   UNL     1      -3.340   1.748  24.614  0.00  0.00    -0.199 NA
ATOM      9  C   UNL     1      -4.154   1.870  24.547  0.00  0.00    +0.265 C 
ATOM     10  O   UNL     1      -4.589   1.448  23.988  0.00  0.00    -0.268 OA
BRANCH   9  11
ATOM     11  C   UNL     1      -4.530   2.415  25.039  0.00  0.00    +0.058 A 
ATOM     12  C   UNL     1      -4.266   3.196  25.068  0.00  0.00    +0.025 A 
ATOM     13  C   UNL     1      -4.643   3.740  25.560  0.00  0.00    +0.099 A 
ATOM     14  N   UNL     1      -5.284   3.504  26.023  0.00  0.00    -0.242 NA
ATOM     15  C   UNL     1      -5.549   2.722  25.994  0.00  0.00    +0.099 A 
ATOM     16  C   UNL     1      -5.171   2.178  25.501  0.00  0.00    +0.025 A 
ENDBRANCH   9  11
ENDBRANCH   7   8
ENDBRANCH   6   7
BRANCH   3  17
ATOM     17  N   UNL     1      -0.131   0.910  23.550  0.00  0.00    -0.209 NA
BRANCH  17  18
ATOM     18  C   UNL     1       0.404   0.297  23.687  0.00  0.00    +0.115 C 
BRANCH  18  19
ATOM     19  C   UNL     1       1.028   0.170  23.163  0.00  0.00    -0.004 A 
ATOM     20  C   UNL     1       0.920  -0.312  22.502  0.00  0.00    -0.003 A 
ATOM     21  C   UNL     1       1.545  -0.439  21.978  0.00  0.00    +0.000 A 
ATOM     22  C   UNL     1       2.277  -0.085  22.115  0.00  0.00    +0.010 A 
ATOM     23  C   UNL     1       2.385   0.396  22.776  0.00  0.00    +0.068 A 
ATOM     24  C   UNL     1       1.761   0.524  23.300  0.00  0.00    +0.007 A 
BRANCH  23  25
ATOM     25  C   UNL     1       3.118   0.750  22.913  0.00  0.00    +0.100 C 
ATOM     26  N   UNL     1       3.851   1.103  23.050  0.00  0.00    -0.191 NA
ENDBRANCH  23  25
ENDBRANCH  18  19
ENDBRANCH  17  18
ENDBRANCH   3  17
TORSDOF 7
ENDMDL
MODEL 10
REMARK VINA RESULT:      -6.9     17.585     19.336
REMARK  Name = 
REMARK  7 active torsions:
REMARK  status: ('A' for Active; 'I' for Inactive)
REMARK    1  A    between atoms: C_3  and  N_17
REMARK    2  A    between atoms: C_6  and  C_7
REMARK    3  A    between atoms: C_7  and  N_8
REMARK    4  A    between atoms: C_9  and  C_11
REMARK    5  A    between atoms: N_17  and  C_18
REMARK    6  A    between atoms: C_18  and  C_19
REMARK    7  A    between atoms: C_23  and  C_25
REMARK                            x       y       z     vdW  Elec       q    Type
REMARK                         _______ _______ _______ _____ _____    ______ ____
ROOT
ATOM      1  O   UNL     1      13.099   6.963  19.778  0.00  0.00    -0.219 OA
ATOM      2  C   UNL     1      13.362   7.745  19.760  0.00  0.00    +0.199 C 
ATOM      3  C   UNL     1      14.077   8.023  20.063  0.00  0.00    +0.135 C 
ATOM      4  C   UNL     1      14.113   8.835  19.926  0.00  0.00    +0.162 C 
ATOM      5  O   UNL     1      13.422   9.059  19.539  0.00  0.00    -0.350 OA
ATOM      6  C   UNL     1      12.957   8.386  19.436  0.00  0.00    +0.169 C 
ENDROOT
BRANCH   6   7
ATOM      7  C   UNL     1      12.217   8.358  19.072  0.00  0.00    +0.148 C 
BRANCH   7   8
ATOM      8  N   UNL     1      12.141   8.554  18.274  0.00  0.00    -0.199 NA
ATOM      9  C   UNL     1      11.404   8.506  17.906  0.00  0.00    +0.265 C 
ATOM     10  O   UNL     1      10.744   8.263  18.335  0.00  0.00    -0.268 OA
BRANCH   9  11
ATOM     11  C   UNL     1      11.329   8.702  17.108  0.00  0.00    +0.058 A 
ATOM     12  C   UNL     1      10.584   8.706  16.753  0.00  0.00    +0.025 A 
ATOM     13  C   UNL     1      10.509   8.902  15.955  0.00  0.00    +0.099 A 
ATOM     14  N   UNL     1      11.178   9.093  15.512  0.00  0.00    -0.242 NA
ATOM     15  C   UNL     1      11.923   9.089  15.867  0.00  0.00    +0.099 A 
ATOM     16  C   UNL     1      11.998   8.893  16.666  0.00  0.00    +0.025 A 
ENDBRANCH   9  11
ENDBRANCH   7   8
ENDBRANCH   6   7
BRANCH   3  17
ATOM     17  N   UNL     1      14.655   7.567  20.438  0.00  0.00    -0.209 NA
BRANCH  17  18
ATOM     18  C   UNL     1      15.413   7.873  20.548  0.00  0.00    +0.115 C 
BRANCH  18  19
ATOM     19  C   UNL     1      16.061   7.363  20.589  0.00  0.00    -0.004 A 
ATOM     20  C   UNL     1      16.477   7.282  21.297  0.00  0.00    -0.003 A 
ATOM     21  C   UNL     1      17.125   6.772  21.338  0.00  0.00    +0.000 A 
ATOM     22  C   UNL     1      17.356   6.345  20.672  0.00  0.00    +0.010 A 
ATOM     23  C   UNL     1      16.940   6.426  19.964  0.00  0.00    +0.068 A 
ATOM     24  C   UNL     1      16.292   6.935  19.923  0.00  0.00    +0.007 A 
BRANCH  23  25
ATOM     25  C   UNL     1      17.172   5.998  19.298  0.00  0.00    +0.100 C 
ATOM     26  N   UNL     1      17.404   5.570  18.632  0.00  0.00    -0.191 NA
ENDBRANCH  23  25
ENDBRANCH  18  19
ENDBRANCH  17  18
ENDBRANCH   3  17
TORSDOF 7
ENDMDL
