MODEL 1
REMARK VINA RESULT:     -10.5      0.000      0.000
REMARK  Name = 
REMARK  7 active torsions:
REMARK  status: ('A' for Active; 'I' for Inactive)
REMARK    1  A    between atoms: C_2  and  C_3
REMARK    2  A    between atoms: C_3  and  C_4
REMARK    3  A    between atoms: C_4  and  C_5
REMARK    4  A    between atoms: C_7  and  C_8
REMARK    5  A    between atoms: C_8  and  C_9
REMARK    6  A    between atoms: C_14  and  C_15
REMARK    7  A    between atoms: C_15  and  C_16
REMARK                            x       y       z     vdW  Elec       q    Type
REMARK                         _______ _______ _______ _____ _____    ______ ____
ROOT
ATOM      9  C   UNL     1      -4.535   2.073  24.919  0.00  0.00    +0.024 C 
ATOM     10  C   UNL     1      -5.309   1.838  25.085  0.00  0.00    +0.089 C 
ATOM     11  N   UNL     1      -5.826   2.360  25.460  0.00  0.00    -0.218 NA
ATOM     12  C   UNL     1      -5.571   3.115  25.669  0.00  0.00    +0.089 C 
ATOM     13  C   UNL     1      -4.797   3.350  25.504  0.00  0.00    +0.019 C 
ATOM     14  C   UNL     1      -4.280   2.828  25.128  0.00  0.00    +0.012 C 
ENDROOT
BRANCH   9   8
ATOM      8  C   UNL     1      -4.018   1.551  24.544  0.00  0.00    +0.051 C 
BRANCH   8   7
ATOM      5  C   UNL     1      -4.132  -0.581  24.518  0.00  0.00    +0.154 A 
ATOM      6  C   UNL     1      -4.076   0.143  24.125  0.00  0.00    +0.054 A 
ATOM      7  C   UNL     1      -4.068   0.742  24.693  0.00  0.00    +0.100 A 
ATOM     24  N   UNL     1      -4.118   0.388  25.437  0.00  0.00    -0.082 NA
ATOM     25  O   UNL     1      -4.158  -0.430  25.328  0.00  0.00    -0.358 OA
BRANCH   5   4
ATOM      4  C   UNL     1      -4.157  -1.325  24.162  0.00  0.00    +0.067 C 
BRANCH   4   3
ATOM      3  C   UNL     1      -3.774  -1.963  24.515  0.00  0.00    +0.008 C 
BRANCH   3   2
ATOM      1  C   UNL     1      -3.344  -3.326  24.467  0.00  0.00    +0.000 C 
ATOM      2  C   UNL     1      -3.783  -2.703  24.149  0.00  0.00    +0.000 C 
ENDBRANCH   3   2
ENDBRANCH   4   3
ENDBRANCH   5   4
ENDBRANCH   8   7
ENDBRANCH   9   8
BRANCH  14  15
ATOM     15  C   UNL     1      -3.506   3.063  24.963  0.00  0.00    +0.087 C 
BRANCH  15  16
ATOM     16  C   UNL     1      -3.368   3.767  24.554  0.00  0.00    +0.247 C 
ATOM     17  O   UNL     1      -3.971   4.112  24.110  0.00  0.00    -0.273 OA
ATOM     18  N   UNL     1      -2.625   4.126  24.590  0.00  0.00    -0.154 NA
ATOM     19  C   UNL     1      -2.022   3.781  25.034  0.00  0.00    +0.186 A 
ATOM     20  N   UNL     1      -2.079   3.082  25.469  0.00  0.00    -0.221 NA
ATOM     21  C   UNL     1      -1.347   2.944  25.825  0.00  0.00    +0.108 A 
ATOM     22  C   UNL     1      -0.839   3.556  25.611  0.00  0.00    +0.059 A 
ATOM     23  S   UNL     1      -1.256   4.074  25.121  0.00  0.00    -0.049 S 
ENDBRANCH  15  16
ENDBRANCH  14  15
TORSDOF 7
ENDMDL
MODEL 2
REMARK VINA RESULT:      -9.4      2.866      5.743
REMARK  Name = 
REMARK  7 active torsions:
REMARK  status: ('A' for Active; 'I' for Inactive)
REMARK    1  A    between atoms: C_2  and  C_3
REMARK    2  A    between atoms: C_3  and  C_4
REMARK    3  A    between atoms: C_4  and  C_5
REMARK    4  A    between atoms: C_7  and  C_8
REMARK    5  A    between atoms: C_8  and  C_9
REMARK    6  A    between atoms: C_14  and  C_15
REMARK    7  A    between atoms: C_15  and  C_16
REMARK                            x       y       z     vdW  Elec       q    Type
REMARK                         _______ _______ _______ _____ _____    ______ ____
ROOT
ATOM      9  C   UNL     1      -0.725   0.434  24.637  0.00  0.00    +0.024 C 
ATOM     10  C   UNL     1      -0.115   0.905  24.341  0.00  0.00    +0.089 C 
ATOM     11  N   UNL     1       0.413   0.597  23.788  0.00  0.00    -0.218 NA
ATOM     12  C   UNL     1       0.332  -0.182  23.529  0.00  0.00    +0.089 C 
ATOM     13  C   UNL     1      -0.277  -0.654  23.824  0.00  0.00    +0.019 C 
ATOM     14  C   UNL     1      -0.806  -0.345  24.378  0.00  0.00    +0.012 C 
ENDROOT
BRANCH   9   8
ATOM      8  C   UNL     1      -1.253   0.742  25.190  0.00  0.00    +0.051 C 
BRANCH   8   7
ATOM      5  C   UNL     1      -1.361   2.824  25.648  0.00  0.00    +0.154 A 
ATOM      6  C   UNL     1      -1.648   2.156  25.258  0.00  0.00    +0.054 A 
ATOM      7  C   UNL     1      -1.165   1.517  25.457  0.00  0.00    +0.100 A 
ATOM     24  N   UNL     1      -0.580   1.790  25.970  0.00  0.00    -0.082 NA
ATOM     25  O   UNL     1      -0.701   2.598  26.088  0.00  0.00    -0.358 OA
BRANCH   5   4
ATOM      4  C   UNL     1      -1.678   3.585  25.606  0.00  0.00    +0.067 C 
BRANCH   4   3
ATOM      3  C   UNL     1      -1.242   4.194  25.262  0.00  0.00    +0.008 C 
BRANCH   3   2
ATOM      1  C   UNL     1      -1.146   5.553  24.829  0.00  0.00    +0.000 C 
ATOM      2  C   UNL     1      -1.562   4.954  25.215  0.00  0.00    +0.000 C 
ENDBRANCH   3   2
ENDBRANCH   4   3
ENDBRANCH   5   4
ENDBRANCH   8   7
ENDBRANCH   9   8
BRANCH  14  15
ATOM     15  C   UNL     1      -1.415  -0.817  24.673  0.00  0.00    +0.087 C 
BRANCH  15  16
ATOM     16  C   UNL     1      -1.250  -1.575  24.953  0.00  0.00    +0.247 C 
ATOM     17  O   UNL     1      -0.491  -1.763  25.213  0.00  0.00    -0.273 OA
ATOM     18  N   UNL     1      -1.846  -2.147  24.973  0.00  0.00    -0.154 NA
ATOM     19  C   UNL     1      -2.606  -1.959  24.712  0.00  0.00    +0.186 A 
ATOM     20  N   UNL     1      -2.851  -1.228  24.419  0.00  0.00    -0.221 NA
ATOM     21  C   UNL     1      -3.651  -1.286  24.225  0.00  0.00    +0.108 A 
ATOM     22  C   UNL     1      -3.900  -2.053  24.398  0.00  0.00    +0.059 A 
ATOM     23  S   UNL     1      -3.254  -2.469  24.699  0.00  0.00    -0.049 S 
ENDBRANCH  15  16
ENDBRANCH  14  15
TORSDOF 7
ENDMDL
MODEL 3
REMARK VINA RESULT:      -9.3      1.833      2.760
REMARK  Name = 
REMARK  7 active torsions:
REMARK  status: ('A' for Active; 'I' for Inactive)
REMARK    1  A    between atoms: C_2  and  C_3
REMARK    2  A    between atoms: C_3  and  C_4
REMARK    3  A    between atoms: C_4  and  C_5
REMARK    4  A    between atoms: C_7  and  C_8
REMARK    5  A    between atoms: C_8  and  C_9
REMARK    6  A    between atoms: C_14  and  C_15
REMARK    7  A    between atoms: C_15  and  C_16
REMARK                            x       y       z     vdW  Elec       q    Type
REMARK                         _______ _______ _______ _____ _____    ______ ____
ROOT
ATOM      9  C   UNL     1      -2.463   1.616  24.129  0.00  0.00    +0.024 C 
ATOM     10  C   UNL     1      -1.980   1.317  23.530  0.00  0.00    +0.089 C 
ATOM     11  N   UNL     1      -2.034   1.623  22.766  0.00  0.00    -0.218 NA
ATOM     12  C   UNL     1      -2.570   2.227  22.600  0.00  0.00    +0.089 C 
ATOM     13  C   UNL     1      -3.053   2.526  23.198  0.00  0.00    +0.019 C 
ATOM     14  C   UNL     1      -2.999   2.220  23.963  0.00  0.00    +0.012 C 
ENDROOT
BRANCH   9   8
ATOM      8  C   UNL     1      -2.409   1.311  24.893  0.00  0.00    +0.051 C 
BRANCH   8   7
ATOM      5  C   UNL     1      -2.324  -0.801  25.199  0.00  0.00    +0.154 A 
ATOM      6  C   UNL     1      -2.755  -0.103  25.099  0.00  0.00    +0.054 A 
ATOM      7  C   UNL     1      -2.218   0.517  25.008  0.00  0.00    +0.100 A 
ATOM     24  N   UNL     1      -1.456   0.203  25.051  0.00  0.00    -0.082 NA
ATOM     25  O   UNL     1      -1.522  -0.611  25.169  0.00  0.00    -0.358 OA
BRANCH   5   4
ATOM      4  C   UNL     1      -2.641  -1.554  25.310  0.00  0.00    +0.067 C 
BRANCH   4   3
ATOM      3  C   UNL     1      -3.092  -1.903  24.714  0.00  0.00    +0.008 C 
BRANCH   3   2
ATOM      1  C   UNL     1      -3.831  -3.020  24.215  0.00  0.00    +0.000 C 
ATOM      2  C   UNL     1      -3.411  -2.656  24.825  0.00  0.00    +0.000 C 
ENDBRANCH   3   2
ENDBRANCH   4   3
ENDBRANCH   5   4
ENDBRANCH   8   7
ENDBRANCH   9   8
BRANCH  14  15
ATOM     15  C   UNL     1      -3.483   2.519  24.561  0.00  0.00    +0.087 C 
BRANCH  15  16
ATOM     16  C   UNL     1      -3.482   3.328  24.725  0.00  0.00    +0.247 C 
ATOM     17  O   UNL     1      -2.832   3.791  24.517  0.00  0.00    -0.273 OA
ATOM     18  N   UNL     1      -4.133   3.674  25.097  0.00  0.00    -0.154 NA
ATOM     19  C   UNL     1      -4.783   3.211  25.305  0.00  0.00    +0.186 A 
ATOM     20  N   UNL     1      -4.861   2.400  25.177  0.00  0.00    -0.221 NA
ATOM     21  C   UNL     1      -5.596   2.165  25.471  0.00  0.00    +0.108 A 
ATOM     22  C   UNL     1      -5.972   2.831  25.780  0.00  0.00    +0.059 A 
ATOM     23  S   UNL     1      -5.469   3.478  25.678  0.00  0.00    -0.049 S 
ENDBRANCH  15  16
ENDBRANCH  14  15
TORSDOF 7
ENDMDL
MODEL 4
REMARK VINA RESULT:      -9.3      2.198      3.298
REMARK  Name = 
REMARK  7 active torsions:
REMARK  status: ('A' for Active; 'I' for Inactive)
REMARK    1  A    between atoms: C_2  and  C_3
REMARK    2  A    between atoms: C_3  and  C_4
REMARK    3  A    between atoms: C_4  and  C_5
REMARK    4  A    between atoms: C_7  and  C_8
REMARK    5  A    between atoms: C_8  and  C_9
REMARK    6  A    between atoms: C_14  and  C_15
REMARK    7  A    between atoms: C_15  and  C_16
REMARK                            x       y       z     vdW  Elec       q    Type
REMARK                         _______ _______ _______ _____ _____    ______ ____
ROOT
ATOM      9  C   UNL     1      -0.772   0.667  24.894  0.00  0.00    +0.024 C 
ATOM     10  C   UNL     1      -0.471   0.003  24.508  0.00  0.00    +0.089 C 
ATOM     11  N   UNL     1       0.108   0.090  23.928  0.00  0.00    -0.218 NA
ATOM     12  C   UNL     1       0.387   0.841  23.733  0.00  0.00    +0.089 C 
ATOM     13  C   UNL     1       0.087   1.506  24.118  0.00  0.00    +0.019 C 
ATOM     14  C   UNL     1      -0.493   1.418  24.699  0.00  0.00    +0.012 C 
ENDROOT
BRANCH   9   8
ATOM      8  C   UNL     1      -1.351   0.580  25.474  0.00  0.00    +0.051 C 
BRANCH   8   7
ATOM      5  C   UNL     1      -2.840  -0.939  25.290  0.00  0.00    +0.154 A 
ATOM      6  C   UNL     1      -2.569  -0.174  25.141  0.00  0.00    +0.054 A 
ATOM      7  C   UNL     1      -1.824  -0.096  25.488  0.00  0.00    +0.100 A 
ATOM     24  N   UNL     1      -1.635  -0.813  25.850  0.00  0.00    -0.082 NA
ATOM     25  O   UNL     1      -2.263  -1.334  25.727  0.00  0.00    -0.358 OA
BRANCH   5   4
ATOM      4  C   UNL     1      -3.561  -1.254  25.043  0.00  0.00    +0.067 C 
BRANCH   4   3
ATOM      3  C   UNL     1      -3.581  -1.821  24.445  0.00  0.00    +0.008 C 
BRANCH   3   2
ATOM      1  C   UNL     1      -4.355  -2.666  23.590  0.00  0.00    +0.000 C 
ATOM      2  C   UNL     1      -4.291  -1.990  24.060  0.00  0.00    +0.000 C 
ENDBRANCH   3   2
ENDBRANCH   4   3
ENDBRANCH   5   4
ENDBRANCH   8   7
ENDBRANCH   9   8
BRANCH  14  15
ATOM     15  C   UNL     1      -0.793   2.083  25.084  0.00  0.00    +0.087 C 
BRANCH  15  16
ATOM     16  C   UNL     1      -0.277   2.627  25.430  0.00  0.00    +0.247 C 
ATOM     17  O   UNL     1       0.483   2.394  25.649  0.00  0.00    -0.273 OA
ATOM     18  N   UNL     1      -0.522   3.406  25.556  0.00  0.00    -0.154 NA
ATOM     19  C   UNL     1      -1.282   3.639  25.337  0.00  0.00    +0.186 A 
ATOM     20  N   UNL     1      -1.855   3.159  24.988  0.00  0.00    -0.221 NA
ATOM     21  C   UNL     1      -2.530   3.618  24.863  0.00  0.00    +0.108 A 
ATOM     22  C   UNL     1      -2.374   4.380  25.135  0.00  0.00    +0.059 A 
ATOM     23  S   UNL     1      -1.603   4.394  25.428  0.00  0.00    -0.049 S 
ENDBRANCH  15  16
ENDBRANCH  14  15
TORSDOF 7
ENDMDL
MODEL 5
REMARK VINA RESULT:      -9.3      1.857      4.504
REMARK  Name = 
REMARK  7 active torsions:
REMARK  status: ('A' for Active; 'I' for Inactive)
REMARK    1  A    between atoms: C_2  and  C_3
REMARK    2  A    between atoms: C_3  and  C_4
REMARK    3  A    between atoms: C_4  and  C_5
REMARK    4  A    between atoms: C_7  and  C_8
REMARK    5  A    between atoms: C_8  and  C_9
REMARK    6  A    between atoms: C_14  and  C_15
REMARK    7  A    between atoms: C_15  and  C_16
REMARK                            x       y       z     vdW  Elec       q    Type
REMARK                         _______ _______ _______ _____ _____    ______ ____
ROOT
ATOM      9  C   UNL     1      -4.042   1.279  24.661  0.00  0.00    +0.024 C 
ATOM     10  C   UNL     1      -4.714   1.723  24.844  0.00  0.00    +0.089 C 
ATOM     11  N   UNL     1      -5.358   1.363  25.213  0.00  0.00    -0.218 NA
ATOM     12  C   UNL     1      -5.331   0.560  25.399  0.00  0.00    +0.089 C 
ATOM     13  C   UNL     1      -4.660   0.116  25.216  0.00  0.00    +0.019 C 
ATOM     14  C   UNL     1      -4.015   0.476  24.847  0.00  0.00    +0.012 C 
ENDROOT
BRANCH   9   8
ATOM      8  C   UNL     1      -3.399   1.639  24.292  0.00  0.00    +0.051 C 
BRANCH   8   7
ATOM      5  C   UNL     1      -2.852   3.654  24.739  0.00  0.00    +0.154 A 
ATOM      6  C   UNL     1      -2.780   2.842  24.868  0.00  0.00    +0.054 A 
ATOM      7  C   UNL     1      -3.293   2.455  24.350  0.00  0.00    +0.100 A 
ATOM     24  N   UNL     1      -3.681   3.027  23.900  0.00  0.00    -0.082 NA
ATOM     25  O   UNL     1      -3.408   3.769  24.140  0.00  0.00    -0.358 OA
BRANCH   5   4
ATOM      4  C   UNL     1      -2.439   4.247  25.137  0.00  0.00    +0.067 C 
BRANCH   4   3
ATOM      3  C   UNL     1      -1.675   4.448  24.900  0.00  0.00    +0.008 C 
BRANCH   3   2
ATOM      1  C   UNL     1      -0.603   5.393  24.854  0.00  0.00    +0.000 C 
ATOM      2  C   UNL     1      -1.349   5.170  25.130  0.00  0.00    +0.000 C 
ENDBRANCH   3   2
ENDBRANCH   4   3
ENDBRANCH   5   4
ENDBRANCH   8   7
ENDBRANCH   9   8
BRANCH  14  15
ATOM     15  C   UNL     1      -3.344   0.032  24.664  0.00  0.00    +0.087 C 
BRANCH  15  16
ATOM     16  C   UNL     1      -3.422  -0.686  24.266  0.00  0.00    +0.247 C 
ATOM     17  O   UNL     1      -4.100  -0.841  23.822  0.00  0.00    -0.273 OA
ATOM     18  N   UNL     1      -2.821  -1.250  24.311  0.00  0.00    -0.154 NA
ATOM     19  C   UNL     1      -2.143  -1.095  24.754  0.00  0.00    +0.186 A 
ATOM     20  N   UNL     1      -1.989  -0.405  25.180  0.00  0.00    -0.221 NA
ATOM     21  C   UNL     1      -1.250  -0.487  25.539  0.00  0.00    +0.108 A 
ATOM     22  C   UNL     1      -0.947  -1.226  25.335  0.00  0.00    +0.059 A 
ATOM     23  S   UNL     1      -1.499  -1.603  24.850  0.00  0.00    -0.049 S 
ENDBRANCH  15  16
ENDBRANCH  14  15
TORSDOF 7
ENDMDL
MODEL 6
REMARK VINA RESULT:      -9.0      2.169      3.528
REMARK  Name = 
REMARK  7 active torsions:
REMARK  status: ('A' for Active; 'I' for Inactive)
REMARK    1  A    between atoms: C_2  and  C_3
REMARK    2  A    between atoms: C_3  and  C_4
REMARK    3  A    between atoms: C_4  and  C_5
REMARK    4  A    between atoms: C_7  and  C_8
REMARK    5  A    between atoms: C_8  and  C_9
REMARK    6  A    between atoms: C_14  and  C_15
REMARK    7  A    between atoms: C_15  and  C_16
REMARK                            x       y       z     vdW  Elec       q    Type
REMARK                         _______ _______ _______ _____ _____    ______ ____
ROOT
ATOM      9  C   UNL     1      -1.505   3.355  25.479  0.00  0.00    +0.024 C 
ATOM     10  C   UNL     1      -0.754   3.647  25.302  0.00  0.00    +0.089 C 
ATOM     11  N   UNL     1      -0.667   4.420  25.027  0.00  0.00    -0.218 NA
ATOM     12  C   UNL     1      -1.330   4.901  24.930  0.00  0.00    +0.089 C 
ATOM     13  C   UNL     1      -2.081   4.609  25.108  0.00  0.00    +0.019 C 
ATOM     14  C   UNL     1      -2.168   3.835  25.383  0.00  0.00    +0.012 C 
ENDROOT
BRANCH   9   8
ATOM      8  C   UNL     1      -1.592   2.582  25.754  0.00  0.00    +0.051 C 
BRANCH   8   7
ATOM      5  C   UNL     1      -0.583   0.889  24.933  0.00  0.00    +0.154 A 
ATOM      6  C   UNL     1      -1.272   1.326  25.060  0.00  0.00    +0.054 A 
ATOM      7  C   UNL     1      -1.072   1.994  25.502  0.00  0.00    +0.100 A 
ATOM     24  N   UNL     1      -0.260   1.968  25.649  0.00  0.00    -0.082 NA
ATOM     25  O   UNL     1       0.041   1.286  25.297  0.00  0.00    -0.358 OA
BRANCH   5   4
ATOM      4  C   UNL     1      -0.530   0.179  24.515  0.00  0.00    +0.067 C 
BRANCH   4   3
ATOM      3  C   UNL     1      -0.782  -0.524  24.864  0.00  0.00    +0.008 C 
BRANCH   3   2
ATOM      1  C   UNL     1      -1.151  -1.889  24.655  0.00  0.00    +0.000 C 
ATOM      2  C   UNL     1      -0.674  -1.241  24.471  0.00  0.00    +0.000 C 
ENDBRANCH   3   2
ENDBRANCH   4   3
ENDBRANCH   5   4
ENDBRANCH   8   7
ENDBRANCH   9   8
BRANCH  14  15
ATOM     15  C   UNL     1      -2.919   3.544  25.560  0.00  0.00    +0.087 C 
BRANCH  15  16
ATOM     16  C   UNL     1      -3.403   3.948  26.093  0.00  0.00    +0.247 C 
ATOM     17  O   UNL     1      -3.074   4.493  26.617  0.00  0.00    -0.273 OA
ATOM     18  N   UNL     1      -4.216   3.807  26.101  0.00  0.00    -0.154 NA
ATOM     19  C   UNL     1      -4.545   3.262  25.577  0.00  0.00    +0.186 A 
ATOM     20  N   UNL     1      -4.133   2.818  25.016  0.00  0.00    -0.221 NA
ATOM     21  C   UNL     1      -4.677   2.347  24.614  0.00  0.00    +0.108 A 
ATOM     22  C   UNL     1      -5.426   2.498  24.925  0.00  0.00    +0.059 A 
ATOM     23  S   UNL     1      -5.344   3.064  25.521  0.00  0.00    -0.049 S 
ENDBRANCH  15  16
ENDBRANCH  14  15
TORSDOF 7
ENDMDL
MODEL 7
REMARK VINA RESULT:      -8.9      2.293      4.348
REMARK  Name = 
REMARK  7 active torsions:
REMARK  status: ('A' for Active; 'I' for Inactive)
REMARK    1  A    between atoms: C_2  and  C_3
REMARK    2  A    between atoms: C_3  and  C_4
REMARK    3  A    between atoms: C_4  and  C_5
REMARK    4  A    between atoms: C_7  and  C_8
REMARK    5  A    between atoms: C_8  and  C_9
REMARK    6  A    between atoms: C_14  and  C_15
REMARK    7  A    between atoms: C_15  and  C_16
REMARK                            x       y       z     vdW  Elec       q    Type
REMARK                         _______ _______ _______ _____ _____    ______ ____
ROOT
ATOM      9  C   UNL     1      -1.375   2.400  24.994  0.00  0.00    +0.024 C 
ATOM     10  C   UNL     1      -1.320   3.148  25.340  0.00  0.00    +0.089 C 
ATOM     11  N   UNL     1      -0.695   3.321  25.849  0.00  0.00    -0.218 NA
ATOM     12  C   UNL     1      -0.125   2.749  26.012  0.00  0.00    +0.089 C 
ATOM     13  C   UNL     1      -0.179   2.002  25.666  0.00  0.00    +0.019 C 
ATOM     14  C   UNL     1      -0.804   1.828  25.157  0.00  0.00    +0.012 C 
ENDROOT
BRANCH   9   8
ATOM      8  C   UNL     1      -2.000   2.227  24.485  0.00  0.00    +0.051 C 
BRANCH   8   7
ATOM      5  C   UNL     1      -3.968   2.958  24.875  0.00  0.00    +0.154 A 
ATOM      6  C   UNL     1      -3.387   2.376  24.949  0.00  0.00    +0.054 A 
ATOM      7  C   UNL     1      -2.713   2.637  24.551  0.00  0.00    +0.100 A 
ATOM     24  N   UNL     1      -2.876   3.380  24.232  0.00  0.00    -0.082 NA
ATOM     25  O   UNL     1      -3.652   3.578  24.432  0.00  0.00    -0.358 OA
BRANCH   5   4
ATOM      4  C   UNL     1      -4.730   2.925  25.189  0.00  0.00    +0.067 C 
BRANCH   4   3
ATOM      3  C   UNL     1      -5.237   2.310  24.977  0.00  0.00    +0.008 C 
BRANCH   3   2
ATOM      1  C   UNL     1      -6.523   1.693  25.062  0.00  0.00    +0.000 C 
ATOM      2  C   UNL     1      -5.968   2.231  25.351  0.00  0.00    +0.000 C 
ENDBRANCH   3   2
ENDBRANCH   4   3
ENDBRANCH   5   4
ENDBRANCH   8   7
ENDBRANCH   9   8
BRANCH  14  15
ATOM     15  C   UNL     1      -0.858   1.081  24.811  0.00  0.00    +0.087 C 
BRANCH  15  16
ATOM     16  C   UNL     1      -0.228   0.785  24.368  0.00  0.00    +0.247 C 
ATOM     17  O   UNL     1       0.322   1.303  24.035  0.00  0.00    -0.273 OA
ATOM     18  N   UNL     1      -0.146  -0.029  24.257  0.00  0.00    -0.154 NA
ATOM     19  C   UNL     1      -0.695  -0.546  24.590  0.00  0.00    +0.186 A 
ATOM     20  N   UNL     1      -1.350  -0.333  25.044  0.00  0.00    -0.221 NA
ATOM     21  C   UNL     1      -1.746  -1.024  25.262  0.00  0.00    +0.108 A 
ATOM     22  C   UNL     1      -1.335  -1.664  24.943  0.00  0.00    +0.059 A 
ATOM     23  S   UNL     1      -0.685  -1.369  24.527  0.00  0.00    -0.049 S 
ENDBRANCH  15  16
ENDBRANCH  14  15
TORSDOF 7
ENDMDL
