MODEL 1
REMARK VINA RESULT:     -10.8      0.000      0.000
REMARK  Name = 
REMARK  6 active torsions:
REMARK  status: ('A' for Active; 'I' for Inactive)
REMARK    1  A    between atoms: O_2  and  C_3
REMARK    2  A    between atoms: C_3  and  C_5
REMARK    3  A    between atoms: C_5  and  N_7
REMARK    4  A    between atoms: C_8  and  C_10
REMARK    5  A    between atoms: N_18  and  C_19
REMARK    6  A    between atoms: C_25  and  C_27
REMARK                            x       y       z     vdW  Elec       q    Type
REMARK                         _______ _______ _______ _____ _____    ______ ____
ROOT
ATOM     10  C   UNL     1      -1.479   0.754  24.771  0.00  0.00    +0.175 C 
ATOM     11  C   UNL     1      -1.278   1.544  24.891  0.00  0.00    +0.123 C 
ATOM     12  N   UNL     1      -1.865   2.100  25.054  0.00  0.00    -0.276 N 
ATOM     13  C   UNL     1      -2.655   1.864  25.097  0.00  0.00    +0.115 C 
ATOM     14  C   UNL     1      -2.857   1.073  24.977  0.00  0.00    +0.117 C 
ATOM     15  N   UNL     1      -2.268   0.518  24.814  0.00  0.00    -0.253 N 
ATOM     16  C   UNL     1      -2.470  -0.273  24.693  0.00  0.00    +0.324 C 
ATOM     17  O   UNL     1      -1.882  -0.828  24.530  0.00  0.00    -0.251 OA
ATOM     18  N   UNL     1      -3.258  -0.509  24.736  0.00  0.00    -0.190 NA
ATOM     25  C   UNL     1      -1.664   2.890  25.174  0.00  0.00    +0.225 C 
ATOM     26  O   UNL     1      -0.874   3.126  25.132  0.00  0.00    -0.275 OA
ENDROOT
BRANCH  18  19
ATOM     19  C   UNL     1      -3.461  -1.300  24.616  0.00  0.00    +0.097 C 
ATOM     20  C   UNL     1      -3.326  -1.855  25.210  0.00  0.00    +0.022 C 
ATOM     21  C   UNL     1      -3.529  -2.646  25.089  0.00  0.00    +0.002 C 
ATOM     22  C   UNL     1      -3.865  -2.881  24.374  0.00  0.00    +0.000 C 
ATOM     23  C   UNL     1      -4.000  -2.325  23.779  0.00  0.00    +0.002 C 
ATOM     24  C   UNL     1      -3.798  -1.534  23.899  0.00  0.00    +0.022 C 
ENDBRANCH  18  19
BRANCH  25  27
ATOM     27  C   UNL     1      -2.252   3.446  25.338  0.00  0.00    +0.080 C 
ATOM     28  C   UNL     1      -2.688   3.779  24.722  0.00  0.00    +0.028 C 
ATOM     29  C   UNL     1      -3.275   4.335  24.886  0.00  0.00    +0.089 C 
ATOM     30  N   UNL     1      -3.426   4.557  25.666  0.00  0.00    -0.218 NA
ATOM     31  C   UNL     1      -2.991   4.224  26.282  0.00  0.00    +0.089 C 
ATOM     32  C   UNL     1      -2.403   3.668  26.118  0.00  0.00    +0.028 C 
ENDBRANCH  25  27
BRANCH  10   8
ATOM      7  N   UNL     1      -0.458   0.248  23.908  0.00  0.00    -0.194 NA
ATOM      8  C   UNL     1      -0.891   0.198  24.607  0.00  0.00    +0.262 C 
ATOM      9  O   UNL     1      -0.737  -0.409  25.146  0.00  0.00    -0.271 OA
BRANCH   7   5
ATOM      5  C   UNL     1       0.130  -0.308  23.745  0.00  0.00    +0.194 C 
ATOM      6  C   UNL     1       0.217  -0.970  24.231  0.00  0.00    +0.035 C 
BRANCH   5   3
ATOM      3  C   UNL     1       0.629  -0.203  23.097  0.00  0.00    +0.337 C 
ATOM      4  O   UNL     1       0.346  -0.332  22.333  0.00  0.00    -0.248 OA
BRANCH   3   2
ATOM      1  C   UNL     1       1.939   0.038  22.578  0.00  0.00    +0.256 C 
ATOM      2  O   UNL     1       1.412   0.031  23.213  0.00  0.00    -0.443 OA
ENDBRANCH   3   2
ENDBRANCH   5   3
ENDBRANCH   7   5
ENDBRANCH  10   8
TORSDOF 6
ENDMDL
MODEL 2
REMARK VINA RESULT:     -10.3      2.065      5.473
REMARK  Name = 
REMARK  6 active torsions:
REMARK  status: ('A' for Active; 'I' for Inactive)
REMARK    1  A    between atoms: O_2  and  C_3
REMARK    2  A    between atoms: C_3  and  C_5
REMARK    3  A    between atoms: C_5  and  N_7
REMARK    4  A    between atoms: C_8  and  C_10
REMARK    5  A    between atoms: N_18  and  C_19
REMARK    6  A    between atoms: C_25  and  C_27
REMARK                            x       y       z     vdW  Elec       q    Type
REMARK                         _______ _______ _______ _____ _____    ______ ____
ROOT
ATOM     10  C   UNL     1      -3.253   0.942  24.367  0.00  0.00    +0.175 C 
ATOM     11  C   UNL     1      -3.773   0.315  24.240  0.00  0.00    +0.123 C 
ATOM     12  N   UNL     1      -3.538  -0.457  24.411  0.00  0.00    -0.276 N 
ATOM     13  C   UNL     1      -2.782  -0.602  24.709  0.00  0.00    +0.115 C 
ATOM     14  C   UNL     1      -2.262   0.026  24.837  0.00  0.00    +0.117 C 
ATOM     15  N   UNL     1      -2.498   0.798  24.665  0.00  0.00    -0.253 N 
ATOM     16  C   UNL     1      -1.977   1.426  24.793  0.00  0.00    +0.324 C 
ATOM     17  O   UNL     1      -2.213   2.198  24.621  0.00  0.00    -0.251 OA
ATOM     18  N   UNL     1      -1.222   1.282  25.091  0.00  0.00    -0.190 NA
ATOM     25  C   UNL     1      -4.057  -1.085  24.284  0.00  0.00    +0.225 C 
ATOM     26  O   UNL     1      -4.814  -0.940  23.985  0.00  0.00    -0.275 OA
ENDROOT
BRANCH  18  19
ATOM     19  C   UNL     1      -0.702   1.909  25.219  0.00  0.00    +0.097 C 
ATOM     20  C   UNL     1      -0.211   2.169  24.608  0.00  0.00    +0.022 C 
ATOM     21  C   UNL     1       0.309   2.796  24.737  0.00  0.00    +0.002 C 
ATOM     22  C   UNL     1       0.339   3.163  25.475  0.00  0.00    +0.000 C 
ATOM     23  C   UNL     1      -0.152   2.903  26.085  0.00  0.00    +0.002 C 
ATOM     24  C   UNL     1      -0.672   2.276  25.958  0.00  0.00    +0.022 C 
ENDBRANCH  18  19
BRANCH  25  27
ATOM     27  C   UNL     1      -3.823  -1.857  24.455  0.00  0.00    +0.080 C 
ATOM     28  C   UNL     1      -3.672  -2.080  25.234  0.00  0.00    +0.028 C 
ATOM     29  C   UNL     1      -3.438  -2.851  25.404  0.00  0.00    +0.089 C 
ATOM     30  N   UNL     1      -3.354  -3.401  24.795  0.00  0.00    -0.218 NA
ATOM     31  C   UNL     1      -3.504  -3.179  24.015  0.00  0.00    +0.089 C 
ATOM     32  C   UNL     1      -3.739  -2.406  23.845  0.00  0.00    +0.028 C 
ENDBRANCH  25  27
BRANCH  10   8
ATOM      7  N   UNL     1      -4.050   2.090  24.668  0.00  0.00    -0.194 NA
ATOM      8  C   UNL     1      -3.488   1.715  24.196  0.00  0.00    +0.262 C 
ATOM      9  O   UNL     1      -3.159   2.112  23.551  0.00  0.00    -0.271 OA
BRANCH   7   5
ATOM      5  C   UNL     1      -4.284   2.862  24.497  0.00  0.00    +0.194 C 
ATOM      6  C   UNL     1      -4.060   3.213  23.783  0.00  0.00    +0.035 C 
BRANCH   5   3
ATOM      3  C   UNL     1      -4.742   3.284  25.037  0.00  0.00    +0.337 C 
ATOM      4  O   UNL     1      -4.442   3.968  25.387  0.00  0.00    -0.248 OA
BRANCH   3   2
ATOM      1  C   UNL     1      -5.904   3.355  25.866  0.00  0.00    +0.256 C 
ATOM      2  O   UNL     1      -5.501   3.022  25.228  0.00  0.00    -0.443 OA
ENDBRANCH   3   2
ENDBRANCH   5   3
ENDBRANCH   7   5
ENDBRANCH  10   8
TORSDOF 6
ENDMDL
MODEL 3
REMARK VINA RESULT:      -9.7      1.649      4.560
REMARK  Name = 
REMARK  6 active torsions:
REMARK  status: ('A' for Active; 'I' for Inactive)
REMARK    1  A    between atoms: O_2  and  C_3
REMARK    2  A    between atoms: C_3  and  C_5
REMARK    3  A    between atoms: C_5  and  N_7
REMARK    4  A    between atoms: C_8  and  C_10
REMARK    5  A    between atoms: N_18  and  C_19
REMARK    6  A    between atoms: C_25  and  C_27
REMARK                            x       y       z     vdW  Elec       q    Type
REMARK                         _______ _______ _______ _____ _____    ______ ____
ROOT
ATOM     10  C   UNL     1      -1.948   0.736  24.547  0.00  0.00    +0.175 C 
ATOM     11  C   UNL     1      -1.726  -0.057  24.520  0.00  0.00    +0.123 C 
ATOM     12  N   UNL     1      -2.296  -0.649  24.597  0.00  0.00    -0.276 N 
ATOM     13  C   UNL     1      -3.089  -0.446  24.701  0.00  0.00    +0.115 C 
ATOM     14  C   UNL     1      -3.311   0.349  24.728  0.00  0.00    +0.117 C 
ATOM     15  N   UNL     1      -2.740   0.939  24.651  0.00  0.00    -0.253 N 
ATOM     16  C   UNL     1      -2.963   1.734  24.678  0.00  0.00    +0.324 C 
ATOM     17  O   UNL     1      -2.392   2.325  24.601  0.00  0.00    -0.251 OA
ATOM     18  N   UNL     1      -3.755   1.937  24.782  0.00  0.00    -0.190 NA
ATOM     25  C   UNL     1      -2.074  -1.442  24.570  0.00  0.00    +0.225 C 
ATOM     26  O   UNL     1      -1.280  -1.645  24.466  0.00  0.00    -0.275 OA
ENDROOT
BRANCH  18  19
ATOM     19  C   UNL     1      -3.978   2.731  24.809  0.00  0.00    +0.097 C 
ATOM     20  C   UNL     1      -4.068   3.110  25.536  0.00  0.00    +0.022 C 
ATOM     21  C   UNL     1      -4.291   3.904  25.562  0.00  0.00    +0.002 C 
ATOM     22  C   UNL     1      -4.424   4.319  24.862  0.00  0.00    +0.000 C 
ATOM     23  C   UNL     1      -4.334   3.939  24.135  0.00  0.00    +0.002 C 
ATOM     24  C   UNL     1      -4.111   3.146  24.107  0.00  0.00    +0.022 C 
ENDBRANCH  18  19
BRANCH  25  27
ATOM     27  C   UNL     1      -2.644  -2.034  24.646  0.00  0.00    +0.080 C 
ATOM     28  C   UNL     1      -3.052  -2.303  23.982  0.00  0.00    +0.028 C 
ATOM     29  C   UNL     1      -3.621  -2.894  24.060  0.00  0.00    +0.089 C 
ATOM     30  N   UNL     1      -3.783  -3.216  24.802  0.00  0.00    -0.218 NA
ATOM     31  C   UNL     1      -3.376  -2.947  25.467  0.00  0.00    +0.089 C 
ATOM     32  C   UNL     1      -2.806  -2.355  25.389  0.00  0.00    +0.028 C 
ENDBRANCH  25  27
BRANCH  10   8
ATOM      7  N   UNL     1      -0.861   1.487  25.093  0.00  0.00    -0.194 NA
ATOM      8  C   UNL     1      -1.377   1.328  24.470  0.00  0.00    +0.262 C 
ATOM      9  O   UNL     1      -1.325   1.761  23.769  0.00  0.00    -0.271 OA
BRANCH   7   5
ATOM      5  C   UNL     1      -0.290   2.078  25.016  0.00  0.00    +0.194 C 
ATOM      6  C   UNL     1       0.051   2.229  24.279  0.00  0.00    +0.035 C 
BRANCH   5   3
ATOM      3  C   UNL     1      -0.061   2.519  25.674  0.00  0.00    +0.337 C 
ATOM      4  O   UNL     1      -0.173   3.336  25.682  0.00  0.00    -0.248 OA
BRANCH   3   2
ATOM      1  C   UNL     1       0.433   2.569  27.013  0.00  0.00    +0.256 C 
ATOM      2  O   UNL     1       0.280   2.143  26.325  0.00  0.00    -0.443 OA
ENDBRANCH   3   2
ENDBRANCH   5   3
ENDBRANCH   7   5
ENDBRANCH  10   8
TORSDOF 6
ENDMDL
MODEL 4
REMARK VINA RESULT:      -9.4      2.239      4.028
REMARK  Name = 
REMARK  6 active torsions:
REMARK  status: ('A' for Active; 'I' for Inactive)
REMARK    1  A    between atoms: O_2  and  C_3
REMARK    2  A    between atoms: C_3  and  C_5
REMARK    3  A    between atoms: C_5  and  N_7
REMARK    4  A    between atoms: C_8  and  C_10
REMARK    5  A    between atoms: N_18  and  C_19
REMARK    6  A    between atoms: C_25  and  C_27
REMARK                            x       y       z     vdW  Elec       q    Type
REMARK                         _______ _______ _______ _____ _____    ______ ____
ROOT
ATOM     10  C   UNL     1      -3.354   1.520  24.913  0.00  0.00    +0.175 C 
ATOM     11  C   UNL     1      -2.925   2.202  25.084  0.00  0.00    +0.123 C 
ATOM     12  N   UNL     1      -2.107   2.162  25.186  0.00  0.00    -0.276 N 
ATOM     13  C   UNL     1      -1.719   1.437  25.117  0.00  0.00    +0.115 C 
ATOM     14  C   UNL     1      -2.148   0.753  24.945  0.00  0.00    +0.117 C 
ATOM     15  N   UNL     1      -2.966   0.795  24.844  0.00  0.00    -0.253 N 
ATOM     16  C   UNL     1      -3.395   0.111  24.673  0.00  0.00    +0.324 C 
ATOM     17  O   UNL     1      -4.213   0.153  24.571  0.00  0.00    -0.251 OA
ATOM     18  N   UNL     1      -3.008  -0.613  24.603  0.00  0.00    -0.190 NA
ATOM     25  C   UNL     1      -1.678   2.845  25.357  0.00  0.00    +0.225 C 
ATOM     26  O   UNL     1      -2.067   3.570  25.427  0.00  0.00    -0.275 OA
ENDROOT
BRANCH  18  19
ATOM     19  C   UNL     1      -3.436  -1.296  24.432  0.00  0.00    +0.097 C 
ATOM     20  C   UNL     1      -3.815  -1.375  23.704  0.00  0.00    +0.022 C 
ATOM     21  C   UNL     1      -4.244  -2.059  23.534  0.00  0.00    +0.002 C 
ATOM     22  C   UNL     1      -4.293  -2.664  24.091  0.00  0.00    +0.000 C 
ATOM     23  C   UNL     1      -3.914  -2.586  24.820  0.00  0.00    +0.002 C 
ATOM     24  C   UNL     1      -3.486  -1.902  24.991  0.00  0.00    +0.022 C 
ENDBRANCH  18  19
BRANCH  25  27
ATOM     27  C   UNL     1      -0.860   2.804  25.459  0.00  0.00    +0.080 C 
ATOM     28  C   UNL     1      -0.359   2.876  24.808  0.00  0.00    +0.028 C 
ATOM     29  C   UNL     1       0.458   2.836  24.911  0.00  0.00    +0.089 C 
ATOM     30  N   UNL     1       0.774   2.723  25.664  0.00  0.00    -0.218 NA
ATOM     31  C   UNL     1       0.273   2.651  26.316  0.00  0.00    +0.089 C 
ATOM     32  C   UNL     1      -0.544   2.692  26.213  0.00  0.00    +0.028 C 
ENDBRANCH  25  27
BRANCH  10   8
ATOM      7  N   UNL     1      -4.652   1.827  25.426  0.00  0.00    -0.194 NA
ATOM      8  C   UNL     1      -4.172   1.560  24.812  0.00  0.00    +0.262 C 
ATOM      9  O   UNL     1      -4.510   1.333  24.093  0.00  0.00    -0.271 OA
BRANCH   7   5
ATOM      5  C   UNL     1      -5.470   1.868  25.324  0.00  0.00    +0.194 C 
ATOM      6  C   UNL     1      -5.801   1.720  24.582  0.00  0.00    +0.035 C 
BRANCH   5   3
ATOM      3  C   UNL     1      -5.957   2.056  25.962  0.00  0.00    +0.337 C 
ATOM      4  O   UNL     1      -5.953   2.821  26.273  0.00  0.00    -0.248 OA
BRANCH   3   2
ATOM      1  C   UNL     1      -6.717   1.561  27.067  0.00  0.00    +0.256 C 
ATOM      2  O   UNL     1      -6.448   1.481  26.291  0.00  0.00    -0.443 OA
ENDBRANCH   3   2
ENDBRANCH   5   3
ENDBRANCH   7   5
ENDBRANCH  10   8
TORSDOF 6
ENDMDL
MODEL 5
REMARK VINA RESULT:      -9.2      1.304      4.713
REMARK  Name = 
REMARK  6 active torsions:
REMARK  status: ('A' for Active; 'I' for Inactive)
REMARK    1  A    between atoms: O_2  and  C_3
REMARK    2  A    between atoms: C_3  and  C_5
REMARK    3  A    between atoms: C_5  and  N_7
REMARK    4  A    between atoms: C_8  and  C_10
REMARK    5  A    between atoms: N_18  and  C_19
REMARK    6  A    between atoms: C_25  and  C_27
REMARK                            x       y       z     vdW  Elec       q    Type
REMARK                         _______ _______ _______ _____ _____    ______ ____
ROOT
ATOM     10  C   UNL     1      -1.556   0.204  24.444  0.00  0.00    +0.175 C 
ATOM     11  C   UNL     1      -0.915  -0.283  24.266  0.00  0.00    +0.123 C 
ATOM     12  N   UNL     1      -0.267   0.019  23.853  0.00  0.00    -0.276 N 
ATOM     13  C   UNL     1      -0.262   0.810  23.619  0.00  0.00    +0.115 C 
ATOM     14  C   UNL     1      -0.903   1.298  23.797  0.00  0.00    +0.117 C 
ATOM     15  N   UNL     1      -1.550   0.995  24.209  0.00  0.00    -0.253 N 
ATOM     16  C   UNL     1      -2.192   1.483  24.387  0.00  0.00    +0.324 C 
ATOM     17  O   UNL     1      -2.838   1.179  24.800  0.00  0.00    -0.251 OA
ATOM     18  N   UNL     1      -2.186   2.273  24.153  0.00  0.00    -0.190 NA
ATOM     25  C   UNL     1       0.373  -0.468  23.675  0.00  0.00    +0.225 C 
ATOM     26  O   UNL     1       0.368  -1.260  23.910  0.00  0.00    -0.275 OA
ENDROOT
BRANCH  18  19
ATOM     19  C   UNL     1      -2.827   2.761  24.331  0.00  0.00    +0.097 C 
ATOM     20  C   UNL     1      -3.480   2.785  23.827  0.00  0.00    +0.022 C 
ATOM     21  C   UNL     1      -4.120   3.274  24.006  0.00  0.00    +0.002 C 
ATOM     22  C   UNL     1      -4.108   3.737  24.688  0.00  0.00    +0.000 C 
ATOM     23  C   UNL     1      -3.455   3.713  25.191  0.00  0.00    +0.002 C 
ATOM     24  C   UNL     1      -2.814   3.225  25.013  0.00  0.00    +0.022 C 
ENDBRANCH  18  19
BRANCH  25  27
ATOM     27  C   UNL     1       1.021  -0.165  23.262  0.00  0.00    +0.080 C 
ATOM     28  C   UNL     1       1.560   0.328  23.644  0.00  0.00    +0.028 C 
ATOM     29  C   UNL     1       2.206   0.631  23.231  0.00  0.00    +0.089 C 
ATOM     30  N   UNL     1       2.314   0.439  22.436  0.00  0.00    -0.218 NA
ATOM     31  C   UNL     1       1.775  -0.054  22.053  0.00  0.00    +0.089 C 
ATOM     32  C   UNL     1       1.128  -0.356  22.467  0.00  0.00    +0.028 C 
ENDBRANCH  25  27
BRANCH  10   8
ATOM      7  N   UNL     1      -2.693  -0.659  24.502  0.00  0.00    -0.194 NA
ATOM      8  C   UNL     1      -2.203  -0.099  24.856  0.00  0.00    +0.262 C 
ATOM      9  O   UNL     1      -2.359   0.159  25.625  0.00  0.00    -0.271 OA
BRANCH   7   5
ATOM      5  C   UNL     1      -3.341  -0.962  24.914  0.00  0.00    +0.194 C 
ATOM      6  C   UNL     1      -3.428  -0.801  25.720  0.00  0.00    +0.035 C 
BRANCH   5   3
ATOM      3  C   UNL     1      -3.900  -1.424  24.523  0.00  0.00    +0.337 C 
ATOM      4  O   UNL     1      -4.583  -1.076  24.219  0.00  0.00    -0.248 OA
BRANCH   3   2
ATOM      1  C   UNL     1      -4.240  -2.669  23.909  0.00  0.00    +0.256 C 
ATOM      2  O   UNL     1      -3.777  -2.236  24.436  0.00  0.00    -0.443 OA
ENDBRANCH   3   2
ENDBRANCH   5   3
ENDBRANCH   7   5
ENDBRANCH  10   8
TORSDOF 6
ENDMDL
MODEL 6
REMARK VINA RESULT:      -9.1      2.111      2.853
REMARK  Name = 
REMARK  6 active torsions:
REMARK  status: ('A' for Active; 'I' for Inactive)
REMARK    1  A    between atoms: O_2  and  C_3
REMARK    2  A    between atoms: C_3  and  C_5
REMARK    3  A    between atoms: C_5  and  N_7
REMARK    4  A    between atoms: C_8  and  C_10
REMARK    5  A    between atoms: N_18  and  C_19
REMARK    6  A    between atoms: C_25  and  C_27
REMARK                            x       y       z     vdW  Elec       q    Type
REMARK                         _______ _______ _______ _____ _____    ______ ____
ROOT
ATOM     10  C   UNL     1      -2.609   1.504  24.630  0.00  0.00    +0.175 C 
ATOM     11  C   UNL     1      -3.176   2.102  24.668  0.00  0.00    +0.123 C 
ATOM     12  N   UNL     1      -3.950   1.923  24.895  0.00  0.00    -0.276 N 
ATOM     13  C   UNL     1      -4.155   1.147  25.084  0.00  0.00    +0.115 C 
ATOM     14  C   UNL     1      -3.587   0.549  25.046  0.00  0.00    +0.117 C 
ATOM     15  N   UNL     1      -2.815   0.728  24.819  0.00  0.00    -0.253 N 
ATOM     16  C   UNL     1      -2.247   0.130  24.781  0.00  0.00    +0.324 C 
ATOM     17  O   UNL     1      -1.474   0.309  24.554  0.00  0.00    -0.251 OA
ATOM     18  N   UNL     1      -2.452  -0.646  24.970  0.00  0.00    -0.190 NA
ATOM     25  C   UNL     1      -4.517   2.521  24.933  0.00  0.00    +0.225 C 
ATOM     26  O   UNL     1      -4.311   3.298  24.744  0.00  0.00    -0.275 OA
ENDROOT
BRANCH  18  19
ATOM     19  C   UNL     1      -1.885  -1.244  24.932  0.00  0.00    +0.097 C 
ATOM     20  C   UNL     1      -1.261  -1.256  25.471  0.00  0.00    +0.022 C 
ATOM     21  C   UNL     1      -0.694  -1.854  25.433  0.00  0.00    +0.002 C 
ATOM     22  C   UNL     1      -0.752  -2.440  24.856  0.00  0.00    +0.000 C 
ATOM     23  C   UNL     1      -1.376  -2.429  24.317  0.00  0.00    +0.002 C 
ATOM     24  C   UNL     1      -1.943  -1.830  24.354  0.00  0.00    +0.022 C 
ENDBRANCH  18  19
BRANCH  25  27
ATOM     27  C   UNL     1      -5.290   2.342  25.160  0.00  0.00    +0.080 C 
ATOM     28  C   UNL     1      -5.822   2.038  24.609  0.00  0.00    +0.028 C 
ATOM     29  C   UNL     1      -6.594   1.860  24.836  0.00  0.00    +0.089 C 
ATOM     30  N   UNL     1      -6.835   1.987  25.615  0.00  0.00    -0.218 NA
ATOM     31  C   UNL     1      -6.303   2.292  26.167  0.00  0.00    +0.089 C 
ATOM     32  C   UNL     1      -5.530   2.470  25.939  0.00  0.00    +0.028 C 
ENDBRANCH  25  27
BRANCH  10   8
ATOM      7  N   UNL     1      -1.348   2.117  24.906  0.00  0.00    -0.194 NA
ATOM      8  C   UNL     1      -1.836   1.683  24.403  0.00  0.00    +0.262 C 
ATOM      9  O   UNL     1      -1.551   1.426  23.672  0.00  0.00    -0.271 OA
BRANCH   7   5
ATOM      5  C   UNL     1      -0.575   2.295  24.679  0.00  0.00    +0.194 C 
ATOM      6  C   UNL     1      -0.398   2.424  23.883  0.00  0.00    +0.035 C 
BRANCH   5   3
ATOM      3  C   UNL     1       0.021   2.344  25.246  0.00  0.00    +0.337 C 
ATOM      4  O   UNL     1       0.772   2.042  25.084  0.00  0.00    -0.248 OA
BRANCH   3   2
ATOM      1  C   UNL     1       0.400   2.600  26.600  0.00  0.00    +0.256 C 
ATOM      2  O   UNL     1      -0.132   2.694  25.978  0.00  0.00    -0.443 OA
ENDBRANCH   3   2
ENDBRANCH   5   3
ENDBRANCH   7   5
ENDBRANCH  10   8
TORSDOF 6
ENDMDL
