MODEL 1
REMARK VINA RESULT:     -10.1      0.000      0.000
REMARK  Name = 
REMARK  7 active torsions:
REMARK  status: ('A' for Active; 'I' for Inactive)
REMARK    1  A    between atoms: O_2  and  C_3
REMARK    2  A    between atoms: C_3  and  C_4
REMARK    3  A    between atoms: C_4  and  N_5
REMARK    4  A    between atoms: N_5  and  C_6
REMARK    5  A    between atoms: C_8  and  C_12
REMARK    6  A    between atoms: C_15  and  C_17
REMARK    7  A    between atoms: N_21  and  C_22
REMARK                            x       y       z     vdW  Elec       q    Type
REMARK                         _______ _______ _______ _____ _____    ______ ____
ROOT
ATOM     12  C   UNL     1      -4.233   0.825  24.630  0.00  0.00    +0.203 A 
ATOM     13  N   UNL     1      -4.115   0.669  23.828  0.00  0.00    -0.056 NA
ATOM     14  O   UNL     1      -3.769  -0.076  23.761  0.00  0.00    -0.336 OA
ATOM     15  C   UNL     1      -3.673  -0.382  24.522  0.00  0.00    +0.251 A 
ATOM     16  N   UNL     1      -3.959   0.175  25.058  0.00  0.00    -0.190 NA
ENDROOT
BRANCH  12   8
ATOM      6  C   UNL     1      -4.487   2.909  25.227  0.00  0.00    +0.148 A 
ATOM      7  C   UNL     1      -4.154   2.224  24.910  0.00  0.00    +0.039 A 
ATOM      8  C   UNL     1      -4.565   1.510  24.947  0.00  0.00    +0.043 A 
ATOM      9  C   UNL     1      -5.311   1.481  25.302  0.00  0.00    +0.024 A 
ATOM     10  C   UNL     1      -5.643   2.166  25.619  0.00  0.00    +0.100 A 
ATOM     11  N   UNL     1      -5.231   2.880  25.581  0.00  0.00    -0.228 NA
BRANCH   6   5
ATOM      5  N   UNL     1      -4.075   3.623  25.189  0.00  0.00    -0.218 NA
BRANCH   5   4
ATOM      4  C   UNL     1      -3.308   3.672  25.489  0.00  0.00    +0.146 C 
BRANCH   4   3
ATOM      3  C   UNL     1      -2.847   4.338  25.336  0.00  0.00    +0.166 C 
BRANCH   3   2
ATOM      1  C   UNL     1      -1.507   4.830  25.262  0.00  0.00    +0.174 C 
ATOM      2  O   UNL     1      -2.089   4.399  25.657  0.00  0.00    -0.349 OA
ENDBRANCH   3   2
ENDBRANCH   4   3
ENDBRANCH   5   4
ENDBRANCH   6   5
ENDBRANCH  12   8
BRANCH  15  17
ATOM     17  C   UNL     1      -3.347  -1.115  24.712  0.00  0.00    +0.138 C 
ATOM     18  C   UNL     1      -3.757  -1.828  24.773  0.00  0.00    +0.027 C 
ATOM     19  C   UNL     1      -3.216  -2.418  24.972  0.00  0.00    +0.019 C 
ATOM     20  C   UNL     1      -2.471  -2.069  25.034  0.00  0.00    +0.072 C 
ATOM     21  N   UNL     1      -2.551  -1.265  24.873  0.00  0.00    -0.268 NA
BRANCH  21  22
ATOM     22  C   UNL     1      -1.943  -0.706  24.873  0.00  0.00    +0.061 C 
ATOM     23  C   UNL     1      -1.732  -0.329  25.576  0.00  0.00    +0.033 C 
ATOM     24  C   UNL     1      -1.124   0.230  25.577  0.00  0.00    +0.074 C 
ATOM     25  N   UNL     1      -0.729   0.411  24.876  0.00  0.00    -0.271 NA
ATOM     26  C   UNL     1      -0.123   0.970  24.877  0.00  0.00    +0.090 C 
ATOM     27  C   UNL     1      -0.941   0.034  24.174  0.00  0.00    +0.074 C 
ATOM     28  C   UNL     1      -1.549  -0.525  24.173  0.00  0.00    +0.033 C 
ENDBRANCH  21  22
ENDBRANCH  15  17
TORSDOF 7
ENDMDL
MODEL 2
REMARK VINA RESULT:     -10.0      1.425      5.418
REMARK  Name = 
REMARK  7 active torsions:
REMARK  status: ('A' for Active; 'I' for Inactive)
REMARK    1  A    between atoms: O_2  and  C_3
REMARK    2  A    between atoms: C_3  and  C_4
REMARK    3  A    between atoms: C_4  and  N_5
REMARK    4  A    between atoms: N_5  and  C_6
REMARK    5  A    between atoms: C_8  and  C_12
REMARK    6  A    between atoms: C_15  and  C_17
REMARK    7  A    between atoms: N_21  and  C_22
REMARK                            x       y       z     vdW  Elec       q    Type
REMARK                         _______ _______ _______ _____ _____    ______ ____
ROOT
ATOM     12  C   UNL     1      -0.812   1.884  25.174  0.00  0.00    +0.203 A 
ATOM     13  N   UNL     1      -0.861   2.037  25.983  0.00  0.00    -0.056 NA
ATOM     14  O   UNL     1      -1.001   2.844  26.082  0.00  0.00    -0.336 OA
ATOM     15  C   UNL     1      -1.038   3.190  25.333  0.00  0.00    +0.251 A 
ATOM     16  N   UNL     1      -0.921   2.597  24.773  0.00  0.00    -0.190 NA
ENDROOT
BRANCH  12   8
ATOM      6  C   UNL     1      -0.939  -0.255  24.759  0.00  0.00    +0.148 A 
ATOM      7  C   UNL     1      -1.074   0.481  25.106  0.00  0.00    +0.039 A 
ATOM      8  C   UNL     1      -0.677   1.148  24.827  0.00  0.00    +0.043 A 
ATOM      9  C   UNL     1      -0.144   1.079  24.200  0.00  0.00    +0.024 A 
ATOM     10  C   UNL     1      -0.009   0.342  23.853  0.00  0.00    +0.100 A 
ATOM     11  N   UNL     1      -0.407  -0.324  24.133  0.00  0.00    -0.228 NA
BRANCH   6   5
ATOM      5  N   UNL     1      -1.336  -0.922  25.039  0.00  0.00    -0.218 NA
BRANCH   5   4
ATOM      4  C   UNL     1      -1.893  -1.300  24.561  0.00  0.00    +0.146 C 
BRANCH   4   3
ATOM      3  C   UNL     1      -2.358  -1.907  24.871  0.00  0.00    +0.166 C 
BRANCH   3   2
ATOM      1  C   UNL     1      -3.522  -2.692  24.607  0.00  0.00    +0.174 C 
ATOM      2  O   UNL     1      -2.791  -2.394  24.366  0.00  0.00    -0.349 OA
ENDBRANCH   3   2
ENDBRANCH   4   3
ENDBRANCH   5   4
ENDBRANCH   6   5
ENDBRANCH  12   8
BRANCH  15  17
ATOM     17  C   UNL     1      -1.168   3.989  25.175  0.00  0.00    +0.138 C 
ATOM     18  C   UNL     1      -0.588   4.557  25.033  0.00  0.00    +0.027 C 
ATOM     19  C   UNL     1      -0.965   5.279  24.902  0.00  0.00    +0.019 C 
ATOM     20  C   UNL     1      -1.779   5.157  24.963  0.00  0.00    +0.072 C 
ATOM     21  N   UNL     1      -1.905   4.360  25.132  0.00  0.00    -0.268 NA
BRANCH  21  22
ATOM     22  C   UNL     1      -2.638   3.996  25.239  0.00  0.00    +0.061 C 
ATOM     23  C   UNL     1      -2.972   3.960  25.993  0.00  0.00    +0.033 C 
ATOM     24  C   UNL     1      -3.705   3.595  26.101  0.00  0.00    +0.074 C 
ATOM     25  N   UNL     1      -4.103   3.268  25.456  0.00  0.00    -0.271 NA
ATOM     26  C   UNL     1      -4.835   2.905  25.565  0.00  0.00    +0.090 C 
ATOM     27  C   UNL     1      -3.768   3.305  24.704  0.00  0.00    +0.074 C 
ATOM     28  C   UNL     1      -3.035   3.669  24.595  0.00  0.00    +0.033 C 
ENDBRANCH  21  22
ENDBRANCH  15  17
TORSDOF 7
ENDMDL
MODEL 3
REMARK VINA RESULT:     -10.0      1.410      4.341
REMARK  Name = 
REMARK  7 active torsions:
REMARK  status: ('A' for Active; 'I' for Inactive)
REMARK    1  A    between atoms: O_2  and  C_3
REMARK    2  A    between atoms: C_3  and  C_4
REMARK    3  A    between atoms: C_4  and  N_5
REMARK    4  A    between atoms: N_5  and  C_6
REMARK    5  A    between atoms: C_8  and  C_12
REMARK    6  A    between atoms: C_15  and  C_17
REMARK    7  A    between atoms: N_21  and  C_22
REMARK                            x       y       z     vdW  Elec       q    Type
REMARK                         _______ _______ _______ _____ _____    ______ ____
ROOT
ATOM     12  C   UNL     1      -3.212   0.763  24.453  0.00  0.00    +0.203 A 
ATOM     13  N   UNL     1      -3.386   1.108  23.725  0.00  0.00    -0.056 NA
ATOM     14  O   UNL     1      -3.972   1.675  23.844  0.00  0.00    -0.336 OA
ATOM     15  C   UNL     1      -4.161   1.680  24.649  0.00  0.00    +0.251 A 
ATOM     16  N   UNL     1      -3.691   1.117  25.024  0.00  0.00    -0.190 NA
ENDROOT
BRANCH  12   8
ATOM      6  C   UNL     1      -1.298  -0.277  24.603  0.00  0.00    +0.148 A 
ATOM      7  C   UNL     1      -1.854   0.318  24.469  0.00  0.00    +0.039 A 
ATOM      8  C   UNL     1      -2.656   0.168  24.588  0.00  0.00    +0.043 A 
ATOM      9  C   UNL     1      -2.903  -0.578  24.842  0.00  0.00    +0.024 A 
ATOM     10  C   UNL     1      -2.347  -1.172  24.977  0.00  0.00    +0.100 A 
ATOM     11  N   UNL     1      -1.545  -1.021  24.857  0.00  0.00    -0.228 NA
BRANCH   6   5
ATOM      5  N   UNL     1      -0.496  -0.125  24.484  0.00  0.00    -0.218 NA
BRANCH   5   4
ATOM      4  C   UNL     1      -0.132  -0.361  23.782  0.00  0.00    +0.146 C 
BRANCH   4   3
ATOM      3  C   UNL     1       0.603  -0.051  23.572  0.00  0.00    +0.166 C 
BRANCH   3   2
ATOM      1  C   UNL     1       1.691   0.038  22.651  0.00  0.00    +0.174 C 
ATOM      2  O   UNL     1       0.979  -0.308  22.885  0.00  0.00    -0.349 OA
ENDBRANCH   3   2
ENDBRANCH   4   3
ENDBRANCH   5   4
ENDBRANCH   6   5
ENDBRANCH  12   8
BRANCH  15  17
ATOM     17  C   UNL     1      -4.722   2.165  25.011  0.00  0.00    +0.138 C 
ATOM     18  C   UNL     1      -5.510   1.971  25.155  0.00  0.00    +0.027 C 
ATOM     19  C   UNL     1      -5.867   2.617  25.526  0.00  0.00    +0.019 C 
ATOM     20  C   UNL     1      -5.299   3.208  25.611  0.00  0.00    +0.072 C 
ATOM     21  N   UNL     1      -4.591   2.930  25.293  0.00  0.00    -0.268 NA
BRANCH  21  22
ATOM     22  C   UNL     1      -3.877   3.343  25.260  0.00  0.00    +0.061 C 
ATOM     23  C   UNL     1      -3.373   3.342  25.914  0.00  0.00    +0.033 C 
ATOM     24  C   UNL     1      -2.658   3.755  25.882  0.00  0.00    +0.074 C 
ATOM     25  N   UNL     1      -2.449   4.167  25.199  0.00  0.00    -0.271 NA
ATOM     26  C   UNL     1      -1.735   4.579  25.168  0.00  0.00    +0.090 C 
ATOM     27  C   UNL     1      -2.954   4.167  24.547  0.00  0.00    +0.074 C 
ATOM     28  C   UNL     1      -3.668   3.754  24.578  0.00  0.00    +0.033 C 
ENDBRANCH  21  22
ENDBRANCH  15  17
TORSDOF 7
ENDMDL
MODEL 4
REMARK VINA RESULT:      -9.9      1.419      4.239
REMARK  Name = 
REMARK  7 active torsions:
REMARK  status: ('A' for Active; 'I' for Inactive)
REMARK    1  A    between atoms: O_2  and  C_3
REMARK    2  A    between atoms: C_3  and  C_4
REMARK    3  A    between atoms: C_4  and  N_5
REMARK    4  A    between atoms: N_5  and  C_6
REMARK    5  A    between atoms: C_8  and  C_12
REMARK    6  A    between atoms: C_15  and  C_17
REMARK    7  A    between atoms: N_21  and  C_22
REMARK                            x       y       z     vdW  Elec       q    Type
REMARK                         _______ _______ _______ _____ _____    ______ ____
ROOT
ATOM     12  C   UNL     1      -3.602   2.554  24.500  0.00  0.00    +0.203 A 
ATOM     13  N   UNL     1      -3.397   2.754  23.726  0.00  0.00    -0.056 NA
ATOM     14  O   UNL     1      -2.804   3.326  23.759  0.00  0.00    -0.336 OA
ATOM     15  C   UNL     1      -2.642   3.480  24.554  0.00  0.00    +0.251 A 
ATOM     16  N   UNL     1      -3.135   3.003  25.011  0.00  0.00    -0.190 NA
ENDROOT
BRANCH  12   8
ATOM      6  C   UNL     1      -4.533   0.661  25.058  0.00  0.00    +0.148 A 
ATOM      7  C   UNL     1      -3.962   1.213  24.835  0.00  0.00    +0.039 A 
ATOM      8  C   UNL     1      -4.173   2.002  24.723  0.00  0.00    +0.043 A 
ATOM      9  C   UNL     1      -4.956   2.240  24.835  0.00  0.00    +0.024 A 
ATOM     10  C   UNL     1      -5.527   1.688  25.058  0.00  0.00    +0.100 A 
ATOM     11  N   UNL     1      -5.315   0.898  25.170  0.00  0.00    -0.228 NA
BRANCH   6   5
ATOM      5  N   UNL     1      -4.322  -0.129  25.170  0.00  0.00    -0.218 NA
BRANCH   5   4
ATOM      4  C   UNL     1      -4.303  -0.645  24.527  0.00  0.00    +0.146 C 
BRANCH   4   3
ATOM      3  C   UNL     1      -4.007  -1.410  24.619  0.00  0.00    +0.166 C 
BRANCH   3   2
ATOM      1  C   UNL     1      -3.754  -2.710  24.084  0.00  0.00    +0.174 C 
ATOM      2  O   UNL     1      -4.106  -1.967  24.019  0.00  0.00    -0.349 OA
ENDBRANCH   3   2
ENDBRANCH   4   3
ENDBRANCH   5   4
ENDBRANCH   6   5
ENDBRANCH  12   8
BRANCH  15  17
ATOM     17  C   UNL     1      -2.085   4.018  24.839  0.00  0.00    +0.138 C 
ATOM     18  C   UNL     1      -2.228   4.805  25.037  0.00  0.00    +0.027 C 
ATOM     19  C   UNL     1      -1.517   5.135  25.297  0.00  0.00    +0.019 C 
ATOM     20  C   UNL     1      -0.936   4.551  25.258  0.00  0.00    +0.072 C 
ATOM     21  N   UNL     1      -1.286   3.860  24.976  0.00  0.00    -0.268 NA
BRANCH  21  22
ATOM     22  C   UNL     1      -0.907   3.138  24.851  0.00  0.00    +0.061 C 
ATOM     23  C   UNL     1      -0.613   2.952  24.103  0.00  0.00    +0.033 C 
ATOM     24  C   UNL     1      -0.233   2.230  23.977  0.00  0.00    +0.074 C 
ATOM     25  N   UNL     1      -0.147   1.695  24.600  0.00  0.00    -0.271 NA
ATOM     26  C   UNL     1       0.232   0.974  24.474  0.00  0.00    +0.090 C 
ATOM     27  C   UNL     1      -0.441   1.882  25.347  0.00  0.00    +0.074 C 
ATOM     28  C   UNL     1      -0.821   2.604  25.473  0.00  0.00    +0.033 C 
ENDBRANCH  21  22
ENDBRANCH  15  17
TORSDOF 7
ENDMDL
MODEL 5
REMARK VINA RESULT:      -9.8      1.298      3.353
REMARK  Name = 
REMARK  7 active torsions:
REMARK  status: ('A' for Active; 'I' for Inactive)
REMARK    1  A    between atoms: O_2  and  C_3
REMARK    2  A    between atoms: C_3  and  C_4
REMARK    3  A    between atoms: C_4  and  N_5
REMARK    4  A    between atoms: N_5  and  C_6
REMARK    5  A    between atoms: C_8  and  C_12
REMARK    6  A    between atoms: C_15  and  C_17
REMARK    7  A    between atoms: N_21  and  C_22
REMARK                            x       y       z     vdW  Elec       q    Type
REMARK                         _______ _______ _______ _____ _____    ______ ____
ROOT
ATOM     12  C   UNL     1      -1.163  -0.031  25.015  0.00  0.00    +0.203 A 
ATOM     13  N   UNL     1      -1.288  -0.264  25.796  0.00  0.00    -0.056 NA
ATOM     14  O   UNL     1      -1.857  -0.861  25.796  0.00  0.00    -0.336 OA
ATOM     15  C   UNL     1      -2.084  -0.996  25.013  0.00  0.00    +0.251 A 
ATOM     16  N   UNL     1      -1.655  -0.483  24.532  0.00  0.00    -0.190 NA
ENDROOT
BRANCH  12   8
ATOM      6  C   UNL     1      -0.154   1.896  24.827  0.00  0.00    +0.148 A 
ATOM      7  C   UNL     1      -0.679   1.312  25.081  0.00  0.00    +0.039 A 
ATOM      8  C   UNL     1      -0.638   0.553  24.761  0.00  0.00    +0.043 A 
ATOM      9  C   UNL     1      -0.071   0.377  24.187  0.00  0.00    +0.024 A 
ATOM     10  C   UNL     1       0.454   0.961  23.934  0.00  0.00    +0.100 A 
ATOM     11  N   UNL     1       0.412   1.720  24.254  0.00  0.00    -0.228 NA
BRANCH   6   5
ATOM      5  N   UNL     1      -0.196   2.655  25.147  0.00  0.00    -0.218 NA
BRANCH   5   4
ATOM      4  C   UNL     1      -0.733   3.202  24.842  0.00  0.00    +0.146 C 
BRANCH   4   3
ATOM      3  C   UNL     1      -0.750   3.972  25.136  0.00  0.00    +0.166 C 
BRANCH   3   2
ATOM      1  C   UNL     1      -1.417   5.235  25.098  0.00  0.00    +0.174 C 
ATOM      2  O   UNL     1      -1.448   4.411  25.106  0.00  0.00    -0.349 OA
ENDBRANCH   3   2
ENDBRANCH   4   3
ENDBRANCH   5   4
ENDBRANCH   6   5
ENDBRANCH  12   8
BRANCH  15  17
ATOM     17  C   UNL     1      -2.643  -1.548  24.760  0.00  0.00    +0.138 C 
ATOM     18  C   UNL     1      -2.504  -2.348  24.618  0.00  0.00    +0.027 C 
ATOM     19  C   UNL     1      -3.215  -2.691  24.374  0.00  0.00    +0.019 C 
ATOM     20  C   UNL     1      -3.792  -2.102  24.367  0.00  0.00    +0.072 C 
ATOM     21  N   UNL     1      -3.439  -1.396  24.605  0.00  0.00    -0.268 NA
BRANCH  21  22
ATOM     22  C   UNL     1      -3.815  -0.665  24.677  0.00  0.00    +0.061 C 
ATOM     23  C   UNL     1      -3.873  -0.166  24.021  0.00  0.00    +0.033 C 
ATOM     24  C   UNL     1      -4.248   0.566  24.092  0.00  0.00    +0.074 C 
ATOM     25  N   UNL     1      -4.566   0.798  24.818  0.00  0.00    -0.271 NA
ATOM     26  C   UNL     1      -4.941   1.529  24.888  0.00  0.00    +0.090 C 
ATOM     27  C   UNL     1      -4.508   0.300  25.472  0.00  0.00    +0.074 C 
ATOM     28  C   UNL     1      -4.132  -0.432  25.401  0.00  0.00    +0.033 C 
ENDBRANCH  21  22
ENDBRANCH  15  17
TORSDOF 7
ENDMDL
MODEL 6
REMARK VINA RESULT:      -9.7      1.546      3.368
REMARK  Name = 
REMARK  7 active torsions:
REMARK  status: ('A' for Active; 'I' for Inactive)
REMARK    1  A    between atoms: O_2  and  C_3
REMARK    2  A    between atoms: C_3  and  C_4
REMARK    3  A    between atoms: C_4  and  N_5
REMARK    4  A    between atoms: N_5  and  C_6
REMARK    5  A    between atoms: C_8  and  C_12
REMARK    6  A    between atoms: C_15  and  C_17
REMARK    7  A    between atoms: N_21  and  C_22
REMARK                            x       y       z     vdW  Elec       q    Type
REMARK                         _______ _______ _______ _____ _____    ______ ____
ROOT
ATOM     12  C   UNL     1      -0.988   2.599  25.322  0.00  0.00    +0.203 A 
ATOM     13  N   UNL     1      -0.567   2.246  25.937  0.00  0.00    -0.056 NA
ATOM     14  O   UNL     1      -0.200   1.570  25.640  0.00  0.00    -0.336 OA
ATOM     15  C   UNL     1      -0.396   1.505  24.840  0.00  0.00    +0.251 A 
ATOM     16  N   UNL     1      -0.882   2.141  24.645  0.00  0.00    -0.190 NA
ENDROOT
BRANCH  12   8
ATOM      6  C   UNL     1      -2.673   3.942  25.673  0.00  0.00    +0.148 A 
ATOM      7  C   UNL     1      -2.224   3.252  25.620  0.00  0.00    +0.039 A 
ATOM      8  C   UNL     1      -1.437   3.289  25.376  0.00  0.00    +0.043 A 
ATOM      9  C   UNL     1      -1.099   4.018  25.185  0.00  0.00    +0.024 A 
ATOM     10  C   UNL     1      -1.548   4.708  25.238  0.00  0.00    +0.100 A 
ATOM     11  N   UNL     1      -2.335   4.670  25.483  0.00  0.00    -0.228 NA
BRANCH   6   5
ATOM      5  N   UNL     1      -3.460   3.904  25.918  0.00  0.00    -0.218 NA
BRANCH   5   4
ATOM      4  C   UNL     1      -4.025   3.547  25.434  0.00  0.00    +0.146 C 
BRANCH   4   3
ATOM      3  C   UNL     1      -4.779   3.386  25.728  0.00  0.00    +0.166 C 
BRANCH   3   2
ATOM      1  C   UNL     1      -5.774   2.417  25.396  0.00  0.00    +0.174 C 
ATOM      2  O   UNL     1      -5.370   3.115  25.221  0.00  0.00    -0.349 OA
ENDBRANCH   3   2
ENDBRANCH   4   3
ENDBRANCH   5   4
ENDBRANCH   6   5
ENDBRANCH  12   8
BRANCH  15  17
ATOM     17  C   UNL     1      -0.146   0.908  24.328  0.00  0.00    +0.138 C 
ATOM     18  C   UNL     1       0.499   0.946  23.816  0.00  0.00    +0.027 C 
ATOM     19  C   UNL     1       0.544   0.229  23.410  0.00  0.00    +0.019 C 
ATOM     20  C   UNL     1      -0.074  -0.251  23.671  0.00  0.00    +0.072 C 
ATOM     21  N   UNL     1      -0.501   0.168  24.238  0.00  0.00    -0.268 NA
BRANCH  21  22
ATOM     22  C   UNL     1      -1.165  -0.104  24.646  0.00  0.00    +0.061 C 
ATOM     23  C   UNL     1      -1.918   0.007  24.325  0.00  0.00    +0.033 C 
ATOM     24  C   UNL     1      -2.583  -0.264  24.732  0.00  0.00    +0.074 C 
ATOM     25  N   UNL     1      -2.495  -0.646  25.459  0.00  0.00    -0.271 NA
ATOM     26  C   UNL     1      -3.160  -0.916  25.865  0.00  0.00    +0.090 C 
ATOM     27  C   UNL     1      -1.743  -0.756  25.778  0.00  0.00    +0.074 C 
ATOM     28  C   UNL     1      -1.078  -0.485  25.371  0.00  0.00    +0.033 C 
ENDBRANCH  21  22
ENDBRANCH  15  17
TORSDOF 7
ENDMDL
MODEL 7
REMARK VINA RESULT:      -9.6      1.875      4.237
REMARK  Name = 
REMARK  7 active torsions:
REMARK  status: ('A' for Active; 'I' for Inactive)
REMARK    1  A    between atoms: O_2  and  C_3
REMARK    2  A    between atoms: C_3  and  C_4
REMARK    3  A    between atoms: C_4  and  N_5
REMARK    4  A    between atoms: N_5  and  C_6
REMARK    5  A    between atoms: C_8  and  C_12
REMARK    6  A    between atoms: C_15  and  C_17
REMARK    7  A    between atoms: N_21  and  C_22
REMARK                            x       y       z     vdW  Elec       q    Type
REMARK                         _______ _______ _______ _____ _____    ______ ____
ROOT
ATOM     12  C   UNL     1      -2.219   1.614  24.018  0.00  0.00    +0.203 A 
ATOM     13  N   UNL     1      -2.607   1.523  23.296  0.00  0.00    -0.056 NA
ATOM     14  O   UNL     1      -3.415   1.455  23.447  0.00  0.00    -0.336 OA
ATOM     15  C   UNL     1      -3.526   1.504  24.264  0.00  0.00    +0.251 A 
ATOM     16  N   UNL     1      -2.787   1.602  24.616  0.00  0.00    -0.190 NA
ENDROOT
BRANCH  12   8
ATOM      6  C   UNL     1      -0.082   1.170  24.040  0.00  0.00    +0.148 A 
ATOM      7  C   UNL     1      -0.895   1.082  23.935  0.00  0.00    +0.039 A 
ATOM      8  C   UNL     1      -1.406   1.702  24.124  0.00  0.00    +0.043 A 
ATOM      9  C   UNL     1      -1.101   2.410  24.419  0.00  0.00    +0.024 A 
ATOM     10  C   UNL     1      -0.288   2.498  24.525  0.00  0.00    +0.100 A 
ATOM     11  N   UNL     1       0.221   1.877  24.335  0.00  0.00    -0.228 NA
BRANCH   6   5
ATOM      5  N   UNL     1       0.427   0.549  23.851  0.00  0.00    -0.218 NA
BRANCH   5   4
ATOM      4  C   UNL     1       0.916   0.605  23.189  0.00  0.00    +0.146 C 
BRANCH   4   3
ATOM      3  C   UNL     1       1.479   0.020  23.040  0.00  0.00    +0.166 C 
BRANCH   3   2
ATOM      1  C   UNL     1       2.733   0.030  22.355  0.00  0.00    +0.174 C 
ATOM      2  O   UNL     1       1.908   0.029  22.336  0.00  0.00    -0.349 OA
ENDBRANCH   3   2
ENDBRANCH   4   3
ENDBRANCH   5   4
ENDBRANCH   6   5
ENDBRANCH  12   8
BRANCH  15  17
ATOM     17  C   UNL     1      -4.250   1.461  24.657  0.00  0.00    +0.138 C 
ATOM     18  C   UNL     1      -4.735   2.099  24.852  0.00  0.00    +0.027 C 
ATOM     19  C   UNL     1      -5.401   1.804  25.240  0.00  0.00    +0.019 C 
ATOM     20  C   UNL     1      -5.327   0.984  25.285  0.00  0.00    +0.072 C 
ATOM     21  N   UNL     1      -4.616   0.771  24.925  0.00  0.00    -0.268 NA
BRANCH  21  22
ATOM     22  C   UNL     1      -4.322   0.005  24.846  0.00  0.00    +0.061 C 
ATOM     23  C   UNL     1      -4.465  -0.421  24.153  0.00  0.00    +0.033 C 
ATOM     24  C   UNL     1      -4.171  -1.188  24.073  0.00  0.00    +0.074 C 
ATOM     25  N   UNL     1      -3.733  -1.528  24.685  0.00  0.00    -0.271 NA
ATOM     26  C   UNL     1      -3.439  -2.295  24.605  0.00  0.00    +0.090 C 
ATOM     27  C   UNL     1      -3.591  -1.102  25.376  0.00  0.00    +0.074 C 
ATOM     28  C   UNL     1      -3.885  -0.335  25.456  0.00  0.00    +0.033 C 
ENDBRANCH  21  22
ENDBRANCH  15  17
TORSDOF 7
ENDMDL
MODEL 8
REMARK VINA RESULT:      -9.5      1.990      5.446
REMARK  Name = 
REMARK  7 active torsions:
REMARK  status: ('A' for Active; 'I' for Inactive)
REMARK    1  A    between atoms: O_2  and  C_3
REMARK    2  A    between atoms: C_3  and  C_4
REMARK    3  A    between atoms: C_4  and  N_5
REMARK    4  A    between atoms: N_5  and  C_6
REMARK    5  A    between atoms: C_8  and  C_12
REMARK    6  A    between atoms: C_15  and  C_17
REMARK    7  A    between atoms: N_21  and  C_22
REMARK                            x       y       z     vdW  Elec       q    Type
REMARK                         _______ _______ _______ _____ _____    ______ ____
ROOT
ATOM     12  C   UNL     1      -0.864   1.885  25.261  0.00  0.00    +0.203 A 
ATOM     13  N   UNL     1      -0.880   2.066  26.065  0.00  0.00    -0.056 NA
ATOM     14  O   UNL     1      -1.004   2.877  26.142  0.00  0.00    -0.336 OA
ATOM     15  C   UNL     1      -1.064   3.199  25.384  0.00  0.00    +0.251 A 
ATOM     16  N   UNL     1      -0.977   2.585  24.841  0.00  0.00    -0.190 NA
ENDROOT
BRANCH  12   8
ATOM      6  C   UNL     1      -0.185   0.295  23.928  0.00  0.00    +0.148 A 
ATOM      7  C   UNL     1      -0.295   1.044  24.255  0.00  0.00    +0.039 A 
ATOM      8  C   UNL     1      -0.754   1.135  24.935  0.00  0.00    +0.043 A 
ATOM      9  C   UNL     1      -1.102   0.475  25.288  0.00  0.00    +0.024 A 
ATOM     10  C   UNL     1      -0.991  -0.274  24.962  0.00  0.00    +0.100 A 
ATOM     11  N   UNL     1      -0.533  -0.364  24.282  0.00  0.00    -0.228 NA
BRANCH   6   5
ATOM      5  N   UNL     1       0.274   0.205  23.248  0.00  0.00    -0.218 NA
BRANCH   5   4
ATOM      4  C   UNL     1       1.071   0.004  23.313  0.00  0.00    +0.146 C 
BRANCH   4   3
ATOM      3  C   UNL     1       1.563   0.048  22.652  0.00  0.00    +0.166 C 
BRANCH   3   2
ATOM      1  C   UNL     1       2.947   0.232  22.349  0.00  0.00    +0.174 C 
ATOM      2  O   UNL     1       2.345  -0.209  22.702  0.00  0.00    -0.349 OA
ENDBRANCH   3   2
ENDBRANCH   4   3
ENDBRANCH   5   4
ENDBRANCH   6   5
ENDBRANCH  12   8
BRANCH  15  17
ATOM     17  C   UNL     1      -1.188   3.994  25.204  0.00  0.00    +0.138 C 
ATOM     18  C   UNL     1      -0.604   4.554  25.049  0.00  0.00    +0.027 C 
ATOM     19  C   UNL     1      -0.975   5.275  24.896  0.00  0.00    +0.019 C 
ATOM     20  C   UNL     1      -1.790   5.160  24.958  0.00  0.00    +0.072 C 
ATOM     21  N   UNL     1      -1.922   4.369  25.148  0.00  0.00    -0.268 NA
BRANCH  21  22
ATOM     22  C   UNL     1      -2.658   4.013  25.262  0.00  0.00    +0.061 C 
ATOM     23  C   UNL     1      -3.060   3.684  24.620  0.00  0.00    +0.033 C 
ATOM     24  C   UNL     1      -3.796   3.328  24.733  0.00  0.00    +0.074 C 
ATOM     25  N   UNL     1      -4.129   3.300  25.488  0.00  0.00    -0.271 NA
ATOM     26  C   UNL     1      -4.864   2.944  25.601  0.00  0.00    +0.090 C 
ATOM     27  C   UNL     1      -3.727   3.629  26.129  0.00  0.00    +0.074 C 
ATOM     28  C   UNL     1      -2.991   3.985  26.015  0.00  0.00    +0.033 C 
ENDBRANCH  21  22
ENDBRANCH  15  17
TORSDOF 7
ENDMDL
MODEL 9
REMARK VINA RESULT:      -9.2      1.578      3.308
REMARK  Name = 
REMARK  7 active torsions:
REMARK  status: ('A' for Active; 'I' for Inactive)
REMARK    1  A    between atoms: O_2  and  C_3
REMARK    2  A    between atoms: C_3  and  C_4
REMARK    3  A    between atoms: C_4  and  N_5
REMARK    4  A    between atoms: N_5  and  C_6
REMARK    5  A    between atoms: C_8  and  C_12
REMARK    6  A    between atoms: C_15  and  C_17
REMARK    7  A    between atoms: N_21  and  C_22
REMARK                            x       y       z     vdW  Elec       q    Type
REMARK                         _______ _______ _______ _____ _____    ______ ____
ROOT
ATOM     12  C   UNL     1      -2.211  -0.290  24.773  0.00  0.00    +0.203 A 
ATOM     13  N   UNL     1      -1.759  -0.430  25.448  0.00  0.00    -0.056 NA
ATOM     14  O   UNL     1      -0.972  -0.268  25.267  0.00  0.00    -0.336 OA
ATOM     15  C   UNL     1      -0.937  -0.027  24.477  0.00  0.00    +0.251 A 
ATOM     16  N   UNL     1      -1.703  -0.041  24.173  0.00  0.00    -0.190 NA
ENDROOT
BRANCH  12   8
ATOM      6  C   UNL     1      -4.352   0.084  24.979  0.00  0.00    +0.148 A 
ATOM      7  C   UNL     1      -3.535   0.176  25.043  0.00  0.00    +0.039 A 
ATOM      8  C   UNL     1      -3.029  -0.382  24.709  0.00  0.00    +0.043 A 
ATOM      9  C   UNL     1      -3.340  -1.034  24.309  0.00  0.00    +0.024 A 
ATOM     10  C   UNL     1      -4.158  -1.127  24.245  0.00  0.00    +0.100 A 
ATOM     11  N   UNL     1      -4.663  -0.567  24.580  0.00  0.00    -0.228 NA
BRANCH   6   5
ATOM      5  N   UNL     1      -4.858   0.643  25.314  0.00  0.00    -0.218 NA
BRANCH   5   4
ATOM      4  C   UNL     1      -4.908   1.400  24.990  0.00  0.00    +0.146 C 
BRANCH   4   3
ATOM      3  C   UNL     1      -5.350   1.984  25.370  0.00  0.00    +0.166 C 
BRANCH   3   2
ATOM      1  C   UNL     1      -5.460   3.400  25.519  0.00  0.00    +0.174 C 
ATOM      2  O   UNL     1      -5.418   2.734  25.034  0.00  0.00    -0.349 OA
ENDBRANCH   3   2
ENDBRANCH   4   3
ENDBRANCH   5   4
ENDBRANCH   6   5
ENDBRANCH  12   8
BRANCH  15  17
ATOM     17  C   UNL     1      -0.255   0.188  24.067  0.00  0.00    +0.138 C 
ATOM     18  C   UNL     1       0.218  -0.313  23.614  0.00  0.00    +0.027 C 
ATOM     19  C   UNL     1       0.840   0.134  23.305  0.00  0.00    +0.019 C 
ATOM     20  C   UNL     1       0.750   0.911  23.567  0.00  0.00    +0.072 C 
ATOM     21  N   UNL     1       0.074   0.945  24.038  0.00  0.00    -0.268 NA
BRANCH  21  22
ATOM     22  C   UNL     1      -0.222   1.617  24.414  0.00  0.00    +0.061 C 
ATOM     23  C   UNL     1      -0.737   2.121  24.011  0.00  0.00    +0.033 C 
ATOM     24  C   UNL     1      -1.035   2.793  24.386  0.00  0.00    +0.074 C 
ATOM     25  N   UNL     1      -0.817   2.961  25.165  0.00  0.00    -0.271 NA
ATOM     26  C   UNL     1      -1.114   3.632  25.540  0.00  0.00    +0.090 C 
ATOM     27  C   UNL     1      -0.303   2.457  25.567  0.00  0.00    +0.074 C 
ATOM     28  C   UNL     1      -0.006   1.785  25.191  0.00  0.00    +0.033 C 
ENDBRANCH  21  22
ENDBRANCH  15  17
TORSDOF 7
ENDMDL
