MODEL 1
REMARK VINA RESULT:      -9.7      0.000      0.000
REMARK  Name = 
REMARK  5 active torsions:
REMARK  status: ('A' for Active; 'I' for Inactive)
REMARK    1  A    between atoms: N_5  and  C_8
REMARK    2  A    between atoms: C_11  and  C_14
REMARK    3  A    between atoms: C_17  and  C_19
REMARK    4  A    between atoms: N_23  and  C_24
REMARK    5  A    between atoms: C_24  and  C_25
REMARK                            x       y       z     vdW  Elec       q    Type
REMARK                         _______ _______ _______ _____ _____    ______ ____
ROOT
ATOM     14  C   UNL     1      -1.342   0.062  24.566  0.00  0.00    +0.205 A 
ATOM     15  N   UNL     1      -1.473  -0.110  25.362  0.00  0.00    -0.056 NA
ATOM     16  O   UNL     1      -2.288  -0.111  25.492  0.00  0.00    -0.336 OA
ATOM     17  C   UNL     1      -2.660   0.060  24.776  0.00  0.00    +0.251 A 
ATOM     18  N   UNL     1      -2.075   0.167  24.204  0.00  0.00    -0.190 NA
ENDROOT
BRANCH  14  11
ATOM      8  C   UNL     1       0.865   0.234  23.459  0.00  0.00    +0.132 A 
ATOM      9  C   UNL     1       0.466   0.917  23.692  0.00  0.00    +0.034 A 
ATOM     10  C   UNL     1      -0.270   0.860  24.061  0.00  0.00    +0.008 A 
ATOM     11  C   UNL     1      -0.606   0.120  24.197  0.00  0.00    +0.058 A 
ATOM     12  C   UNL     1      -0.208  -0.565  23.964  0.00  0.00    +0.103 A 
ATOM     13  N   UNL     1       0.528  -0.507  23.596  0.00  0.00    -0.229 NA
BRANCH   8   5
ATOM      1  C   UNL     1       3.808   0.462  21.984  0.00  0.00    +0.090 C 
ATOM      2  N   UNL     1       3.073   0.405  22.353  0.00  0.00    -0.269 NA
ATOM      3  C   UNL     1       2.912   0.853  23.026  0.00  0.00    +0.094 C 
ATOM      4  C   UNL     1       2.177   0.796  23.395  0.00  0.00    +0.109 C 
ATOM      5  N   UNL     1       1.601   0.291  23.090  0.00  0.00    -0.290 N 
ATOM      6  C   UNL     1       1.760  -0.158  22.417  0.00  0.00    +0.109 C 
ATOM      7  C   UNL     1       2.496  -0.101  22.048  0.00  0.00    +0.094 C 
ENDBRANCH   8   5
ENDBRANCH  14  11
BRANCH  17  19
ATOM     19  C   UNL     1      -3.474   0.114  24.653  0.00  0.00    +0.138 C 
ATOM     20  C   UNL     1      -3.968  -0.496  24.401  0.00  0.00    +0.027 C 
ATOM     21  C   UNL     1      -4.736  -0.200  24.353  0.00  0.00    +0.019 C 
ATOM     22  C   UNL     1      -4.717   0.595  24.575  0.00  0.00    +0.073 C 
ATOM     23  N   UNL     1      -3.937   0.789  24.761  0.00  0.00    -0.263 NA
BRANCH  23  24
ATOM     24  C   UNL     1      -3.668   1.527  25.011  0.00  0.00    +0.100 C 
BRANCH  24  25
ATOM     25  C   UNL     1      -4.198   2.153  25.094  0.00  0.00    -0.004 A 
ATOM     26  C   UNL     1      -4.714   2.174  25.737  0.00  0.00    +0.029 A 
ATOM     27  C   UNL     1      -5.244   2.801  25.820  0.00  0.00    +0.167 A 
ATOM     28  F   UNL     1      -5.761   2.822  26.464  0.00  0.00    -0.202 F 
ATOM     29  C   UNL     1      -5.258   3.407  25.260  0.00  0.00    +0.167 A 
ATOM     30  F   UNL     1      -5.788   4.034  25.343  0.00  0.00    -0.202 F 
ATOM     31  C   UNL     1      -4.742   3.386  24.617  0.00  0.00    +0.032 A 
ATOM     32  C   UNL     1      -4.212   2.760  24.534  0.00  0.00    -0.000 A 
ENDBRANCH  24  25
ENDBRANCH  23  24
ENDBRANCH  17  19
TORSDOF 5
ENDMDL
MODEL 2
REMARK VINA RESULT:      -9.1      3.104      4.727
REMARK  Name = 
REMARK  5 active torsions:
REMARK  status: ('A' for Active; 'I' for Inactive)
REMARK    1  A    between atoms: N_5  and  C_8
REMARK    2  A    between atoms: C_11  and  C_14
REMARK    3  A    between atoms: C_17  and  C_19
REMARK    4  A    between atoms: N_23  and  C_24
REMARK    5  A    between atoms: C_24  and  C_25
REMARK                            x       y       z     vdW  Elec       q    Type
REMARK                         _______ _______ _______ _____ _____    ______ ____
ROOT
ATOM     14  C   UNL     1      -1.071   0.589  25.658  0.00  0.00    +0.205 A 
ATOM     15  N   UNL     1      -0.955   0.200  26.377  0.00  0.00    -0.056 NA
ATOM     16  O   UNL     1      -0.932  -0.611  26.227  0.00  0.00    -0.336 OA
ATOM     17  C   UNL     1      -1.034  -0.723  25.416  0.00  0.00    +0.251 A 
ATOM     18  N   UNL     1      -1.120   0.019  25.064  0.00  0.00    -0.190 NA
ENDROOT
BRANCH  14  11
ATOM      8  C   UNL     1      -1.243   3.038  25.341  0.00  0.00    +0.132 A 
ATOM      9  C   UNL     1      -0.636   2.723  25.802  0.00  0.00    +0.034 A 
ATOM     10  C   UNL     1      -0.579   1.906  25.908  0.00  0.00    +0.008 A 
ATOM     11  C   UNL     1      -1.129   1.405  25.552  0.00  0.00    +0.058 A 
ATOM     12  C   UNL     1      -1.737   1.719  25.091  0.00  0.00    +0.103 A 
ATOM     13  N   UNL     1      -1.794   2.536  24.985  0.00  0.00    -0.229 NA
BRANCH   8   5
ATOM      1  C   UNL     1      -1.473   6.302  24.918  0.00  0.00    +0.090 C 
ATOM      2  N   UNL     1      -1.416   5.486  25.024  0.00  0.00    -0.269 NA
ATOM      3  C   UNL     1      -0.746   5.082  24.762  0.00  0.00    +0.094 C 
ATOM      4  C   UNL     1      -0.689   4.266  24.867  0.00  0.00    +0.109 C 
ATOM      5  N   UNL     1      -1.301   3.854  25.235  0.00  0.00    -0.290 N 
ATOM      6  C   UNL     1      -1.971   4.257  25.498  0.00  0.00    +0.109 C 
ATOM      7  C   UNL     1      -2.029   5.073  25.392  0.00  0.00    +0.094 C 
ENDBRANCH   8   5
ENDBRANCH  14  11
BRANCH  17  19
ATOM     19  C   UNL     1      -1.047  -1.449  25.024  0.00  0.00    +0.138 C 
ATOM     20  C   UNL     1      -0.400  -1.823  24.674  0.00  0.00    +0.027 C 
ATOM     21  C   UNL     1      -0.662  -2.534  24.347  0.00  0.00    +0.019 C 
ATOM     22  C   UNL     1      -1.471  -2.600  24.496  0.00  0.00    +0.073 C 
ATOM     23  N   UNL     1      -1.709  -1.929  24.914  0.00  0.00    -0.263 NA
BRANCH  23  24
ATOM     24  C   UNL     1      -2.474  -1.767  25.177  0.00  0.00    +0.100 C 
BRANCH  24  25
ATOM     25  C   UNL     1      -3.123  -2.003  24.726  0.00  0.00    -0.004 A 
ATOM     26  C   UNL     1      -3.534  -1.450  24.273  0.00  0.00    +0.029 A 
ATOM     27  C   UNL     1      -4.184  -1.686  23.822  0.00  0.00    +0.167 A 
ATOM     28  F   UNL     1      -4.595  -1.132  23.369  0.00  0.00    -0.202 F 
ATOM     29  C   UNL     1      -4.422  -2.476  23.825  0.00  0.00    +0.167 A 
ATOM     30  F   UNL     1      -5.072  -2.713  23.374  0.00  0.00    -0.202 F 
ATOM     31  C   UNL     1      -4.011  -3.030  24.278  0.00  0.00    +0.032 A 
ATOM     32  C   UNL     1      -3.362  -2.794  24.728  0.00  0.00    -0.000 A 
ENDBRANCH  24  25
ENDBRANCH  23  24
ENDBRANCH  17  19
TORSDOF 5
ENDMDL
MODEL 3
REMARK VINA RESULT:      -8.7      3.813      5.093
REMARK  Name = 
REMARK  5 active torsions:
REMARK  status: ('A' for Active; 'I' for Inactive)
REMARK    1  A    between atoms: N_5  and  C_8
REMARK    2  A    between atoms: C_11  and  C_14
REMARK    3  A    between atoms: C_17  and  C_19
REMARK    4  A    between atoms: N_23  and  C_24
REMARK    5  A    between atoms: C_24  and  C_25
REMARK                            x       y       z     vdW  Elec       q    Type
REMARK                         _______ _______ _______ _____ _____    ______ ____
ROOT
ATOM     14  C   UNL     1      -4.352   1.687  24.838  0.00  0.00    +0.205 A 
ATOM     15  N   UNL     1      -4.893   2.163  24.434  0.00  0.00    -0.056 NA
ATOM     16  O   UNL     1      -4.817   2.934  24.719  0.00  0.00    -0.336 OA
ATOM     17  C   UNL     1      -4.230   2.934  25.299  0.00  0.00    +0.251 A 
ATOM     18  N   UNL     1      -3.943   2.164  25.372  0.00  0.00    -0.190 NA
ENDROOT
BRANCH  14  11
ATOM      8  C   UNL     1      -4.019  -0.742  24.505  0.00  0.00    +0.132 A 
ATOM      9  C   UNL     1      -3.703  -0.204  23.965  0.00  0.00    +0.034 A 
ATOM     10  C   UNL     1      -3.815   0.605  24.076  0.00  0.00    +0.008 A 
ATOM     11  C   UNL     1      -4.241   0.877  24.727  0.00  0.00    +0.058 A 
ATOM     12  C   UNL     1      -4.557   0.340  25.268  0.00  0.00    +0.103 A 
ATOM     13  N   UNL     1      -4.446  -0.470  25.157  0.00  0.00    -0.229 NA
BRANCH   8   5
ATOM      1  C   UNL     1      -3.574  -3.982  24.060  0.00  0.00    +0.090 C 
ATOM      2  N   UNL     1      -3.685  -3.172  24.172  0.00  0.00    -0.269 NA
ATOM      3  C   UNL     1      -3.283  -2.779  24.775  0.00  0.00    +0.094 C 
ATOM      4  C   UNL     1      -3.394  -1.969  24.886  0.00  0.00    +0.109 C 
ATOM      5  N   UNL     1      -3.908  -1.552  24.394  0.00  0.00    -0.290 N 
ATOM      6  C   UNL     1      -4.311  -1.945  23.790  0.00  0.00    +0.109 C 
ATOM      7  C   UNL     1      -4.200  -2.754  23.679  0.00  0.00    +0.094 C 
ENDBRANCH   8   5
ENDBRANCH  14  11
BRANCH  17  19
ATOM     19  C   UNL     1      -3.975   3.590  25.729  0.00  0.00    +0.138 C 
ATOM     20  C   UNL     1      -4.328   3.887  26.414  0.00  0.00    +0.027 C 
ATOM     21  C   UNL     1      -3.894   4.544  26.660  0.00  0.00    +0.019 C 
ATOM     22  C   UNL     1      -3.273   4.654  26.127  0.00  0.00    +0.073 C 
ATOM     23  N   UNL     1      -3.324   4.064  25.552  0.00  0.00    -0.263 NA
BRANCH  23  24
ATOM     24  C   UNL     1      -2.813   3.965  24.912  0.00  0.00    +0.100 C 
BRANCH  24  25
ATOM     25  C   UNL     1      -2.064   4.311  24.925  0.00  0.00    -0.004 A 
ATOM     26  C   UNL     1      -1.403   3.858  25.117  0.00  0.00    +0.029 A 
ATOM     27  C   UNL     1      -0.654   4.204  25.129  0.00  0.00    +0.167 A 
ATOM     28  F   UNL     1       0.008   3.749  25.322  0.00  0.00    -0.202 F 
ATOM     29  C   UNL     1      -0.567   5.005  24.950  0.00  0.00    +0.167 A 
ATOM     30  F   UNL     1       0.182   5.351  24.962  0.00  0.00    -0.202 F 
ATOM     31  C   UNL     1      -1.229   5.458  24.758  0.00  0.00    +0.032 A 
ATOM     32  C   UNL     1      -1.977   5.112  24.745  0.00  0.00    -0.000 A 
ENDBRANCH  24  25
ENDBRANCH  23  24
ENDBRANCH  17  19
TORSDOF 5
ENDMDL
MODEL 4
REMARK VINA RESULT:      -8.6      2.042      2.961
REMARK  Name = 
REMARK  5 active torsions:
REMARK  status: ('A' for Active; 'I' for Inactive)
REMARK    1  A    between atoms: N_5  and  C_8
REMARK    2  A    between atoms: C_11  and  C_14
REMARK    3  A    between atoms: C_17  and  C_19
REMARK    4  A    between atoms: N_23  and  C_24
REMARK    5  A    between atoms: C_24  and  C_25
REMARK                            x       y       z     vdW  Elec       q    Type
REMARK                         _______ _______ _______ _____ _____    ______ ____
ROOT
ATOM     14  C   UNL     1      -1.027   1.249  24.601  0.00  0.00    +0.205 A 
ATOM     15  N   UNL     1      -1.154   1.659  25.307  0.00  0.00    -0.056 NA
ATOM     16  O   UNL     1      -1.965   1.653  25.462  0.00  0.00    -0.336 OA
ATOM     17  C   UNL     1      -2.338   1.240  24.853  0.00  0.00    +0.251 A 
ATOM     18  N   UNL     1      -1.758   0.990  24.321  0.00  0.00    -0.190 NA
ENDROOT
BRANCH  14  11
ATOM      8  C   UNL     1       1.165   0.865  23.518  0.00  0.00    +0.132 A 
ATOM      9  C   UNL     1       0.580   0.284  23.484  0.00  0.00    +0.034 A 
ATOM     10  C   UNL     1      -0.151   0.412  23.845  0.00  0.00    +0.008 A 
ATOM     11  C   UNL     1      -0.296   1.121  24.240  0.00  0.00    +0.058 A 
ATOM     12  C   UNL     1       0.288   1.702  24.276  0.00  0.00    +0.103 A 
ATOM     13  N   UNL     1       1.019   1.574  23.915  0.00  0.00    -0.229 NA
BRANCH   8   5
ATOM      1  C   UNL     1       4.088   0.353  22.074  0.00  0.00    +0.090 C 
ATOM      2  N   UNL     1       3.357   0.481  22.435  0.00  0.00    -0.269 NA
ATOM      3  C   UNL     1       2.717  -0.009  22.258  0.00  0.00    +0.094 C 
ATOM      4  C   UNL     1       1.987   0.119  22.619  0.00  0.00    +0.109 C 
ATOM      5  N   UNL     1       1.896   0.737  23.157  0.00  0.00    -0.290 N 
ATOM      6  C   UNL     1       2.535   1.228  23.335  0.00  0.00    +0.109 C 
ATOM      7  C   UNL     1       3.265   1.099  22.974  0.00  0.00    +0.094 C 
ENDBRANCH   8   5
ENDBRANCH  14  11
BRANCH  17  19
ATOM     19  C   UNL     1      -3.148   1.100  24.787  0.00  0.00    +0.138 C 
ATOM     20  C   UNL     1      -3.723   1.661  24.594  0.00  0.00    +0.027 C 
ATOM     21  C   UNL     1      -4.456   1.284  24.590  0.00  0.00    +0.019 C 
ATOM     22  C   UNL     1      -4.336   0.490  24.780  0.00  0.00    +0.073 C 
ATOM     23  N   UNL     1      -3.527   0.376  24.902  0.00  0.00    -0.263 NA
BRANCH  23  24
ATOM     24  C   UNL     1      -3.162  -0.335  25.103  0.00  0.00    +0.100 C 
BRANCH  24  25
ATOM     25  C   UNL     1      -3.458  -1.047  24.810  0.00  0.00    -0.004 A 
ATOM     26  C   UNL     1      -3.398  -1.735  25.261  0.00  0.00    +0.029 A 
ATOM     27  C   UNL     1      -3.693  -2.448  24.968  0.00  0.00    +0.167 A 
ATOM     28  F   UNL     1      -3.634  -3.137  25.420  0.00  0.00    -0.202 F 
ATOM     29  C   UNL     1      -4.049  -2.472  24.224  0.00  0.00    +0.167 A 
ATOM     30  F   UNL     1      -4.344  -3.185  23.931  0.00  0.00    -0.202 F 
ATOM     31  C   UNL     1      -4.108  -1.784  23.773  0.00  0.00    +0.032 A 
ATOM     32  C   UNL     1      -3.813  -1.072  24.065  0.00  0.00    -0.000 A 
ENDBRANCH  24  25
ENDBRANCH  23  24
ENDBRANCH  17  19
TORSDOF 5
ENDMDL
MODEL 5
REMARK VINA RESULT:      -8.4      1.793      2.219
REMARK  Name = 
REMARK  5 active torsions:
REMARK  status: ('A' for Active; 'I' for Inactive)
REMARK    1  A    between atoms: N_5  and  C_8
REMARK    2  A    between atoms: C_11  and  C_14
REMARK    3  A    between atoms: C_17  and  C_19
REMARK    4  A    between atoms: N_23  and  C_24
REMARK    5  A    between atoms: C_24  and  C_25
REMARK                            x       y       z     vdW  Elec       q    Type
REMARK                         _______ _______ _______ _____ _____    ______ ____
ROOT
ATOM     14  C   UNL     1      -0.426   0.731  23.630  0.00  0.00    +0.205 A 
ATOM     15  N   UNL     1      -0.917   0.185  24.007  0.00  0.00    -0.056 NA
ATOM     16  O   UNL     1      -1.684   0.490  24.010  0.00  0.00    -0.336 OA
ATOM     17  C   UNL     1      -1.667   1.225  23.635  0.00  0.00    +0.251 A 
ATOM     18  N   UNL     1      -0.889   1.374  23.401  0.00  0.00    -0.190 NA
ENDROOT
BRANCH  14  11
ATOM      8  C   UNL     1       2.008   0.484  23.256  0.00  0.00    +0.132 A 
ATOM      9  C   UNL     1       1.482  -0.059  22.927  0.00  0.00    +0.034 A 
ATOM     10  C   UNL     1       0.671   0.023  23.051  0.00  0.00    +0.008 A 
ATOM     11  C   UNL     1       0.385   0.649  23.506  0.00  0.00    +0.058 A 
ATOM     12  C   UNL     1       0.910   1.193  23.836  0.00  0.00    +0.103 A 
ATOM     13  N   UNL     1       1.722   1.111  23.711  0.00  0.00    -0.229 NA
BRANCH   8   5
ATOM      1  C   UNL     1       5.253   0.154  22.758  0.00  0.00    +0.090 C 
ATOM      2  N   UNL     1       4.442   0.236  22.882  0.00  0.00    -0.269 NA
ATOM      3  C   UNL     1       4.066   0.948  22.701  0.00  0.00    +0.094 C 
ATOM      4  C   UNL     1       3.255   1.031  22.826  0.00  0.00    +0.109 C 
ATOM      5  N   UNL     1       2.819   0.401  23.132  0.00  0.00    -0.290 N 
ATOM      6  C   UNL     1       3.194  -0.311  23.314  0.00  0.00    +0.109 C 
ATOM      7  C   UNL     1       4.005  -0.394  23.189  0.00  0.00    +0.094 C 
ENDBRANCH   8   5
ENDBRANCH  14  11
BRANCH  17  19
ATOM     19  C   UNL     1      -2.312   1.724  23.516  0.00  0.00    +0.138 C 
ATOM     20  C   UNL     1      -2.756   1.786  22.823  0.00  0.00    +0.027 C 
ATOM     21  C   UNL     1      -3.346   2.349  22.947  0.00  0.00    +0.019 C 
ATOM     22  C   UNL     1      -3.268   2.635  23.717  0.00  0.00    +0.073 C 
ATOM     23  N   UNL     1      -2.629   2.249  24.069  0.00  0.00    -0.263 NA
BRANCH  23  24
ATOM     24  C   UNL     1      -2.355   2.367  24.838  0.00  0.00    +0.100 C 
BRANCH  24  25
ATOM     25  C   UNL     1      -2.532   3.066  25.236  0.00  0.00    -0.004 A 
ATOM     26  C   UNL     1      -2.009   3.703  25.204  0.00  0.00    +0.029 A 
ATOM     27  C   UNL     1      -2.186   4.404  25.603  0.00  0.00    +0.167 A 
ATOM     28  F   UNL     1      -1.662   5.041  25.571  0.00  0.00    -0.202 F 
ATOM     29  C   UNL     1      -2.887   4.467  26.034  0.00  0.00    +0.167 A 
ATOM     30  F   UNL     1      -3.064   5.167  26.432  0.00  0.00    -0.202 F 
ATOM     31  C   UNL     1      -3.410   3.830  26.065  0.00  0.00    +0.032 A 
ATOM     32  C   UNL     1      -3.233   3.130  25.667  0.00  0.00    -0.000 A 
ENDBRANCH  24  25
ENDBRANCH  23  24
ENDBRANCH  17  19
TORSDOF 5
ENDMDL
MODEL 6
REMARK VINA RESULT:      -8.4      1.568      2.216
REMARK  Name = 
REMARK  5 active torsions:
REMARK  status: ('A' for Active; 'I' for Inactive)
REMARK    1  A    between atoms: N_5  and  C_8
REMARK    2  A    between atoms: C_11  and  C_14
REMARK    3  A    between atoms: C_17  and  C_19
REMARK    4  A    between atoms: N_23  and  C_24
REMARK    5  A    between atoms: C_24  and  C_25
REMARK                            x       y       z     vdW  Elec       q    Type
REMARK                         _______ _______ _______ _____ _____    ______ ____
ROOT
ATOM     14  C   UNL     1      -0.900   2.249  25.129  0.00  0.00    +0.205 A 
ATOM     15  N   UNL     1      -0.972   2.200  25.950  0.00  0.00    -0.056 NA
ATOM     16  O   UNL     1      -1.630   2.644  26.175  0.00  0.00    -0.336 OA
ATOM     17  C   UNL     1      -1.964   2.968  25.493  0.00  0.00    +0.251 A 
ATOM     18  N   UNL     1      -1.512   2.724  24.847  0.00  0.00    -0.190 NA
ENDROOT
BRANCH  14  11
ATOM      8  C   UNL     1       0.850   1.163  23.757  0.00  0.00    +0.132 A 
ATOM      9  C   UNL     1       0.127   0.785  23.878  0.00  0.00    +0.034 A 
ATOM     10  C   UNL     1      -0.456   1.148  24.335  0.00  0.00    +0.008 A 
ATOM     11  C   UNL     1      -0.316   1.887  24.672  0.00  0.00    +0.058 A 
ATOM     12  C   UNL     1       0.407   2.266  24.551  0.00  0.00    +0.103 A 
ATOM     13  N   UNL     1       0.990   1.904  24.094  0.00  0.00    -0.229 NA
BRANCH   8   5
ATOM      1  C   UNL     1       3.183  -0.285  21.926  0.00  0.00    +0.090 C 
ATOM      2  N   UNL     1       2.600   0.077  22.384  0.00  0.00    -0.269 NA
ATOM      3  C   UNL     1       2.793   0.716  22.869  0.00  0.00    +0.094 C 
ATOM      4  C   UNL     1       2.209   1.078  23.326  0.00  0.00    +0.109 C 
ATOM      5  N   UNL     1       1.433   0.801  23.299  0.00  0.00    -0.290 N 
ATOM      6  C   UNL     1       1.239   0.162  22.815  0.00  0.00    +0.109 C 
ATOM      7  C   UNL     1       1.823  -0.201  22.357  0.00  0.00    +0.094 C 
ENDBRANCH   8   5
ENDBRANCH  14  11
BRANCH  17  19
ATOM     19  C   UNL     1      -2.632   3.451  25.463  0.00  0.00    +0.138 C 
ATOM     20  C   UNL     1      -2.637   4.275  25.510  0.00  0.00    +0.027 C 
ATOM     21  C   UNL     1      -3.419   4.529  25.456  0.00  0.00    +0.019 C 
ATOM     22  C   UNL     1      -3.899   3.862  25.375  0.00  0.00    +0.073 C 
ATOM     23  N   UNL     1      -3.412   3.196  25.379  0.00  0.00    -0.263 NA
BRANCH  23  24
ATOM     24  C   UNL     1      -3.661   2.413  25.312  0.00  0.00    +0.100 C 
BRANCH  24  25
ATOM     25  C   UNL     1      -4.460   2.243  25.196  0.00  0.00    -0.004 A 
ATOM     26  C   UNL     1      -4.965   2.176  25.844  0.00  0.00    +0.029 A 
ATOM     27  C   UNL     1      -5.765   2.006  25.729  0.00  0.00    +0.167 A 
ATOM     28  F   UNL     1      -6.271   1.939  26.378  0.00  0.00    -0.202 F 
ATOM     29  C   UNL     1      -6.058   1.902  24.965  0.00  0.00    +0.167 A 
ATOM     30  F   UNL     1      -6.857   1.732  24.849  0.00  0.00    -0.202 F 
ATOM     31  C   UNL     1      -5.552   1.969  24.317  0.00  0.00    +0.032 A 
ATOM     32  C   UNL     1      -4.754   2.139  24.432  0.00  0.00    -0.000 A 
ENDBRANCH  24  25
ENDBRANCH  23  24
ENDBRANCH  17  19
TORSDOF 5
ENDMDL
MODEL 7
REMARK VINA RESULT:      -7.9      2.621      4.115
REMARK  Name = 
REMARK  5 active torsions:
REMARK  status: ('A' for Active; 'I' for Inactive)
REMARK    1  A    between atoms: N_5  and  C_8
REMARK    2  A    between atoms: C_11  and  C_14
REMARK    3  A    between atoms: C_17  and  C_19
REMARK    4  A    between atoms: N_23  and  C_24
REMARK    5  A    between atoms: C_24  and  C_25
REMARK                            x       y       z     vdW  Elec       q    Type
REMARK                         _______ _______ _______ _____ _____    ______ ____
ROOT
ATOM     14  C   UNL     1      -0.966   1.480  25.131  0.00  0.00    +0.205 A 
ATOM     15  N   UNL     1      -0.189   1.639  25.361  0.00  0.00    -0.056 NA
ATOM     16  O   UNL     1      -0.096   2.459  25.394  0.00  0.00    -0.336 OA
ATOM     17  C   UNL     1      -0.814   2.806  25.184  0.00  0.00    +0.251 A 
ATOM     18  N   UNL     1      -1.352   2.201  25.021  0.00  0.00    -0.190 NA
ENDROOT
BRANCH  14  11
ATOM      8  C   UNL     1      -1.961  -0.765  24.822  0.00  0.00    +0.132 A 
ATOM      9  C   UNL     1      -1.651  -0.547  25.555  0.00  0.00    +0.034 A 
ATOM     10  C   UNL     1      -1.320   0.201  25.658  0.00  0.00    +0.008 A 
ATOM     11  C   UNL     1      -1.298   0.732  25.028  0.00  0.00    +0.058 A 
ATOM     12  C   UNL     1      -1.607   0.516  24.294  0.00  0.00    +0.103 A 
ATOM     13  N   UNL     1      -1.938  -0.233  24.191  0.00  0.00    -0.229 NA
BRANCH   8   5
ATOM      1  C   UNL     1      -3.287  -3.758  24.411  0.00  0.00    +0.090 C 
ATOM      2  N   UNL     1      -2.956  -3.010  24.514  0.00  0.00    -0.269 NA
ATOM      3  C   UNL     1      -3.430  -2.376  24.746  0.00  0.00    +0.094 C 
ATOM      4  C   UNL     1      -3.098  -1.628  24.849  0.00  0.00    +0.109 C 
ATOM      5  N   UNL     1      -2.292  -1.513  24.719  0.00  0.00    -0.290 N 
ATOM      6  C   UNL     1      -1.817  -2.146  24.487  0.00  0.00    +0.109 C 
ATOM      7  C   UNL     1      -2.148  -2.895  24.384  0.00  0.00    +0.094 C 
ENDBRANCH   8   5
ENDBRANCH  14  11
BRANCH  17  19
ATOM     19  C   UNL     1      -0.968   3.615  25.144  0.00  0.00    +0.138 C 
ATOM     20  C   UNL     1      -0.504   4.179  24.759  0.00  0.00    +0.027 C 
ATOM     21  C   UNL     1      -0.862   4.915  24.858  0.00  0.00    +0.019 C 
ATOM     22  C   UNL     1      -1.548   4.807  25.304  0.00  0.00    +0.073 C 
ATOM     23  N   UNL     1      -1.614   4.003  25.480  0.00  0.00    -0.263 NA
BRANCH  23  24
ATOM     24  C   UNL     1      -2.218   3.651  25.917  0.00  0.00    +0.100 C 
BRANCH  24  25
ATOM     25  C   UNL     1      -3.003   3.866  25.783  0.00  0.00    -0.004 A 
ATOM     26  C   UNL     1      -3.385   3.625  25.093  0.00  0.00    +0.029 A 
ATOM     27  C   UNL     1      -4.171   3.840  24.959  0.00  0.00    +0.167 A 
ATOM     28  F   UNL     1      -4.553   3.598  24.269  0.00  0.00    -0.202 F 
ATOM     29  C   UNL     1      -4.573   4.296  25.516  0.00  0.00    +0.167 A 
ATOM     30  F   UNL     1      -5.359   4.511  25.383  0.00  0.00    -0.202 F 
ATOM     31  C   UNL     1      -4.191   4.537  26.206  0.00  0.00    +0.032 A 
ATOM     32  C   UNL     1      -3.407   4.322  26.340  0.00  0.00    -0.000 A 
ENDBRANCH  24  25
ENDBRANCH  23  24
ENDBRANCH  17  19
TORSDOF 5
ENDMDL
MODEL 8
REMARK VINA RESULT:      -6.7     15.198     16.744
REMARK  Name = 
REMARK  5 active torsions:
REMARK  status: ('A' for Active; 'I' for Inactive)
REMARK    1  A    between atoms: N_5  and  C_8
REMARK    2  A    between atoms: C_11  and  C_14
REMARK    3  A    between atoms: C_17  and  C_19
REMARK    4  A    between atoms: N_23  and  C_24
REMARK    5  A    between atoms: C_24  and  C_25
REMARK                            x       y       z     vdW  Elec       q    Type
REMARK                         _______ _______ _______ _____ _____    ______ ____
ROOT
ATOM     14  C   UNL     1      -4.905 -10.628  14.158  0.00  0.00    +0.205 A 
ATOM     15  N   UNL     1      -5.419 -10.781  13.530  0.00  0.00    -0.056 NA
ATOM     16  O   UNL     1      -4.981 -10.758  12.831  0.00  0.00    -0.336 OA
ATOM     17  C   UNL     1      -4.198 -10.590  13.026  0.00  0.00    +0.251 A 
ATOM     18  N   UNL     1      -4.151 -10.510  13.846  0.00  0.00    -0.190 NA
ENDROOT
BRANCH  14  11
ATOM      8  C   UNL     1      -5.522 -10.537  16.553  0.00  0.00    +0.132 A 
ATOM      9  C   UNL     1      -6.085 -10.751  15.989  0.00  0.00    +0.034 A 
ATOM     10  C   UNL     1      -5.879 -10.781  15.191  0.00  0.00    +0.008 A 
ATOM     11  C   UNL     1      -5.111 -10.597  14.956  0.00  0.00    +0.058 A 
ATOM     12  C   UNL     1      -4.546 -10.384  15.519  0.00  0.00    +0.103 A 
ATOM     13  N   UNL     1      -4.752 -10.353  16.317  0.00  0.00    -0.229 NA
BRANCH   8   5
ATOM      1  C   UNL     1      -6.343 -10.416  19.747  0.00  0.00    +0.090 C 
ATOM      2  N   UNL     1      -6.138 -10.446  18.948  0.00  0.00    -0.269 NA
ATOM      3  C   UNL     1      -6.665 -10.172  18.376  0.00  0.00    +0.094 C 
ATOM      4  C   UNL     1      -6.459 -10.202  17.577  0.00  0.00    +0.109 C 
ATOM      5  N   UNL     1      -5.727 -10.507  17.351  0.00  0.00    -0.290 N 
ATOM      6  C   UNL     1      -5.199 -10.781  17.923  0.00  0.00    +0.109 C 
ATOM      7  C   UNL     1      -5.405 -10.751  18.722  0.00  0.00    +0.094 C 
ENDBRANCH   8   5
ENDBRANCH  14  11
BRANCH  17  19
ATOM     19  C   UNL     1      -3.571 -10.516  12.495  0.00  0.00    +0.138 C 
ATOM     20  C   UNL     1      -2.796 -10.772  12.621  0.00  0.00    +0.027 C 
ATOM     21  C   UNL     1      -2.354 -10.587  11.949  0.00  0.00    +0.019 C 
ATOM     22  C   UNL     1      -2.856 -10.217  11.408  0.00  0.00    +0.073 C 
ATOM     23  N   UNL     1      -3.607 -10.173  11.746  0.00  0.00    -0.263 NA
BRANCH  23  24
ATOM     24  C   UNL     1      -4.277  -9.843  11.396  0.00  0.00    +0.100 C 
BRANCH  24  25
ATOM     25  C   UNL     1      -4.266  -9.634  10.598  0.00  0.00    -0.004 A 
ATOM     26  C   UNL     1      -4.458 -10.192  10.022  0.00  0.00    +0.029 A 
ATOM     27  C   UNL     1      -4.447  -9.982   9.224  0.00  0.00    +0.167 A 
ATOM     28  F   UNL     1      -4.639 -10.541   8.648  0.00  0.00    -0.202 F 
ATOM     29  C   UNL     1      -4.242  -9.214   9.003  0.00  0.00    +0.167 A 
ATOM     30  F   UNL     1      -4.230  -9.005   8.204  0.00  0.00    -0.202 F 
ATOM     31  C   UNL     1      -4.049  -8.656   9.579  0.00  0.00    +0.032 A 
ATOM     32  C   UNL     1      -4.061  -8.866  10.376  0.00  0.00    -0.000 A 
ENDBRANCH  24  25
ENDBRANCH  23  24
ENDBRANCH  17  19
TORSDOF 5
ENDMDL
MODEL 9
REMARK VINA RESULT:      -6.5     14.520     15.529
REMARK  Name = 
REMARK  5 active torsions:
REMARK  status: ('A' for Active; 'I' for Inactive)
REMARK    1  A    between atoms: N_5  and  C_8
REMARK    2  A    between atoms: C_11  and  C_14
REMARK    3  A    between atoms: C_17  and  C_19
REMARK    4  A    between atoms: N_23  and  C_24
REMARK    5  A    between atoms: C_24  and  C_25
REMARK                            x       y       z     vdW  Elec       q    Type
REMARK                         _______ _______ _______ _____ _____    ______ ____
ROOT
ATOM     14  C   UNL     1      -6.604 -10.139  14.050  0.00  0.00    +0.205 A 
ATOM     15  N   UNL     1      -7.095 -10.781  14.217  0.00  0.00    -0.056 NA
ATOM     16  O   UNL     1      -7.280 -10.758  15.021  0.00  0.00    -0.336 OA
ATOM     17  C   UNL     1      -6.905 -10.101  15.350  0.00  0.00    +0.251 A 
ATOM     18  N   UNL     1      -6.487  -9.719  14.750  0.00  0.00    -0.190 NA
ENDROOT
BRANCH  14  11
ATOM      8  C   UNL     1      -5.652  -9.573  11.836  0.00  0.00    +0.132 A 
ATOM      9  C   UNL     1      -5.197  -9.982  12.389  0.00  0.00    +0.034 A 
ATOM     10  C   UNL     1      -5.514 -10.171  13.127  0.00  0.00    +0.008 A 
ATOM     11  C   UNL     1      -6.287  -9.950  13.312  0.00  0.00    +0.058 A 
ATOM     12  C   UNL     1      -6.743  -9.541  12.760  0.00  0.00    +0.103 A 
ATOM     13  N   UNL     1      -6.426  -9.352  12.022  0.00  0.00    -0.229 NA
BRANCH   8   5
ATOM      1  C   UNL     1      -4.384  -8.819   8.885  0.00  0.00    +0.090 C 
ATOM      2  N   UNL     1      -4.701  -9.007   9.623  0.00  0.00    -0.269 NA
ATOM      3  C   UNL     1      -4.589  -8.499  10.263  0.00  0.00    +0.094 C 
ATOM      4  C   UNL     1      -4.906  -8.688  11.001  0.00  0.00    +0.109 C 
ATOM      5  N   UNL     1      -5.335  -9.385  11.099  0.00  0.00    -0.290 N 
ATOM      6  C   UNL     1      -5.448  -9.894  10.459  0.00  0.00    +0.109 C 
ATOM      7  C   UNL     1      -5.131  -9.705   9.721  0.00  0.00    +0.094 C 
ENDBRANCH   8   5
ENDBRANCH  14  11
BRANCH  17  19
ATOM     19  C   UNL     1      -6.940  -9.868  16.141  0.00  0.00    +0.138 C 
ATOM     20  C   UNL     1      -6.314  -9.878  16.678  0.00  0.00    +0.027 C 
ATOM     21  C   UNL     1      -6.594  -9.600  17.402  0.00  0.00    +0.019 C 
ATOM     22  C   UNL     1      -7.394  -9.417  17.312  0.00  0.00    +0.073 C 
ATOM     23  N   UNL     1      -7.608  -9.582  16.533  0.00  0.00    -0.263 NA
BRANCH  23  24
ATOM     24  C   UNL     1      -8.357  -9.481  16.203  0.00  0.00    +0.100 C 
BRANCH  24  25
ATOM     25  C   UNL     1      -8.947  -9.096  16.632  0.00  0.00    -0.004 A 
ATOM     26  C   UNL     1      -9.436  -9.526  17.139  0.00  0.00    +0.029 A 
ATOM     27  C   UNL     1     -10.027  -9.141  17.568  0.00  0.00    +0.167 A 
ATOM     28  F   UNL     1     -10.516  -9.571  18.075  0.00  0.00    -0.202 F 
ATOM     29  C   UNL     1     -10.128  -8.326  17.489  0.00  0.00    +0.167 A 
ATOM     30  F   UNL     1     -10.719  -7.941  17.918  0.00  0.00    -0.202 F 
ATOM     31  C   UNL     1      -9.640  -7.896  16.982  0.00  0.00    +0.032 A 
ATOM     32  C   UNL     1      -9.050  -8.281  16.554  0.00  0.00    -0.000 A 
ENDBRANCH  24  25
ENDBRANCH  23  24
ENDBRANCH  17  19
TORSDOF 5
ENDMDL
MODEL 10
REMARK VINA RESULT:      -6.4     14.468     15.655
REMARK  Name = 
REMARK  5 active torsions:
REMARK  status: ('A' for Active; 'I' for Inactive)
REMARK    1  A    between atoms: N_5  and  C_8
REMARK    2  A    between atoms: C_11  and  C_14
REMARK    3  A    between atoms: C_17  and  C_19
REMARK    4  A    between atoms: N_23  and  C_24
REMARK    5  A    between atoms: C_24  and  C_25
REMARK                            x       y       z     vdW  Elec       q    Type
REMARK                         _______ _______ _______ _____ _____    ______ ____
ROOT
ATOM     14  C   UNL     1      -7.577  -9.948  14.223  0.00  0.00    +0.205 A 
ATOM     15  N   UNL     1      -8.067 -10.591  14.390  0.00  0.00    -0.056 NA
ATOM     16  O   UNL     1      -8.363 -10.494  15.155  0.00  0.00    -0.336 OA
ATOM     17  C   UNL     1      -8.056  -9.791  15.460  0.00  0.00    +0.251 A 
ATOM     18  N   UNL     1      -7.570  -9.454  14.884  0.00  0.00    -0.190 NA
ENDROOT
BRANCH  14  11
ATOM      8  C   UNL     1      -6.346  -9.569  12.110  0.00  0.00    +0.132 A 
ATOM      9  C   UNL     1      -5.934  -9.746  12.802  0.00  0.00    +0.034 A 
ATOM     10  C   UNL     1      -6.344  -9.872  13.507  0.00  0.00    +0.008 A 
ATOM     11  C   UNL     1      -7.167  -9.821  13.519  0.00  0.00    +0.058 A 
ATOM     12  C   UNL     1      -7.580  -9.644  12.827  0.00  0.00    +0.103 A 
ATOM     13  N   UNL     1      -7.170  -9.518  12.123  0.00  0.00    -0.229 NA
BRANCH   8   5
ATOM      1  C   UNL     1      -4.703  -9.064   9.293  0.00  0.00    +0.090 C 
ATOM      2  N   UNL     1      -5.114  -9.190   9.997  0.00  0.00    -0.269 NA
ATOM      3  C   UNL     1      -5.623  -9.835  10.068  0.00  0.00    +0.094 C 
ATOM      4  C   UNL     1      -6.034  -9.961  10.773  0.00  0.00    +0.109 C 
ATOM      5  N   UNL     1      -5.935  -9.443  11.406  0.00  0.00    -0.290 N 
ATOM      6  C   UNL     1      -5.426  -8.797  11.336  0.00  0.00    +0.109 C 
ATOM      7  C   UNL     1      -5.016  -8.670  10.631  0.00  0.00    +0.094 C 
ENDBRANCH   8   5
ENDBRANCH  14  11
BRANCH  17  19
ATOM     19  C   UNL     1      -8.207  -9.481  16.208  0.00  0.00    +0.138 C 
ATOM     20  C   UNL     1      -8.701  -8.841  16.377  0.00  0.00    +0.027 C 
ATOM     21  C   UNL     1      -8.691  -8.719  17.193  0.00  0.00    +0.019 C 
ATOM     22  C   UNL     1      -8.191  -9.284  17.529  0.00  0.00    +0.073 C 
ATOM     23  N   UNL     1      -7.892  -9.754  16.920  0.00  0.00    -0.263 NA
BRANCH  23  24
ATOM     24  C   UNL     1      -7.370 -10.386  17.008  0.00  0.00    +0.100 C 
BRANCH  24  25
ATOM     25  C   UNL     1      -6.955 -10.484  17.714  0.00  0.00    -0.004 A 
ATOM     26  C   UNL     1      -6.136 -10.389  17.728  0.00  0.00    +0.029 A 
ATOM     27  C   UNL     1      -5.721 -10.487  18.435  0.00  0.00    +0.167 A 
ATOM     28  F   UNL     1      -4.901 -10.391  18.449  0.00  0.00    -0.202 F 
ATOM     29  C   UNL     1      -6.127 -10.680  19.127  0.00  0.00    +0.167 A 
ATOM     30  F   UNL     1      -5.712 -10.778  19.834  0.00  0.00    -0.202 F 
ATOM     31  C   UNL     1      -6.946 -10.775  19.113  0.00  0.00    +0.032 A 
ATOM     32  C   UNL     1      -7.360 -10.677  18.407  0.00  0.00    -0.000 A 
ENDBRANCH  24  25
ENDBRANCH  23  24
ENDBRANCH  17  19
TORSDOF 5
ENDMDL
