MODEL 1
REMARK VINA RESULT:     -11.2      0.000      0.000
REMARK  Name = 
REMARK  6 active torsions:
REMARK  status: ('A' for Active; 'I' for Inactive)
REMARK    1  A    between atoms: C_2  and  C_22
REMARK    2  A    between atoms: C_9  and  N_10
REMARK    3  A    between atoms: N_13  and  C_14
REMARK    4  A    between atoms: C_22  and  C_24
REMARK    5  A    between atoms: N_26  and  C_27
REMARK    6  A    between atoms: C_27  and  C_28
REMARK                            x       y       z     vdW  Elec       q    Type
REMARK                         _______ _______ _______ _____ _____    ______ ____
ROOT
ATOM      1  C   UNL     1      -4.319   2.522  24.472  0.00  0.00    +0.052 C 
ATOM      2  C   UNL     1      -4.915   2.398  25.028  0.00  0.00    -0.001 C 
ATOM      3  C   UNL     1      -5.108   1.632  25.262  0.00  0.00    -0.000 C 
ATOM      4  C   UNL     1      -4.704   0.988  24.940  0.00  0.00    -0.001 C 
ATOM      5  C   UNL     1      -5.301   0.864  25.497  0.00  0.00    -0.000 C 
ATOM      6  C   UNL     1      -4.897   0.221  25.176  0.00  0.00    +0.002 C 
ATOM      7  C   UNL     1      -4.493  -0.423  24.854  0.00  0.00    +0.022 C 
ATOM      8  C   UNL     1      -3.896  -0.300  24.297  0.00  0.00    +0.097 C 
ATOM     15  C   UNL     1      -3.704   0.468  24.063  0.00  0.00    +0.019 C 
ATOM     16  C   UNL     1      -3.107   0.590  23.507  0.00  0.00    +0.002 C 
ATOM     17  C   UNL     1      -4.108   1.111  24.385  0.00  0.00    +0.045 C 
ATOM     18  C   UNL     1      -3.915   1.878  24.150  0.00  0.00    +0.145 C 
ATOM     19  O   UNL     1      -3.318   2.002  23.594  0.00  0.00    -0.224 OA
ENDROOT
BRANCH   8   9
ATOM      9  N   UNL     1      -3.493  -0.942  23.976  0.00  0.00    -0.189 NA
ATOM     10  C   UNL     1      -3.090  -1.466  24.471  0.00  0.00    +0.339 C 
ATOM     11  O   UNL     1      -3.092  -1.346  25.288  0.00  0.00    -0.249 OA
ATOM     12  N   UNL     1      -2.686  -2.110  24.150  0.00  0.00    -0.187 NA
BRANCH  12  13
ATOM     13  C   UNL     1      -2.284  -2.633  24.645  0.00  0.00    +0.117 C 
ATOM     14  C   UNL     1      -1.579  -2.980  24.393  0.00  0.00    +0.025 C 
ENDBRANCH  12  13
ENDBRANCH   8   9
BRANCH   1  20
ATOM     20  C   UNL     1      -4.126   3.289  24.237  0.00  0.00    +0.077 C 
ATOM     21  C   UNL     1      -4.310   3.544  23.474  0.00  0.00    +0.009 C 
BRANCH  20  22
ATOM     22  C   UNL     1      -3.749   3.800  24.763  0.00  0.00    +0.241 C 
ATOM     23  O   UNL     1      -4.182   4.168  25.362  0.00  0.00    -0.273 OA
ATOM     24  N   UNL     1      -2.940   3.943  24.691  0.00  0.00    -0.197 NA
BRANCH  24  25
ATOM     25  C   UNL     1      -2.563   4.454  25.218  0.00  0.00    +0.179 C 
BRANCH  25  26
ATOM     26  C   UNL     1      -1.759   4.616  25.132  0.00  0.00    +0.145 A 
ATOM     27  C   UNL     1      -1.422   5.363  25.037  0.00  0.00    +0.038 A 
ATOM     28  C   UNL     1      -0.605   5.267  24.973  0.00  0.00    +0.043 A 
ATOM     29  C   UNL     1      -0.437   4.461  25.028  0.00  0.00    +0.179 A 
ATOM     30  O   UNL     1      -1.151   4.059  25.126  0.00  0.00    -0.453 OA
ENDBRANCH  25  26
ENDBRANCH  24  25
ENDBRANCH  20  22
ENDBRANCH   1  20
TORSDOF 6
ENDMDL
MODEL 2
REMARK VINA RESULT:     -10.9      0.950      4.775
REMARK  Name = 
REMARK  6 active torsions:
REMARK  status: ('A' for Active; 'I' for Inactive)
REMARK    1  A    between atoms: C_2  and  C_22
REMARK    2  A    between atoms: C_9  and  N_10
REMARK    3  A    between atoms: N_13  and  C_14
REMARK    4  A    between atoms: C_22  and  C_24
REMARK    5  A    between atoms: N_26  and  C_27
REMARK    6  A    between atoms: C_27  and  C_28
REMARK                            x       y       z     vdW  Elec       q    Type
REMARK                         _______ _______ _______ _____ _____    ______ ____
ROOT
ATOM      1  C   UNL     1      -4.257   0.210  24.533  0.00  0.00    +0.052 C 
ATOM      2  C   UNL     1      -4.908   0.344  25.022  0.00  0.00    -0.001 C 
ATOM      3  C   UNL     1      -5.082   1.108  25.277  0.00  0.00    -0.000 C 
ATOM      4  C   UNL     1      -4.605   1.740  25.044  0.00  0.00    -0.001 C 
ATOM      5  C   UNL     1      -5.256   1.873  25.533  0.00  0.00    -0.000 C 
ATOM      6  C   UNL     1      -4.780   2.505  25.300  0.00  0.00    +0.002 C 
ATOM      7  C   UNL     1      -4.303   3.137  25.066  0.00  0.00    +0.022 C 
ATOM      8  C   UNL     1      -3.651   3.003  24.577  0.00  0.00    +0.097 C 
ATOM     15  C   UNL     1      -3.477   2.238  24.322  0.00  0.00    +0.019 C 
ATOM     16  C   UNL     1      -2.826   2.106  23.833  0.00  0.00    +0.002 C 
ATOM     17  C   UNL     1      -3.954   1.607  24.555  0.00  0.00    +0.045 C 
ATOM     18  C   UNL     1      -3.780   0.843  24.300  0.00  0.00    +0.145 C 
ATOM     19  O   UNL     1      -3.129   0.709  23.811  0.00  0.00    -0.224 OA
ENDROOT
BRANCH   8   9
ATOM      9  N   UNL     1      -3.175   3.634  24.344  0.00  0.00    -0.189 NA
ATOM     10  C   UNL     1      -2.726   4.042  24.904  0.00  0.00    +0.339 C 
ATOM     11  O   UNL     1      -2.755   3.818  25.698  0.00  0.00    -0.249 OA
ATOM     12  N   UNL     1      -2.250   4.674  24.671  0.00  0.00    -0.187 NA
BRANCH  12  13
ATOM     13  C   UNL     1      -1.802   5.081  25.232  0.00  0.00    +0.117 C 
ATOM     14  C   UNL     1      -1.103   5.457  25.006  0.00  0.00    +0.025 C 
ENDBRANCH  12  13
ENDBRANCH   8   9
BRANCH   1  20
ATOM     20  C   UNL     1      -4.082  -0.554  24.277  0.00  0.00    +0.077 C 
ATOM     21  C   UNL     1      -4.303  -0.796  23.520  0.00  0.00    +0.009 C 
BRANCH  20  22
ATOM     22  C   UNL     1      -3.688  -1.077  24.778  0.00  0.00    +0.241 C 
ATOM     23  O   UNL     1      -4.081  -1.406  25.425  0.00  0.00    -0.273 OA
ATOM     24  N   UNL     1      -2.899  -1.272  24.633  0.00  0.00    -0.197 NA
BRANCH  24  25
ATOM     25  C   UNL     1      -2.504  -1.795  25.133  0.00  0.00    +0.179 C 
BRANCH  25  26
ATOM     26  C   UNL     1      -1.680  -1.829  25.128  0.00  0.00    +0.145 A 
ATOM     27  C   UNL     1      -1.219  -2.351  24.685  0.00  0.00    +0.038 A 
ATOM     28  C   UNL     1      -0.426  -2.191  24.848  0.00  0.00    +0.043 A 
ATOM     29  C   UNL     1      -0.397  -1.572  25.392  0.00  0.00    +0.179 A 
ATOM     30  O   UNL     1      -1.172  -1.348  25.565  0.00  0.00    -0.453 OA
ENDBRANCH  25  26
ENDBRANCH  24  25
ENDBRANCH  20  22
ENDBRANCH   1  20
TORSDOF 6
ENDMDL
MODEL 3
REMARK VINA RESULT:     -10.5      2.464      3.988
REMARK  Name = 
REMARK  6 active torsions:
REMARK  status: ('A' for Active; 'I' for Inactive)
REMARK    1  A    between atoms: C_2  and  C_22
REMARK    2  A    between atoms: C_9  and  N_10
REMARK    3  A    between atoms: N_13  and  C_14
REMARK    4  A    between atoms: C_22  and  C_24
REMARK    5  A    between atoms: N_26  and  C_27
REMARK    6  A    between atoms: C_27  and  C_28
REMARK                            x       y       z     vdW  Elec       q    Type
REMARK                         _______ _______ _______ _____ _____    ______ ____
ROOT
ATOM      1  C   UNL     1      -2.160   3.418  25.174  0.00  0.00    +0.052 C 
ATOM      2  C   UNL     1      -1.699   3.543  25.845  0.00  0.00    -0.001 C 
ATOM      3  C   UNL     1      -1.027   3.084  25.976  0.00  0.00    -0.000 C 
ATOM      4  C   UNL     1      -0.815   2.498  25.434  0.00  0.00    -0.001 C 
ATOM      5  C   UNL     1      -0.354   2.624  26.107  0.00  0.00    -0.000 C 
ATOM      6  C   UNL     1      -0.143   2.038  25.565  0.00  0.00    +0.002 C 
ATOM      7  C   UNL     1       0.068   1.453  25.024  0.00  0.00    +0.022 C 
ATOM      8  C   UNL     1      -0.394   1.327  24.351  0.00  0.00    +0.097 C 
ATOM     15  C   UNL     1      -1.066   1.787  24.221  0.00  0.00    +0.019 C 
ATOM     16  C   UNL     1      -1.527   1.660  23.549  0.00  0.00    +0.002 C 
ATOM     17  C   UNL     1      -1.277   2.372  24.762  0.00  0.00    +0.045 C 
ATOM     18  C   UNL     1      -1.949   2.831  24.632  0.00  0.00    +0.145 C 
ATOM     19  O   UNL     1      -2.411   2.706  23.959  0.00  0.00    -0.224 OA
ENDROOT
BRANCH   8   9
ATOM      9  N   UNL     1      -0.183   0.742  23.810  0.00  0.00    -0.189 NA
ATOM     10  C   UNL     1       0.595   0.692  23.537  0.00  0.00    +0.339 C 
ATOM     11  O   UNL     1       1.162   1.229  23.807  0.00  0.00    -0.249 OA
ATOM     12  N   UNL     1       0.806   0.107  22.996  0.00  0.00    -0.187 NA
BRANCH  12  13
ATOM     13  C   UNL     1       1.584   0.058  22.724  0.00  0.00    +0.117 C 
ATOM     14  C   UNL     1       1.749  -0.336  22.018  0.00  0.00    +0.025 C 
ENDBRANCH  12  13
ENDBRANCH   8   9
BRANCH   1  20
ATOM     20  C   UNL     1      -2.833   3.877  25.042  0.00  0.00    +0.077 C 
ATOM     21  C   UNL     1      -2.843   4.426  24.427  0.00  0.00    +0.009 C 
BRANCH  20  22
ATOM     22  C   UNL     1      -3.494   3.788  25.526  0.00  0.00    +0.241 C 
ATOM     23  O   UNL     1      -3.510   4.138  26.273  0.00  0.00    -0.273 OA
ATOM     24  N   UNL     1      -4.142   3.348  25.263  0.00  0.00    -0.197 NA
BRANCH  24  25
ATOM     25  C   UNL     1      -4.804   3.259  25.746  0.00  0.00    +0.179 C 
BRANCH  25  26
ATOM     26  C   UNL     1      -5.369   2.685  25.570  0.00  0.00    +0.145 A 
ATOM     27  C   UNL     1      -5.761   2.207  26.117  0.00  0.00    +0.038 A 
ATOM     28  C   UNL     1      -6.276   1.715  25.701  0.00  0.00    +0.043 A 
ATOM     29  C   UNL     1      -6.202   1.888  24.897  0.00  0.00    +0.179 A 
ATOM     30  O   UNL     1      -5.641   2.488  24.817  0.00  0.00    -0.453 OA
ENDBRANCH  25  26
ENDBRANCH  24  25
ENDBRANCH  20  22
ENDBRANCH   1  20
TORSDOF 6
ENDMDL
MODEL 4
REMARK VINA RESULT:     -10.4      1.931      5.409
REMARK  Name = 
REMARK  6 active torsions:
REMARK  status: ('A' for Active; 'I' for Inactive)
REMARK    1  A    between atoms: C_2  and  C_22
REMARK    2  A    between atoms: C_9  and  N_10
REMARK    3  A    between atoms: N_13  and  C_14
REMARK    4  A    between atoms: C_22  and  C_24
REMARK    5  A    between atoms: N_26  and  C_27
REMARK    6  A    between atoms: C_27  and  C_28
REMARK                            x       y       z     vdW  Elec       q    Type
REMARK                         _______ _______ _______ _____ _____    ______ ____
ROOT
ATOM      1  C   UNL     1      -0.831   0.895  24.590  0.00  0.00    +0.052 C 
ATOM      2  C   UNL     1      -0.354   1.178  25.199  0.00  0.00    -0.001 C 
ATOM      3  C   UNL     1      -0.560   1.868  25.599  0.00  0.00    -0.000 C 
ATOM      4  C   UNL     1      -1.246   2.277  25.388  0.00  0.00    -0.001 C 
ATOM      5  C   UNL     1      -0.768   2.560  25.999  0.00  0.00    -0.000 C 
ATOM      6  C   UNL     1      -1.453   2.969  25.789  0.00  0.00    +0.002 C 
ATOM      7  C   UNL     1      -2.138   3.378  25.579  0.00  0.00    +0.022 C 
ATOM      8  C   UNL     1      -2.617   3.095  24.968  0.00  0.00    +0.097 C 
ATOM     15  C   UNL     1      -2.409   2.404  24.568  0.00  0.00    +0.019 C 
ATOM     16  C   UNL     1      -2.887   2.122  23.958  0.00  0.00    +0.002 C 
ATOM     17  C   UNL     1      -1.724   1.995  24.779  0.00  0.00    +0.045 C 
ATOM     18  C   UNL     1      -1.517   1.304  24.379  0.00  0.00    +0.145 C 
ATOM     19  O   UNL     1      -1.995   1.021  23.769  0.00  0.00    -0.224 OA
ENDROOT
BRANCH   8   9
ATOM      9  N   UNL     1      -3.301   3.503  24.758  0.00  0.00    -0.189 NA
ATOM     10  C   UNL     1      -3.912   3.595  25.306  0.00  0.00    +0.339 C 
ATOM     11  O   UNL     1      -3.837   3.277  26.064  0.00  0.00    -0.249 OA
ATOM     12  N   UNL     1      -4.597   4.003  25.095  0.00  0.00    -0.187 NA
BRANCH  12  13
ATOM     13  C   UNL     1      -5.207   4.095  25.644  0.00  0.00    +0.117 C 
ATOM     14  C   UNL     1      -5.927   4.420  25.408  0.00  0.00    +0.025 C 
ENDBRANCH  12  13
ENDBRANCH   8   9
BRANCH   1  20
ATOM     20  C   UNL     1      -0.624   0.204  24.189  0.00  0.00    +0.077 C 
ATOM     21  C   UNL     1      -0.316   0.247  23.425  0.00  0.00    +0.009 C 
BRANCH  20  22
ATOM     22  C   UNL     1      -0.725  -0.529  24.552  0.00  0.00    +0.241 C 
ATOM     23  O   UNL     1      -0.135  -0.831  25.045  0.00  0.00    -0.273 OA
ATOM     24  N   UNL     1      -1.416  -0.963  24.423  0.00  0.00    -0.197 NA
BRANCH  24  25
ATOM     25  C   UNL     1      -1.517  -1.696  24.786  0.00  0.00    +0.179 C 
BRANCH  25  26
ATOM     26  C   UNL     1      -2.245  -2.082  24.741  0.00  0.00    +0.145 A 
ATOM     27  C   UNL     1      -2.858  -2.025  25.289  0.00  0.00    +0.038 A 
ATOM     28  C   UNL     1      -3.479  -2.501  25.027  0.00  0.00    +0.043 A 
ATOM     29  C   UNL     1      -3.249  -2.853  24.317  0.00  0.00    +0.179 A 
ATOM     30  O   UNL     1      -2.485  -2.594  24.141  0.00  0.00    -0.453 OA
ENDBRANCH  25  26
ENDBRANCH  24  25
ENDBRANCH  20  22
ENDBRANCH   1  20
TORSDOF 6
ENDMDL
MODEL 5
REMARK VINA RESULT:     -10.3      2.533      3.827
REMARK  Name = 
REMARK  6 active torsions:
REMARK  status: ('A' for Active; 'I' for Inactive)
REMARK    1  A    between atoms: C_2  and  C_22
REMARK    2  A    between atoms: C_9  and  N_10
REMARK    3  A    between atoms: N_13  and  C_14
REMARK    4  A    between atoms: C_22  and  C_24
REMARK    5  A    between atoms: N_26  and  C_27
REMARK    6  A    between atoms: C_27  and  C_28
REMARK                            x       y       z     vdW  Elec       q    Type
REMARK                         _______ _______ _______ _____ _____    ______ ____
ROOT
ATOM      1  C   UNL     1      -3.273  -0.136  24.730  0.00  0.00    +0.052 C 
ATOM      2  C   UNL     1      -3.100  -0.669  25.335  0.00  0.00    -0.001 C 
ATOM      3  C   UNL     1      -2.316  -0.858  25.506  0.00  0.00    -0.000 C 
ATOM      4  C   UNL     1      -1.704  -0.514  25.071  0.00  0.00    -0.001 C 
ATOM      5  C   UNL     1      -1.531  -1.048  25.677  0.00  0.00    -0.000 C 
ATOM      6  C   UNL     1      -0.919  -0.703  25.243  0.00  0.00    +0.002 C 
ATOM      7  C   UNL     1      -0.308  -0.359  24.809  0.00  0.00    +0.022 C 
ATOM      8  C   UNL     1      -0.481   0.175  24.203  0.00  0.00    +0.097 C 
ATOM     15  C   UNL     1      -1.266   0.364  24.033  0.00  0.00    +0.019 C 
ATOM     16  C   UNL     1      -1.439   0.897  23.428  0.00  0.00    +0.002 C 
ATOM     17  C   UNL     1      -1.877   0.020  24.467  0.00  0.00    +0.045 C 
ATOM     18  C   UNL     1      -2.661   0.209  24.296  0.00  0.00    +0.145 C 
ATOM     19  O   UNL     1      -2.835   0.742  23.691  0.00  0.00    -0.224 OA
ENDROOT
BRANCH   8   9
ATOM      9  N   UNL     1       0.129   0.519  23.770  0.00  0.00    -0.189 NA
ATOM     10  C   UNL     1       0.703   0.043  23.415  0.00  0.00    +0.339 C 
ATOM     11  O   UNL     1       0.665  -0.778  23.495  0.00  0.00    -0.249 OA
ATOM     12  N   UNL     1       1.315   0.388  22.982  0.00  0.00    -0.187 NA
BRANCH  12  13
ATOM     13  C   UNL     1       1.888  -0.089  22.628  0.00  0.00    +0.117 C 
ATOM     14  C   UNL     1       2.607   0.239  22.391  0.00  0.00    +0.025 C 
ENDBRANCH  12  13
ENDBRANCH   8   9
BRANCH   1  20
ATOM     20  C   UNL     1      -4.058   0.053  24.559  0.00  0.00    +0.077 C 
ATOM     21  C   UNL     1      -4.392  -0.184  23.842  0.00  0.00    +0.009 C 
BRANCH  20  22
ATOM     22  C   UNL     1      -4.508   0.479  25.102  0.00  0.00    +0.241 C 
ATOM     23  O   UNL     1      -4.834   0.096  25.758  0.00  0.00    -0.273 OA
ATOM     24  N   UNL     1      -4.634   1.287  24.992  0.00  0.00    -0.197 NA
BRANCH  24  25
ATOM     25  C   UNL     1      -5.084   1.713  25.536  0.00  0.00    +0.179 C 
BRANCH  25  26
ATOM     26  C   UNL     1      -5.075   2.538  25.524  0.00  0.00    +0.145 A 
ATOM     27  C   UNL     1      -5.736   3.029  25.478  0.00  0.00    +0.038 A 
ATOM     28  C   UNL     1      -5.473   3.811  25.481  0.00  0.00    +0.043 A 
ATOM     29  C   UNL     1      -4.649   3.803  25.529  0.00  0.00    +0.179 A 
ATOM     30  O   UNL     1      -4.404   3.015  25.555  0.00  0.00    -0.453 OA
ENDBRANCH  25  26
ENDBRANCH  24  25
ENDBRANCH  20  22
ENDBRANCH   1  20
TORSDOF 6
ENDMDL
MODEL 6
REMARK VINA RESULT:     -10.3      2.121      3.500
REMARK  Name = 
REMARK  6 active torsions:
REMARK  status: ('A' for Active; 'I' for Inactive)
REMARK    1  A    between atoms: C_2  and  C_22
REMARK    2  A    between atoms: C_9  and  N_10
REMARK    3  A    between atoms: N_13  and  C_14
REMARK    4  A    between atoms: C_22  and  C_24
REMARK    5  A    between atoms: N_26  and  C_27
REMARK    6  A    between atoms: C_27  and  C_28
REMARK                            x       y       z     vdW  Elec       q    Type
REMARK                         _______ _______ _______ _____ _____    ______ ____
ROOT
ATOM      1  C   UNL     1      -0.297   1.966  25.197  0.00  0.00    +0.052 C 
ATOM      2  C   UNL     1       0.118   1.998  24.486  0.00  0.00    -0.001 C 
ATOM      3  C   UNL     1       0.179   1.326  24.012  0.00  0.00    -0.000 C 
ATOM      4  C   UNL     1      -0.176   0.620  24.251  0.00  0.00    -0.001 C 
ATOM      5  C   UNL     1       0.240   0.653  23.539  0.00  0.00    -0.000 C 
ATOM      6  C   UNL     1      -0.115  -0.053  23.777  0.00  0.00    +0.002 C 
ATOM      7  C   UNL     1      -0.469  -0.759  24.016  0.00  0.00    +0.022 C 
ATOM      8  C   UNL     1      -0.885  -0.792  24.728  0.00  0.00    +0.097 C 
ATOM     15  C   UNL     1      -0.945  -0.119  25.201  0.00  0.00    +0.019 C 
ATOM     16  C   UNL     1      -1.361  -0.152  25.913  0.00  0.00    +0.002 C 
ATOM     17  C   UNL     1      -0.591   0.587  24.963  0.00  0.00    +0.045 C 
ATOM     18  C   UNL     1      -0.652   1.259  25.436  0.00  0.00    +0.145 C 
ATOM     19  O   UNL     1      -1.067   1.227  26.148  0.00  0.00    -0.224 OA
ENDROOT
BRANCH   8   9
ATOM      9  N   UNL     1      -1.239  -1.497  24.967  0.00  0.00    -0.189 NA
ATOM     10  C   UNL     1      -1.872  -1.807  24.536  0.00  0.00    +0.339 C 
ATOM     11  O   UNL     1      -2.149  -1.411  23.867  0.00  0.00    -0.249 OA
ATOM     12  N   UNL     1      -2.226  -2.513  24.775  0.00  0.00    -0.187 NA
BRANCH  12  13
ATOM     13  C   UNL     1      -2.858  -2.823  24.344  0.00  0.00    +0.117 C 
ATOM     14  C   UNL     1      -3.463  -3.228  24.733  0.00  0.00    +0.025 C 
ENDBRANCH  12  13
ENDBRANCH   8   9
BRANCH   1  20
ATOM     20  C   UNL     1      -0.358   2.639  25.671  0.00  0.00    +0.077 C 
ATOM     21  C   UNL     1       0.038   2.671  26.394  0.00  0.00    +0.009 C 
BRANCH  20  22
ATOM     22  C   UNL     1      -0.815   3.278  25.423  0.00  0.00    +0.241 C 
ATOM     23  O   UNL     1      -0.465   3.896  25.000  0.00  0.00    -0.273 OA
ATOM     24  N   UNL     1      -1.621   3.303  25.597  0.00  0.00    -0.197 NA
BRANCH  24  25
ATOM     25  C   UNL     1      -2.078   3.942  25.349  0.00  0.00    +0.179 C 
BRANCH  25  26
ATOM     26  C   UNL     1      -2.902   3.892  25.361  0.00  0.00    +0.145 A 
ATOM     27  C   UNL     1      -3.392   3.806  24.703  0.00  0.00    +0.038 A 
ATOM     28  C   UNL     1      -4.172   3.779  24.970  0.00  0.00    +0.043 A 
ATOM     29  C   UNL     1      -4.164   3.849  25.792  0.00  0.00    +0.179 A 
ATOM     30  O   UNL     1      -3.378   3.918  26.033  0.00  0.00    -0.453 OA
ENDBRANCH  25  26
ENDBRANCH  24  25
ENDBRANCH  20  22
ENDBRANCH   1  20
TORSDOF 6
ENDMDL
MODEL 7
REMARK VINA RESULT:      -9.9      2.440      4.650
REMARK  Name = 
REMARK  6 active torsions:
REMARK  status: ('A' for Active; 'I' for Inactive)
REMARK    1  A    between atoms: C_2  and  C_22
REMARK    2  A    between atoms: C_9  and  N_10
REMARK    3  A    between atoms: N_13  and  C_14
REMARK    4  A    between atoms: C_22  and  C_24
REMARK    5  A    between atoms: N_26  and  C_27
REMARK    6  A    between atoms: C_27  and  C_28
REMARK                            x       y       z     vdW  Elec       q    Type
REMARK                         _______ _______ _______ _____ _____    ______ ____
ROOT
ATOM      1  C   UNL     1      -2.110  -0.470  25.029  0.00  0.00    +0.052 C 
ATOM      2  C   UNL     1      -2.679  -1.051  24.895  0.00  0.00    -0.001 C 
ATOM      3  C   UNL     1      -3.462  -0.836  24.751  0.00  0.00    -0.000 C 
ATOM      4  C   UNL     1      -3.676  -0.038  24.742  0.00  0.00    -0.001 C 
ATOM      5  C   UNL     1      -4.246  -0.620  24.608  0.00  0.00    -0.000 C 
ATOM      6  C   UNL     1      -4.459   0.177  24.598  0.00  0.00    +0.002 C 
ATOM      7  C   UNL     1      -4.673   0.974  24.588  0.00  0.00    +0.022 C 
ATOM      8  C   UNL     1      -4.102   1.556  24.723  0.00  0.00    +0.097 C 
ATOM     15  C   UNL     1      -3.319   1.340  24.866  0.00  0.00    +0.019 C 
ATOM     16  C   UNL     1      -2.750   1.921  25.000  0.00  0.00    +0.002 C 
ATOM     17  C   UNL     1      -3.106   0.543  24.876  0.00  0.00    +0.045 C 
ATOM     18  C   UNL     1      -2.323   0.328  25.020  0.00  0.00    +0.145 C 
ATOM     19  O   UNL     1      -1.753   0.909  25.154  0.00  0.00    -0.224 OA
ENDROOT
BRANCH   8   9
ATOM      9  N   UNL     1      -4.315   2.352  24.713  0.00  0.00    -0.189 NA
ATOM     10  C   UNL     1      -4.942   2.617  25.181  0.00  0.00    +0.339 C 
ATOM     11  O   UNL     1      -5.354   2.085  25.659  0.00  0.00    -0.249 OA
ATOM     12  N   UNL     1      -5.155   3.414  25.171  0.00  0.00    -0.187 NA
BRANCH  12  13
ATOM     13  C   UNL     1      -5.781   3.679  25.639  0.00  0.00    +0.117 C 
ATOM     14  C   UNL     1      -5.992   4.476  25.633  0.00  0.00    +0.025 C 
ENDBRANCH  12  13
ENDBRANCH   8   9
BRANCH   1  20
ATOM     20  C   UNL     1      -1.326  -0.685  25.173  0.00  0.00    +0.077 C 
ATOM     21  C   UNL     1      -1.016  -0.624  25.935  0.00  0.00    +0.009 C 
BRANCH  20  22
ATOM     22  C   UNL     1      -0.854  -0.961  24.557  0.00  0.00    +0.241 C 
ATOM     23  O   UNL     1      -0.964  -1.724  24.261  0.00  0.00    -0.273 OA
ATOM     24  N   UNL     1      -0.270  -0.474  24.234  0.00  0.00    -0.197 NA
BRANCH  24  25
ATOM     25  C   UNL     1       0.202  -0.750  23.617  0.00  0.00    +0.179 C 
BRANCH  25  26
ATOM     26  C   UNL     1       0.798  -0.270  23.307  0.00  0.00    +0.145 A 
ATOM     27  C   UNL     1       1.336  -0.484  22.719  0.00  0.00    +0.038 A 
ATOM     28  C   UNL     1       1.830   0.161  22.579  0.00  0.00    +0.043 A 
ATOM     29  C   UNL     1       1.597   0.775  23.080  0.00  0.00    +0.179 A 
ATOM     30  O   UNL     1       0.959   0.507  23.530  0.00  0.00    -0.453 OA
ENDBRANCH  25  26
ENDBRANCH  24  25
ENDBRANCH  20  22
ENDBRANCH   1  20
TORSDOF 6
ENDMDL
MODEL 8
REMARK VINA RESULT:      -9.7      2.309      6.022
REMARK  Name = 
REMARK  6 active torsions:
REMARK  status: ('A' for Active; 'I' for Inactive)
REMARK    1  A    between atoms: C_2  and  C_22
REMARK    2  A    between atoms: C_9  and  N_10
REMARK    3  A    between atoms: N_13  and  C_14
REMARK    4  A    between atoms: C_22  and  C_24
REMARK    5  A    between atoms: N_26  and  C_27
REMARK    6  A    between atoms: C_27  and  C_28
REMARK                            x       y       z     vdW  Elec       q    Type
REMARK                         _______ _______ _______ _____ _____    ______ ____
ROOT
ATOM      1  C   UNL     1      -0.539  -0.708  24.778  0.00  0.00    +0.052 C 
ATOM      2  C   UNL     1      -0.114  -0.717  24.071  0.00  0.00    -0.001 C 
ATOM      3  C   UNL     1       0.163  -0.012  23.747  0.00  0.00    -0.000 C 
ATOM      4  C   UNL     1       0.016   0.705  24.131  0.00  0.00    -0.001 C 
ATOM      5  C   UNL     1       0.441   0.694  23.423  0.00  0.00    -0.000 C 
ATOM      6  C   UNL     1       0.294   1.410  23.806  0.00  0.00    +0.002 C 
ATOM      7  C   UNL     1       0.148   2.126  24.189  0.00  0.00    +0.022 C 
ATOM      8  C   UNL     1      -0.278   2.136  24.896  0.00  0.00    +0.097 C 
ATOM     15  C   UNL     1      -0.555   1.430  25.220  0.00  0.00    +0.019 C 
ATOM     16  C   UNL     1      -0.980   1.441  25.927  0.00  0.00    +0.002 C 
ATOM     17  C   UNL     1      -0.408   0.714  24.837  0.00  0.00    +0.045 C 
ATOM     18  C   UNL     1      -0.686   0.009  25.161  0.00  0.00    +0.145 C 
ATOM     19  O   UNL     1      -1.111   0.018  25.869  0.00  0.00    -0.224 OA
ENDROOT
BRANCH   8   9
ATOM      9  N   UNL     1      -0.424   2.851  25.279  0.00  0.00    -0.189 NA
ATOM     10  C   UNL     1      -0.692   3.503  24.848  0.00  0.00    +0.339 C 
ATOM     11  O   UNL     1      -0.811   3.438  24.034  0.00  0.00    -0.249 OA
ATOM     12  N   UNL     1      -0.838   4.219  25.231  0.00  0.00    -0.187 NA
BRANCH  12  13
ATOM     13  C   UNL     1      -1.105   4.870  24.799  0.00  0.00    +0.117 C 
ATOM     14  C   UNL     1      -1.562   5.449  25.168  0.00  0.00    +0.025 C 
ENDBRANCH  12  13
ENDBRANCH   8   9
BRANCH   1  20
ATOM     20  C   UNL     1      -0.817  -1.413  25.103  0.00  0.00    +0.077 C 
ATOM     21  C   UNL     1      -0.590  -1.634  25.865  0.00  0.00    +0.009 C 
BRANCH  20  22
ATOM     22  C   UNL     1      -1.321  -1.898  24.667  0.00  0.00    +0.241 C 
ATOM     23  O   UNL     1      -1.009  -2.488  24.180  0.00  0.00    -0.273 OA
ATOM     24  N   UNL     1      -2.139  -1.795  24.715  0.00  0.00    -0.197 NA
BRANCH  24  25
ATOM     25  C   UNL     1      -2.643  -2.280  24.279  0.00  0.00    +0.179 C 
BRANCH  25  26
ATOM     26  C   UNL     1      -3.425  -2.051  24.148  0.00  0.00    +0.145 A 
ATOM     27  C   UNL     1      -4.049  -2.552  23.949  0.00  0.00    +0.038 A 
ATOM     28  C   UNL     1      -4.729  -2.092  23.871  0.00  0.00    +0.043 A 
ATOM     29  C   UNL     1      -4.525  -1.306  24.023  0.00  0.00    +0.179 A 
ATOM     30  O   UNL     1      -3.719  -1.282  24.194  0.00  0.00    -0.453 OA
ENDBRANCH  25  26
ENDBRANCH  24  25
ENDBRANCH  20  22
ENDBRANCH   1  20
TORSDOF 6
ENDMDL
MODEL 9
REMARK VINA RESULT:      -9.4      2.101      4.808
REMARK  Name = 
REMARK  6 active torsions:
REMARK  status: ('A' for Active; 'I' for Inactive)
REMARK    1  A    between atoms: C_2  and  C_22
REMARK    2  A    between atoms: C_9  and  N_10
REMARK    3  A    between atoms: N_13  and  C_14
REMARK    4  A    between atoms: C_22  and  C_24
REMARK    5  A    between atoms: N_26  and  C_27
REMARK    6  A    between atoms: C_27  and  C_28
REMARK                            x       y       z     vdW  Elec       q    Type
REMARK                         _______ _______ _______ _____ _____    ______ ____
ROOT
ATOM      1  C   UNL     1      -1.151   1.738  23.883  0.00  0.00    +0.052 C 
ATOM      2  C   UNL     1      -1.350   1.736  23.083  0.00  0.00    -0.001 C 
ATOM      3  C   UNL     1      -2.100   1.982  22.844  0.00  0.00    -0.000 C 
ATOM      4  C   UNL     1      -2.652   2.229  23.406  0.00  0.00    -0.001 C 
ATOM      5  C   UNL     1      -2.851   2.228  22.605  0.00  0.00    -0.000 C 
ATOM      6  C   UNL     1      -3.402   2.475  23.167  0.00  0.00    +0.002 C 
ATOM      7  C   UNL     1      -3.954   2.722  23.728  0.00  0.00    +0.022 C 
ATOM      8  C   UNL     1      -3.755   2.723  24.530  0.00  0.00    +0.097 C 
ATOM     15  C   UNL     1      -3.004   2.477  24.768  0.00  0.00    +0.019 C 
ATOM     16  C   UNL     1      -2.806   2.479  25.569  0.00  0.00    +0.002 C 
ATOM     17  C   UNL     1      -2.453   2.230  24.206  0.00  0.00    +0.045 C 
ATOM     18  C   UNL     1      -1.703   1.985  24.445  0.00  0.00    +0.145 C 
ATOM     19  O   UNL     1      -1.503   1.986  25.246  0.00  0.00    -0.224 OA
ENDROOT
BRANCH   8   9
ATOM      9  N   UNL     1      -4.306   2.970  25.091  0.00  0.00    -0.189 NA
ATOM     10  C   UNL     1      -5.021   2.565  25.173  0.00  0.00    +0.339 C 
ATOM     11  O   UNL     1      -5.184   1.913  24.693  0.00  0.00    -0.249 OA
ATOM     12  N   UNL     1      -5.572   2.812  25.735  0.00  0.00    -0.187 NA
BRANCH  12  13
ATOM     13  C   UNL     1      -6.287   2.407  25.817  0.00  0.00    +0.117 C 
ATOM     14  C   UNL     1      -6.524   2.136  26.559  0.00  0.00    +0.025 C 
ENDBRANCH  12  13
ENDBRANCH   8   9
BRANCH   1  20
ATOM     20  C   UNL     1      -0.400   1.492  24.122  0.00  0.00    +0.077 C 
ATOM     21  C   UNL     1       0.103   2.021  24.507  0.00  0.00    +0.009 C 
BRANCH  20  22
ATOM     22  C   UNL     1      -0.153   0.719  23.978  0.00  0.00    +0.241 C 
ATOM     23  O   UNL     1       0.408   0.568  23.392  0.00  0.00    -0.273 OA
ATOM     24  N   UNL     1      -0.467   0.096  24.419  0.00  0.00    -0.197 NA
BRANCH  24  25
ATOM     25  C   UNL     1      -0.219  -0.677  24.275  0.00  0.00    +0.179 C 
BRANCH  25  26
ATOM     26  C   UNL     1      -0.677  -1.313  24.534  0.00  0.00    +0.145 A 
ATOM     27  C   UNL     1      -0.685  -1.626  25.297  0.00  0.00    +0.038 A 
ATOM     28  C   UNL     1      -1.220  -2.253  25.310  0.00  0.00    +0.043 A 
ATOM     29  C   UNL     1      -1.544  -2.328  24.554  0.00  0.00    +0.179 A 
ATOM     30  O   UNL     1      -1.207  -1.747  24.075  0.00  0.00    -0.453 OA
ENDBRANCH  25  26
ENDBRANCH  24  25
ENDBRANCH  20  22
ENDBRANCH   1  20
TORSDOF 6
ENDMDL
MODEL 10
REMARK VINA RESULT:      -9.4      3.526      5.343
REMARK  Name = 
REMARK  6 active torsions:
REMARK  status: ('A' for Active; 'I' for Inactive)
REMARK    1  A    between atoms: C_2  and  C_22
REMARK    2  A    between atoms: C_9  and  N_10
REMARK    3  A    between atoms: N_13  and  C_14
REMARK    4  A    between atoms: C_22  and  C_24
REMARK    5  A    between atoms: N_26  and  C_27
REMARK    6  A    between atoms: C_27  and  C_28
REMARK                            x       y       z     vdW  Elec       q    Type
REMARK                         _______ _______ _______ _____ _____    ______ ____
ROOT
ATOM      1  C   UNL     1      -0.100   0.853  23.986  0.00  0.00    +0.052 C 
ATOM      2  C   UNL     1       0.365   1.484  24.243  0.00  0.00    -0.001 C 
ATOM      3  C   UNL     1       0.011   2.194  24.465  0.00  0.00    -0.000 C 
ATOM      4  C   UNL     1      -0.810   2.274  24.430  0.00  0.00    -0.001 C 
ATOM      5  C   UNL     1      -0.344   2.905  24.688  0.00  0.00    -0.000 C 
ATOM      6  C   UNL     1      -1.165   2.986  24.653  0.00  0.00    +0.002 C 
ATOM      7  C   UNL     1      -1.985   3.066  24.618  0.00  0.00    +0.022 C 
ATOM      8  C   UNL     1      -2.451   2.435  24.360  0.00  0.00    +0.097 C 
ATOM     15  C   UNL     1      -2.096   1.724  24.138  0.00  0.00    +0.019 C 
ATOM     16  C   UNL     1      -2.562   1.094  23.881  0.00  0.00    +0.002 C 
ATOM     17  C   UNL     1      -1.275   1.644  24.173  0.00  0.00    +0.045 C 
ATOM     18  C   UNL     1      -0.921   0.934  23.951  0.00  0.00    +0.145 C 
ATOM     19  O   UNL     1      -1.386   0.302  23.693  0.00  0.00    -0.224 OA
ENDROOT
BRANCH   8   9
ATOM      9  N   UNL     1      -3.270   2.515  24.325  0.00  0.00    -0.189 NA
ATOM     10  C   UNL     1      -3.673   2.907  24.930  0.00  0.00    +0.339 C 
ATOM     11  O   UNL     1      -3.255   3.219  25.570  0.00  0.00    -0.249 OA
ATOM     12  N   UNL     1      -4.494   2.987  24.895  0.00  0.00    -0.187 NA
BRANCH  12  13
ATOM     13  C   UNL     1      -4.895   3.379  25.500  0.00  0.00    +0.117 C 
ATOM     14  C   UNL     1      -5.706   3.263  25.599  0.00  0.00    +0.025 C 
ENDBRANCH  12  13
ENDBRANCH   8   9
BRANCH   1  20
ATOM     20  C   UNL     1       0.255   0.142  23.763  0.00  0.00    +0.077 C 
ATOM     21  C   UNL     1       0.090  -0.549  24.182  0.00  0.00    +0.009 C 
BRANCH  20  22
ATOM     22  C   UNL     1       0.773   0.122  23.123  0.00  0.00    +0.241 C 
ATOM     23  O   UNL     1       0.477   0.079  22.353  0.00  0.00    -0.273 OA
ATOM     24  N   UNL     1       1.588   0.144  23.250  0.00  0.00    -0.197 NA
BRANCH  24  25
ATOM     25  C   UNL     1       2.107   0.124  22.610  0.00  0.00    +0.179 C 
BRANCH  25  26
ATOM     26  C   UNL     1       2.919   0.206  22.732  0.00  0.00    +0.145 A 
ATOM     27  C   UNL     1       3.366   0.882  22.580  0.00  0.00    +0.038 A 
ATOM     28  C   UNL     1       4.149   0.720  22.783  0.00  0.00    +0.043 A 
ATOM     29  C   UNL     1       4.186  -0.056  23.060  0.00  0.00    +0.179 A 
ATOM     30  O   UNL     1       3.425  -0.374  23.029  0.00  0.00    -0.453 OA
ENDBRANCH  25  26
ENDBRANCH  24  25
ENDBRANCH  20  22
ENDBRANCH   1  20
TORSDOF 6
ENDMDL
