MODEL 1
REMARK VINA RESULT:     -12.8      0.000      0.000
REMARK  Name = 
REMARK  6 active torsions:
REMARK  status: ('A' for Active; 'I' for Inactive)
REMARK    1  A    between atoms: C_5  and  C_6
REMARK    2  A    between atoms: C_6  and  N_7
REMARK    3  A    between atoms: C_12  and  C_13
REMARK    4  A    between atoms: C_15  and  C_18
REMARK    5  A    between atoms: C_21  and  O_22
REMARK    6  A    between atoms: O_22  and  C_23
REMARK                            x       y       z     vdW  Elec       q    Type
REMARK                         _______ _______ _______ _____ _____    ______ ____
ROOT
ATOM     13  C   UNL     1      -4.332   1.731  24.687  0.00  0.00    +0.251 A 
ATOM     14  N   UNL     1      -4.242   1.010  25.078  0.00  0.00    -0.190 NA
ATOM     15  C   UNL     1      -4.085   0.431  24.513  0.00  0.00    +0.203 A 
ATOM     16  N   UNL     1      -4.079   0.793  23.772  0.00  0.00    -0.056 NA
ATOM     17  O   UNL     1      -4.232   1.596  23.879  0.00  0.00    -0.336 OA
ENDROOT
BRANCH  13  12
ATOM      7  N   UNL     1      -3.937   2.995  25.323  0.00  0.00    -0.260 NA
ATOM      8  C   UNL     1      -4.341   3.645  25.632  0.00  0.00    +0.106 C 
ATOM      9  C   UNL     1      -5.150   3.509  25.540  0.00  0.00    +0.170 C 
ATOM     10  O   UNL     1      -5.756   4.017  25.773  0.00  0.00    -0.222 OA
ATOM     11  C   UNL     1      -5.245   2.775  25.175  0.00  0.00    +0.060 C 
ATOM     12  C   UNL     1      -4.495   2.458  25.041  0.00  0.00    +0.140 C 
BRANCH   7   6
ATOM      6  C   UNL     1      -3.118   2.900  25.300  0.00  0.00    +0.100 C 
BRANCH   6   5
ATOM      1  C   UNL     1      -1.155   5.542  25.060  0.00  0.00    +0.031 C 
ATOM      2  C   UNL     1      -1.646   4.882  25.120  0.00  0.00    -0.022 A 
ATOM      3  C   UNL     1      -1.969   4.545  24.440  0.00  0.00    -0.005 A 
ATOM      4  C   UNL     1      -2.460   3.884  24.500  0.00  0.00    -0.003 A 
ATOM      5  C   UNL     1      -2.627   3.561  25.241  0.00  0.00    -0.006 A 
ATOM     29  C   UNL     1      -2.304   3.898  25.921  0.00  0.00    -0.003 A 
ATOM     30  C   UNL     1      -1.813   4.558  25.860  0.00  0.00    -0.005 A 
ENDBRANCH   6   5
ENDBRANCH   7   6
ENDBRANCH  13  12
BRANCH  15  18
ATOM     18  C   UNL     1      -3.957  -0.371  24.662  0.00  0.00    +0.039 A 
ATOM     19  C   UNL     1      -3.570  -0.605  25.352  0.00  0.00    +0.006 A 
ATOM     20  C   UNL     1      -3.442  -1.406  25.501  0.00  0.00    +0.037 A 
ATOM     21  C   UNL     1      -3.701  -1.973  24.961  0.00  0.00    +0.147 A 
ATOM     27  C   UNL     1      -4.088  -1.739  24.271  0.00  0.00    +0.037 A 
ATOM     28  C   UNL     1      -4.216  -0.938  24.121  0.00  0.00    +0.006 A 
BRANCH  21  22
ATOM     22  O   UNL     1      -3.573  -2.775  25.110  0.00  0.00    -0.404 OA
BRANCH  22  23
ATOM     23  C   UNL     1      -3.156  -3.234  24.566  0.00  0.00    +0.575 C 
ATOM     24  F   UNL     1      -2.740  -3.693  24.021  0.00  0.00    -0.133 F 
ATOM     25  F   UNL     1      -3.868  -3.497  24.243  0.00  0.00    -0.133 F 
ATOM     26  F   UNL     1      -2.443  -2.971  24.888  0.00  0.00    -0.133 F 
ENDBRANCH  22  23
ENDBRANCH  21  22
ENDBRANCH  15  18
TORSDOF 6
ENDMDL
MODEL 2
REMARK VINA RESULT:     -12.1      2.218      2.833
REMARK  Name = 
REMARK  6 active torsions:
REMARK  status: ('A' for Active; 'I' for Inactive)
REMARK    1  A    between atoms: C_5  and  C_6
REMARK    2  A    between atoms: C_6  and  N_7
REMARK    3  A    between atoms: C_12  and  C_13
REMARK    4  A    between atoms: C_15  and  C_18
REMARK    5  A    between atoms: C_21  and  O_22
REMARK    6  A    between atoms: O_22  and  C_23
REMARK                            x       y       z     vdW  Elec       q    Type
REMARK                         _______ _______ _______ _____ _____    ______ ____
ROOT
ATOM     13  C   UNL     1      -0.829   1.099  25.174  0.00  0.00    +0.251 A 
ATOM     14  N   UNL     1      -1.473   0.631  25.394  0.00  0.00    -0.190 NA
ATOM     15  C   UNL     1      -1.620   0.096  24.784  0.00  0.00    +0.203 A 
ATOM     16  N   UNL     1      -1.067   0.232  24.188  0.00  0.00    -0.056 NA
ATOM     17  O   UNL     1      -0.579   0.851  24.428  0.00  0.00    -0.336 OA
ENDROOT
BRANCH  13  12
ATOM      7  N   UNL     1      -0.647   2.511  25.535  0.00  0.00    -0.260 NA
ATOM      8  C   UNL     1      -0.197   2.918  26.094  0.00  0.00    +0.106 C 
ATOM      9  C   UNL     1       0.233   2.363  26.527  0.00  0.00    +0.170 C 
ATOM     10  O   UNL     1       0.755   2.528  27.143  0.00  0.00    -0.222 OA
ATOM     11  C   UNL     1       0.048   1.614  26.235  0.00  0.00    +0.060 C 
ATOM     12  C   UNL     1      -0.496   1.706  25.621  0.00  0.00    +0.140 C 
BRANCH   7   6
ATOM      6  C   UNL     1      -1.159   2.852  24.984  0.00  0.00    +0.100 C 
BRANCH   6   5
ATOM      1  C   UNL     1      -1.779   6.091  25.090  0.00  0.00    +0.031 C 
ATOM      2  C   UNL     1      -1.624   5.282  25.064  0.00  0.00    -0.022 A 
ATOM      3  C   UNL     1      -0.938   5.005  24.700  0.00  0.00    -0.005 A 
ATOM      4  C   UNL     1      -0.782   4.195  24.673  0.00  0.00    -0.003 A 
ATOM      5  C   UNL     1      -1.315   3.662  25.011  0.00  0.00    -0.006 A 
ATOM     29  C   UNL     1      -2.001   3.939  25.375  0.00  0.00    -0.003 A 
ATOM     30  C   UNL     1      -2.156   4.749  25.401  0.00  0.00    -0.005 A 
ENDBRANCH   6   5
ENDBRANCH   7   6
ENDBRANCH  13  12
BRANCH  15  18
ATOM     18  C   UNL     1      -2.215  -0.475  24.773  0.00  0.00    +0.039 A 
ATOM     19  C   UNL     1      -2.020  -1.275  24.831  0.00  0.00    +0.006 A 
ATOM     20  C   UNL     1      -2.615  -1.846  24.820  0.00  0.00    +0.037 A 
ATOM     21  C   UNL     1      -3.405  -1.618  24.751  0.00  0.00    +0.147 A 
ATOM     27  C   UNL     1      -3.600  -0.819  24.694  0.00  0.00    +0.037 A 
ATOM     28  C   UNL     1      -3.005  -0.247  24.705  0.00  0.00    +0.006 A 
BRANCH  21  22
ATOM     22  O   UNL     1      -4.000  -2.190  24.740  0.00  0.00    -0.404 OA
BRANCH  22  23
ATOM     23  C   UNL     1      -4.250  -2.510  24.022  0.00  0.00    +0.575 C 
ATOM     24  F   UNL     1      -4.501  -2.830  23.304  0.00  0.00    -0.133 F 
ATOM     25  F   UNL     1      -4.754  -1.867  23.910  0.00  0.00    -0.133 F 
ATOM     26  F   UNL     1      -3.747  -3.155  24.134  0.00  0.00    -0.133 F 
ENDBRANCH  22  23
ENDBRANCH  21  22
ENDBRANCH  15  18
TORSDOF 6
ENDMDL
MODEL 3
REMARK VINA RESULT:     -11.3      3.628      6.344
REMARK  Name = 
REMARK  6 active torsions:
REMARK  status: ('A' for Active; 'I' for Inactive)
REMARK    1  A    between atoms: C_5  and  C_6
REMARK    2  A    between atoms: C_6  and  N_7
REMARK    3  A    between atoms: C_12  and  C_13
REMARK    4  A    between atoms: C_15  and  C_18
REMARK    5  A    between atoms: C_21  and  O_22
REMARK    6  A    between atoms: O_22  and  C_23
REMARK                            x       y       z     vdW  Elec       q    Type
REMARK                         _______ _______ _______ _____ _____    ______ ____
ROOT
ATOM     13  C   UNL     1      -0.817   0.733  25.209  0.00  0.00    +0.251 A 
ATOM     14  N   UNL     1      -1.062   1.477  24.946  0.00  0.00    -0.190 NA
ATOM     15  C   UNL     1      -1.046   1.992  25.589  0.00  0.00    +0.203 A 
ATOM     16  N   UNL     1      -0.792   1.569  26.249  0.00  0.00    -0.056 NA
ATOM     17  O   UNL     1      -0.651   0.792  26.015  0.00  0.00    -0.336 OA
ENDROOT
BRANCH  13  12
ATOM      7  N   UNL     1      -1.311  -0.549  24.689  0.00  0.00    -0.260 NA
ATOM      8  C   UNL     1      -1.021  -1.119  24.169  0.00  0.00    +0.106 C 
ATOM      9  C   UNL     1      -0.281  -0.869  23.904  0.00  0.00    +0.170 C 
ATOM     10  O   UNL     1       0.207  -1.272  23.376  0.00  0.00    -0.222 OA
ATOM     11  C   UNL     1      -0.114  -0.144  24.262  0.00  0.00    +0.060 C 
ATOM     12  C   UNL     1      -0.752   0.053  24.747  0.00  0.00    +0.140 C 
BRANCH   7   6
ATOM      6  C   UNL     1      -2.036  -0.577  25.083  0.00  0.00    +0.100 C 
BRANCH   6   5
ATOM      1  C   UNL     1      -4.463  -2.499  23.941  0.00  0.00    +0.031 C 
ATOM      2  C   UNL     1      -3.857  -2.019  24.226  0.00  0.00    -0.022 A 
ATOM      3  C   UNL     1      -3.805  -1.232  23.984  0.00  0.00    -0.005 A 
ATOM      4  C   UNL     1      -3.198  -0.751  24.269  0.00  0.00    -0.003 A 
ATOM      5  C   UNL     1      -2.643  -1.058  24.798  0.00  0.00    -0.006 A 
ATOM     29  C   UNL     1      -2.695  -1.845  25.040  0.00  0.00    -0.003 A 
ATOM     30  C   UNL     1      -3.302  -2.325  24.754  0.00  0.00    -0.005 A 
ENDBRANCH   6   5
ENDBRANCH   7   6
ENDBRANCH  13  12
BRANCH  15  18
ATOM     18  C   UNL     1      -1.248   2.792  25.574  0.00  0.00    +0.039 A 
ATOM     19  C   UNL     1      -2.015   3.027  25.767  0.00  0.00    +0.006 A 
ATOM     20  C   UNL     1      -2.218   3.827  25.753  0.00  0.00    +0.037 A 
ATOM     21  C   UNL     1      -1.653   4.391  25.545  0.00  0.00    +0.147 A 
ATOM     27  C   UNL     1      -0.886   4.157  25.352  0.00  0.00    +0.037 A 
ATOM     28  C   UNL     1      -0.684   3.357  25.366  0.00  0.00    +0.006 A 
BRANCH  21  22
ATOM     22  O   UNL     1      -1.856   5.191  25.530  0.00  0.00    -0.404 OA
BRANCH  22  23
ATOM     23  C   UNL     1      -1.669   5.652  24.871  0.00  0.00    +0.575 C 
ATOM     24  F   UNL     1      -1.482   6.112  24.213  0.00  0.00    -0.133 F 
ATOM     25  F   UNL     1      -0.969   5.891  25.236  0.00  0.00    -0.133 F 
ATOM     26  F   UNL     1      -2.369   5.413  24.505  0.00  0.00    -0.133 F 
ENDBRANCH  22  23
ENDBRANCH  21  22
ENDBRANCH  15  18
TORSDOF 6
ENDMDL
MODEL 4
REMARK VINA RESULT:     -11.3      2.996      5.506
REMARK  Name = 
REMARK  6 active torsions:
REMARK  status: ('A' for Active; 'I' for Inactive)
REMARK    1  A    between atoms: C_5  and  C_6
REMARK    2  A    between atoms: C_6  and  N_7
REMARK    3  A    between atoms: C_12  and  C_13
REMARK    4  A    between atoms: C_15  and  C_18
REMARK    5  A    between atoms: C_21  and  O_22
REMARK    6  A    between atoms: O_22  and  C_23
REMARK                            x       y       z     vdW  Elec       q    Type
REMARK                         _______ _______ _______ _____ _____    ______ ____
ROOT
ATOM     13  C   UNL     1      -4.411   2.717  25.543  0.00  0.00    +0.251 A 
ATOM     14  N   UNL     1      -3.694   2.905  25.180  0.00  0.00    -0.190 NA
ATOM     15  C   UNL     1      -3.307   3.459  25.653  0.00  0.00    +0.203 A 
ATOM     16  N   UNL     1      -3.785   3.614  26.307  0.00  0.00    -0.056 NA
ATOM     17  O   UNL     1      -4.467   3.156  26.239  0.00  0.00    -0.336 OA
ENDROOT
BRANCH  13  12
ATOM      7  N   UNL     1      -4.830   1.406  25.029  0.00  0.00    -0.260 NA
ATOM      8  C   UNL     1      -5.545   1.077  24.781  0.00  0.00    +0.106 C 
ATOM      9  C   UNL     1      -6.131   1.654  24.858  0.00  0.00    +0.170 C 
ATOM     10  O   UNL     1      -6.929   1.561  24.672  0.00  0.00    -0.222 OA
ATOM     11  C   UNL     1      -5.777   2.338  25.152  0.00  0.00    +0.060 C 
ATOM     12  C   UNL     1      -4.973   2.185  25.258  0.00  0.00    +0.140 C 
BRANCH   7   6
ATOM      6  C   UNL     1      -4.100   1.023  25.044  0.00  0.00    +0.100 C 
BRANCH   6   5
ATOM      1  C   UNL     1      -3.889  -2.160  24.198  0.00  0.00    +0.031 C 
ATOM      2  C   UNL     1      -3.942  -1.365  24.409  0.00  0.00    -0.022 A 
ATOM      3  C   UNL     1      -4.003  -1.153  25.204  0.00  0.00    -0.005 A 
ATOM      4  C   UNL     1      -4.055  -0.357  25.416  0.00  0.00    -0.003 A 
ATOM      5  C   UNL     1      -4.047   0.227  24.832  0.00  0.00    -0.006 A 
ATOM     29  C   UNL     1      -3.987   0.014  24.038  0.00  0.00    -0.003 A 
ATOM     30  C   UNL     1      -3.934  -0.782  23.827  0.00  0.00    -0.005 A 
ENDBRANCH   6   5
ENDBRANCH   7   6
ENDBRANCH  13  12
BRANCH  15  18
ATOM     18  C   UNL     1      -2.571   3.799  25.499  0.00  0.00    +0.039 A 
ATOM     19  C   UNL     1      -2.520   4.597  25.294  0.00  0.00    +0.006 A 
ATOM     20  C   UNL     1      -1.784   4.937  25.140  0.00  0.00    +0.037 A 
ATOM     21  C   UNL     1      -1.100   4.479  25.190  0.00  0.00    +0.147 A 
ATOM     27  C   UNL     1      -1.150   3.682  25.395  0.00  0.00    +0.037 A 
ATOM     28  C   UNL     1      -1.887   3.342  25.550  0.00  0.00    +0.006 A 
BRANCH  21  22
ATOM     22  O   UNL     1      -0.364   4.819  25.036  0.00  0.00    -0.404 OA
BRANCH  22  23
ATOM     23  C   UNL     1      -0.164   5.037  24.266  0.00  0.00    +0.575 C 
ATOM     24  F   UNL     1       0.036   5.256  23.496  0.00  0.00    -0.133 F 
ATOM     25  F   UNL     1      -0.325   5.825  24.447  0.00  0.00    -0.133 F 
ATOM     26  F   UNL     1      -0.002   4.248  24.084  0.00  0.00    -0.133 F 
ENDBRANCH  22  23
ENDBRANCH  21  22
ENDBRANCH  15  18
TORSDOF 6
ENDMDL
MODEL 5
REMARK VINA RESULT:     -11.1      3.374      5.882
REMARK  Name = 
REMARK  6 active torsions:
REMARK  status: ('A' for Active; 'I' for Inactive)
REMARK    1  A    between atoms: C_5  and  C_6
REMARK    2  A    between atoms: C_6  and  N_7
REMARK    3  A    between atoms: C_12  and  C_13
REMARK    4  A    between atoms: C_15  and  C_18
REMARK    5  A    between atoms: C_21  and  O_22
REMARK    6  A    between atoms: O_22  and  C_23
REMARK                            x       y       z     vdW  Elec       q    Type
REMARK                         _______ _______ _______ _____ _____    ______ ____
ROOT
ATOM     13  C   UNL     1      -0.765   1.254  24.852  0.00  0.00    +0.251 A 
ATOM     14  N   UNL     1      -1.491   1.620  24.713  0.00  0.00    -0.190 NA
ATOM     15  C   UNL     1      -1.576   2.233  25.257  0.00  0.00    +0.203 A 
ATOM     16  N   UNL     1      -0.903   2.247  25.733  0.00  0.00    -0.056 NA
ATOM     17  O   UNL     1      -0.402   1.642  25.483  0.00  0.00    -0.336 OA
ENDROOT
BRANCH  13  12
ATOM      7  N   UNL     1      -0.644  -0.180  24.555  0.00  0.00    -0.260 NA
ATOM      8  C   UNL     1      -0.210  -0.631  24.017  0.00  0.00    +0.106 C 
ATOM      9  C   UNL     1       0.246  -0.115  23.563  0.00  0.00    +0.170 C 
ATOM     10  O   UNL     1       0.763  -0.330  22.958  0.00  0.00    -0.222 OA
ATOM     11  C   UNL     1       0.094   0.654  23.820  0.00  0.00    +0.060 C 
ATOM     12  C   UNL     1      -0.456   0.614  24.434  0.00  0.00    +0.140 C 
BRANCH   7   6
ATOM      6  C   UNL     1      -1.173  -0.472  25.116  0.00  0.00    +0.100 C 
BRANCH   6   5
ATOM      1  C   UNL     1      -3.118  -3.033  24.374  0.00  0.00    +0.031 C 
ATOM      2  C   UNL     1      -2.632  -2.393  24.560  0.00  0.00    -0.022 A 
ATOM      3  C   UNL     1      -2.927  -1.624  24.513  0.00  0.00    -0.005 A 
ATOM      4  C   UNL     1      -2.441  -0.984  24.699  0.00  0.00    -0.003 A 
ATOM      5  C   UNL     1      -1.660  -1.113  24.931  0.00  0.00    -0.006 A 
ATOM     29  C   UNL     1      -1.365  -1.882  24.977  0.00  0.00    -0.003 A 
ATOM     30  C   UNL     1      -1.852  -2.522  24.791  0.00  0.00    -0.005 A 
ENDBRANCH   6   5
ENDBRANCH   7   6
ENDBRANCH  13  12
BRANCH  15  18
ATOM     18  C   UNL     1      -2.222   2.744  25.316  0.00  0.00    +0.039 A 
ATOM     19  C   UNL     1      -2.893   2.614  24.853  0.00  0.00    +0.006 A 
ATOM     20  C   UNL     1      -3.539   3.125  24.912  0.00  0.00    +0.037 A 
ATOM     21  C   UNL     1      -3.513   3.764  25.433  0.00  0.00    +0.147 A 
ATOM     27  C   UNL     1      -2.843   3.893  25.895  0.00  0.00    +0.037 A 
ATOM     28  C   UNL     1      -2.197   3.383  25.837  0.00  0.00    +0.006 A 
BRANCH  21  22
ATOM     22  O   UNL     1      -4.159   4.275  25.491  0.00  0.00    -0.404 OA
BRANCH  22  23
ATOM     23  C   UNL     1      -4.925   3.969  25.512  0.00  0.00    +0.575 C 
ATOM     24  F   UNL     1      -5.691   3.664  25.531  0.00  0.00    -0.133 F 
ATOM     25  F   UNL     1      -5.015   4.141  24.710  0.00  0.00    -0.133 F 
ATOM     26  F   UNL     1      -4.836   3.797  26.314  0.00  0.00    -0.133 F 
ENDBRANCH  22  23
ENDBRANCH  21  22
ENDBRANCH  15  18
TORSDOF 6
ENDMDL
