REMARK  Name = 
REMARK  4 active torsions:
REMARK  status: ('A' for Active; 'I' for Inactive)
REMARK    1  A    between atoms: C_5  and  N_6
REMARK    2  A    between atoms: C_18  and  C_23
REMARK    3  A    between atoms: C_26  and  O_27
REMARK    4  A    between atoms: O_27  and  C_28
REMARK                            x       y       z     vdW  Elec       q    Type
REMARK                         _______ _______ _______ _____ _____    ______ ____
ROOT
ATOM      6  N   UNL     1       0.176  -3.370   0.000  0.00  0.00    -0.162 NA
ATOM      7  C   UNL     1       0.125  -2.547   0.000  0.00  0.00    +0.327 C 
ATOM      8  O   UNL     1      -0.614  -2.179   0.000  0.00  0.00    -0.250 OA
ATOM      9  N   UNL     1       0.813  -2.091   0.000  0.00  0.00    -0.262 N 
ATOM     10  C   UNL     1       1.629  -1.912   0.000  0.00  0.00    +0.097 C 
ATOM     11  C   UNL     1       1.582  -0.925   0.000  0.00  0.00    +0.043 C 
ATOM     12  C   UNL     1       1.713  -0.121   0.000  0.00  0.00    +0.011 C 
ATOM     13  C   UNL     1       1.163  -0.557   0.000  0.00  0.00    +0.058 C 
ATOM     14  C   UNL     1       1.225  -1.510   0.000  0.00  0.00    +0.101 C 
ATOM     15  C   UNL     1       0.244  -0.558   0.000  0.00  0.00    +0.041 A 
ATOM     16  C   UNL     1      -0.397  -0.039   0.000  0.00  0.00    +0.013 A 
ATOM     17  C   UNL     1      -1.167  -0.335   0.000  0.00  0.00    +0.006 A 
ATOM     18  C   UNL     1      -1.296  -1.150   0.000  0.00  0.00    +0.056 A 
ATOM     19  C   UNL     1      -0.655  -1.669   0.000  0.00  0.00    +0.261 A 
ATOM     20  O   UNL     1      -1.029  -2.404   0.000  0.00  0.00    -0.267 OA
ATOM     21  N   UNL     1       0.115  -1.373   0.000  0.00  0.00    -0.299 N 
ATOM     22  C   UNL     1       0.622  -0.936   0.000  0.00  0.00    +0.110 C 
ENDROOT
BRANCH   6   5
ATOM      1  C   UNL     1      -2.575  -5.193   0.000  0.00  0.00    +0.031 C 
ATOM      2  C   UNL     1      -1.888  -4.737   0.000  0.00  0.00    -0.022 A 
ATOM      3  C   UNL     1      -1.938  -3.914   0.000  0.00  0.00    -0.003 A 
ATOM      4  C   UNL     1      -1.251  -3.458   0.000  0.00  0.00    +0.016 A 
ATOM      5  C   UNL     1      -0.512  -3.826   0.000  0.00  0.00    +0.075 A 
ATOM     34  C   UNL     1      -0.461  -4.650   0.000  0.00  0.00    +0.016 A 
ATOM     35  C   UNL     1      -1.149  -5.105   0.000  0.00  0.00    -0.003 A 
ENDBRANCH   6   5
BRANCH  18  23
ATOM     23  C   UNL     1      -2.066  -1.445   0.000  0.00  0.00    +0.005 A 
ATOM     24  C   UNL     1      -2.195  -2.260   0.000  0.00  0.00    +0.003 A 
ATOM     25  C   UNL     1      -2.965  -2.556   0.000  0.00  0.00    +0.037 A 
ATOM     26  C   UNL     1      -3.606  -2.037   0.000  0.00  0.00    +0.147 A 
ATOM     32  C   UNL     1      -3.478  -1.222   0.000  0.00  0.00    +0.037 A 
ATOM     33  C   UNL     1      -2.707  -0.926   0.000  0.00  0.00    +0.003 A 
BRANCH  26  27
ATOM     27  O   UNL     1      -4.377  -2.333   0.000  0.00  0.00    -0.404 OA
BRANCH  27  28
ATOM     28  C   UNL     1      -4.505  -3.147   0.000  0.00  0.00    +0.575 C 
ATOM     29  F   UNL     1      -4.635  -3.962   0.000  0.00  0.00    -0.133 F 
ATOM     30  F   UNL     1      -5.320  -3.018   0.000  0.00  0.00    -0.133 F 
ATOM     31  F   UNL     1      -3.691  -3.276   0.000  0.00  0.00    -0.133 F 
ENDBRANCH  27  28
ENDBRANCH  26  27
ENDBRANCH  18  23
TORSDOF 4
