MODEL 1
REMARK VINA RESULT:     -12.9      0.000      0.000
REMARK  Name = 
REMARK  3 active torsions:
REMARK  status: ('A' for Active; 'I' for Inactive)
REMARK    1  A    between atoms: C_7  and  C_9
REMARK    2  A    between atoms: N_12  and  C_13
REMARK    3  A    between atoms: C_13  and  C_14
REMARK                            x       y       z     vdW  Elec       q    Type
REMARK                         _______ _______ _______ _____ _____    ______ ____
ROOT
ATOM      9  C   UNL     1      -4.372   0.979  24.721  0.00  0.00    +0.094 C 
ATOM     10  C   UNL     1      -5.052   1.332  25.027  0.00  0.00    +0.028 C 
ATOM     11  C   UNL     1      -4.979   2.149  24.939  0.00  0.00    +0.073 C 
ATOM     12  N   UNL     1      -4.254   2.301  24.578  0.00  0.00    -0.268 NA
ATOM     21  C   UNL     1      -3.879   1.579  24.443  0.00  0.00    +0.082 C 
ENDROOT
BRANCH   9   7
ATOM      1  F   UNL     1      -3.235  -3.136  25.354  0.00  0.00    -0.204 F 
ATOM      2  C   UNL     1      -3.534  -2.456  24.996  0.00  0.00    +0.142 A 
ATOM      3  C   UNL     1      -3.509  -1.735  25.396  0.00  0.00    +0.052 A 
ATOM      4  C   UNL     1      -3.808  -1.054  25.038  0.00  0.00    +0.121 A 
ATOM      5  C   UNL     1      -4.132  -1.095  24.281  0.00  0.00    +0.165 A 
ATOM      6  O   UNL     1      -4.383  -0.339  24.070  0.00  0.00    -0.438 OA
ATOM      7  C   UNL     1      -4.214   0.170  24.697  0.00  0.00    +0.207 A 
ATOM      8  N   UNL     1      -3.859  -0.273  25.295  0.00  0.00    -0.212 NA
ATOM     22  C   UNL     1      -4.158  -1.817  23.881  0.00  0.00    +0.041 A 
ATOM     23  C   UNL     1      -3.858  -2.497  24.239  0.00  0.00    +0.033 A 
ENDBRANCH   9   7
BRANCH  12  13
ATOM     13  C   UNL     1      -3.955   3.046  24.385  0.00  0.00    +0.101 C 
BRANCH  13  14
ATOM     14  C   UNL     1      -3.456   3.440  24.911  0.00  0.00    +0.021 A 
ATOM     15  C   UNL     1      -3.725   3.639  25.666  0.00  0.00    -0.001 A 
ATOM     16  C   UNL     1      -3.226   4.032  26.191  0.00  0.00    -0.000 A 
ATOM     17  C   UNL     1      -2.458   4.227  25.963  0.00  0.00    +0.002 A 
ATOM     18  C   UNL     1      -2.188   4.028  25.209  0.00  0.00    +0.029 A 
ATOM     19  C   UNL     1      -2.687   3.634  24.683  0.00  0.00    +0.137 A 
ATOM     20  F   UNL     1      -2.418   3.435  23.929  0.00  0.00    -0.204 F 
ENDBRANCH  13  14
ENDBRANCH  12  13
TORSDOF 3
ENDMDL
MODEL 2
REMARK VINA RESULT:     -12.8      1.359      5.049
REMARK  Name = 
REMARK  3 active torsions:
REMARK  status: ('A' for Active; 'I' for Inactive)
REMARK    1  A    between atoms: C_7  and  C_9
REMARK    2  A    between atoms: N_12  and  C_13
REMARK    3  A    between atoms: C_13  and  C_14
REMARK                            x       y       z     vdW  Elec       q    Type
REMARK                         _______ _______ _______ _____ _____    ______ ____
ROOT
ATOM      9  C   UNL     1      -3.428   1.891  24.800  0.00  0.00    +0.094 C 
ATOM     10  C   UNL     1      -4.036   1.827  24.247  0.00  0.00    +0.028 C 
ATOM     11  C   UNL     1      -4.435   1.119  24.385  0.00  0.00    +0.073 C 
ATOM     12  N   UNL     1      -4.074   0.744  25.025  0.00  0.00    -0.268 NA
ATOM     21  C   UNL     1      -3.451   1.221  25.281  0.00  0.00    +0.082 C 
ENDROOT
BRANCH   9   7
ATOM      1  F   UNL     1      -1.283   5.598  25.338  0.00  0.00    -0.204 F 
ATOM      2  C   UNL     1      -1.442   4.806  25.174  0.00  0.00    +0.142 A 
ATOM      3  C   UNL     1      -2.212   4.519  25.231  0.00  0.00    +0.052 A 
ATOM      4  C   UNL     1      -2.372   3.726  25.067  0.00  0.00    +0.121 A 
ATOM      5  C   UNL     1      -1.759   3.220  24.846  0.00  0.00    +0.165 A 
ATOM      6  O   UNL     1      -2.080   2.471  24.719  0.00  0.00    -0.438 OA
ATOM      7  C   UNL     1      -2.891   2.514  24.862  0.00  0.00    +0.207 A 
ATOM      8  N   UNL     1      -3.071   3.290  25.077  0.00  0.00    -0.212 NA
ATOM     22  C   UNL     1      -0.987   3.507  24.789  0.00  0.00    +0.041 A 
ATOM     23  C   UNL     1      -0.829   4.300  24.953  0.00  0.00    +0.033 A 
ENDBRANCH   9   7
BRANCH  12  13
ATOM     13  C   UNL     1      -4.295   0.020  25.351  0.00  0.00    +0.101 C 
BRANCH  13  14
ATOM     14  C   UNL     1      -4.056  -0.685  24.994  0.00  0.00    +0.021 A 
ATOM     15  C   UNL     1      -4.236  -0.828  24.201  0.00  0.00    -0.001 A 
ATOM     16  C   UNL     1      -3.996  -1.532  23.845  0.00  0.00    -0.000 A 
ATOM     17  C   UNL     1      -3.577  -2.094  24.280  0.00  0.00    +0.002 A 
ATOM     18  C   UNL     1      -3.397  -1.951  25.073  0.00  0.00    +0.029 A 
ATOM     19  C   UNL     1      -3.636  -1.246  25.430  0.00  0.00    +0.137 A 
ATOM     20  F   UNL     1      -3.457  -1.102  26.222  0.00  0.00    -0.204 F 
ENDBRANCH  13  14
ENDBRANCH  12  13
TORSDOF 3
ENDMDL
MODEL 3
REMARK VINA RESULT:     -12.5      0.795      1.156
REMARK  Name = 
REMARK  3 active torsions:
REMARK  status: ('A' for Active; 'I' for Inactive)
REMARK    1  A    between atoms: C_7  and  C_9
REMARK    2  A    between atoms: N_12  and  C_13
REMARK    3  A    between atoms: C_13  and  C_14
REMARK                            x       y       z     vdW  Elec       q    Type
REMARK                         _______ _______ _______ _____ _____    ______ ____
ROOT
ATOM      9  C   UNL     1      -3.564   0.966  24.058  0.00  0.00    +0.094 C 
ATOM     10  C   UNL     1      -3.195   1.326  23.415  0.00  0.00    +0.028 C 
ATOM     11  C   UNL     1      -3.276   2.143  23.498  0.00  0.00    +0.073 C 
ATOM     12  N   UNL     1      -3.696   2.287  24.193  0.00  0.00    -0.268 NA
ATOM     21  C   UNL     1      -3.874   1.559  24.539  0.00  0.00    +0.082 C 
ENDROOT
BRANCH   9   7
ATOM      1  F   UNL     1      -3.409  -3.110  25.470  0.00  0.00    -0.204 F 
ATOM      2  C   UNL     1      -3.573  -2.454  24.999  0.00  0.00    +0.142 A 
ATOM      3  C   UNL     1      -3.321  -1.705  25.232  0.00  0.00    +0.052 A 
ATOM      4  C   UNL     1      -3.485  -1.048  24.760  0.00  0.00    +0.121 A 
ATOM      5  C   UNL     1      -3.901  -1.142  24.054  0.00  0.00    +0.165 A 
ATOM      6  O   UNL     1      -3.982  -0.399  23.705  0.00  0.00    -0.438 OA
ATOM      7  C   UNL     1      -3.615   0.154  24.195  0.00  0.00    +0.207 A 
ATOM      8  N   UNL     1      -3.308  -0.248  24.847  0.00  0.00    -0.212 NA
ATOM     22  C   UNL     1      -4.154  -1.892  23.820  0.00  0.00    +0.041 A 
ATOM     23  C   UNL     1      -3.989  -2.548  24.292  0.00  0.00    +0.033 A 
ENDBRANCH   9   7
BRANCH  12  13
ATOM     13  C   UNL     1      -3.902   3.028  24.490  0.00  0.00    +0.101 C 
BRANCH  13  14
ATOM     14  C   UNL     1      -3.374   3.441  24.973  0.00  0.00    +0.021 A 
ATOM     15  C   UNL     1      -2.601   3.577  24.717  0.00  0.00    -0.001 A 
ATOM     16  C   UNL     1      -2.075   3.990  25.200  0.00  0.00    -0.000 A 
ATOM     17  C   UNL     1      -2.320   4.267  25.937  0.00  0.00    +0.002 A 
ATOM     18  C   UNL     1      -3.093   4.130  26.193  0.00  0.00    +0.029 A 
ATOM     19  C   UNL     1      -3.620   3.718  25.710  0.00  0.00    +0.137 A 
ATOM     20  F   UNL     1      -4.393   3.581  25.965  0.00  0.00    -0.204 F 
ENDBRANCH  13  14
ENDBRANCH  12  13
TORSDOF 3
ENDMDL
