MODEL 1
REMARK VINA RESULT:     -13.8      0.000      0.000
REMARK  Name = 
REMARK  6 active torsions:
REMARK  status: ('A' for Active; 'I' for Inactive)
REMARK    1  A    between atoms: C_4  and  C_8
REMARK    2  A    between atoms: C_11  and  C_13
REMARK    3  A    between atoms: N_18  and  C_19
REMARK    4  A    between atoms: C_19  and  C_20
REMARK    5  A    between atoms: C_24  and  O_25
REMARK    6  A    between atoms: O_25  and  C_26
REMARK                            x       y       z     vdW  Elec       q    Type
REMARK                         _______ _______ _______ _____ _____    ______ ____
ROOT
ATOM     13  C   UNL     1      -4.369   2.009  24.976  0.00  0.00    +0.140 C 
ATOM     14  C   UNL     1      -5.063   2.217  25.370  0.00  0.00    +0.060 C 
ATOM     15  C   UNL     1      -4.993   3.002  25.614  0.00  0.00    +0.170 C 
ATOM     16  O   UNL     1      -5.560   3.434  26.028  0.00  0.00    -0.222 OA
ATOM     17  C   UNL     1      -4.255   3.279  25.370  0.00  0.00    +0.106 C 
ATOM     18  N   UNL     1      -3.869   2.665  24.975  0.00  0.00    -0.260 NA
ENDROOT
BRANCH  13  11
ATOM      8  C   UNL     1      -3.941  -0.028  24.502  0.00  0.00    +0.203 A 
ATOM      9  N   UNL     1      -3.956   0.310  23.750  0.00  0.00    -0.056 NA
ATOM     10  O   UNL     1      -4.118   1.115  23.836  0.00  0.00    -0.336 OA
ATOM     11  C   UNL     1      -4.203   1.273  24.641  0.00  0.00    +0.251 A 
ATOM     12  N   UNL     1      -4.094   0.566  25.053  0.00  0.00    -0.190 NA
BRANCH   8   4
ATOM      1  C   UNL     1      -4.128  -2.788  23.781  0.00  0.00    +0.031 C 
ATOM      2  C   UNL     1      -3.892  -2.202  24.312  0.00  0.00    -0.022 A 
ATOM      3  C   UNL     1      -4.035  -1.408  24.141  0.00  0.00    -0.001 A 
ATOM      4  C   UNL     1      -3.799  -0.823  24.673  0.00  0.00    +0.039 A 
ATOM      5  C   UNL     1      -3.421  -1.032  25.376  0.00  0.00    +0.003 A 
ATOM      6  C   UNL     1      -3.278  -1.826  25.547  0.00  0.00    -0.000 A 
ATOM      7  C   UNL     1      -3.514  -2.412  25.016  0.00  0.00    -0.004 A 
ENDBRANCH   8   4
ENDBRANCH  13  11
BRANCH  18  19
ATOM     19  C   UNL     1      -3.117   2.702  24.640  0.00  0.00    +0.100 C 
BRANCH  19  20
ATOM     20  C   UNL     1      -2.535   3.175  24.983  0.00  0.00    -0.003 A 
ATOM     21  C   UNL     1      -2.495   3.979  24.798  0.00  0.00    -0.003 A 
ATOM     22  C   UNL     1      -1.913   4.452  25.141  0.00  0.00    +0.003 A 
ATOM     23  C   UNL     1      -1.371   4.123  25.668  0.00  0.00    +0.037 A 
ATOM     24  C   UNL     1      -1.410   3.320  25.853  0.00  0.00    +0.147 A 
ATOM     30  C   UNL     1      -1.993   2.846  25.510  0.00  0.00    +0.034 A 
BRANCH  24  25
ATOM     25  O   UNL     1      -0.868   2.990  26.381  0.00  0.00    -0.404 OA
BRANCH  25  26
ATOM     26  C   UNL     1      -0.219   2.570  26.095  0.00  0.00    +0.575 C 
ATOM     27  F   UNL     1       0.431   2.149  25.808  0.00  0.00    -0.133 F 
ATOM     28  F   UNL     1      -0.623   1.861  26.220  0.00  0.00    -0.133 F 
ATOM     29  F   UNL     1       0.185   3.278  25.969  0.00  0.00    -0.133 F 
ENDBRANCH  25  26
ENDBRANCH  24  25
ENDBRANCH  19  20
ENDBRANCH  18  19
TORSDOF 6
ENDMDL
MODEL 2
REMARK VINA RESULT:     -13.7      1.230      1.454
REMARK  Name = 
REMARK  6 active torsions:
REMARK  status: ('A' for Active; 'I' for Inactive)
REMARK    1  A    between atoms: C_4  and  C_8
REMARK    2  A    between atoms: C_11  and  C_13
REMARK    3  A    between atoms: N_18  and  C_19
REMARK    4  A    between atoms: C_19  and  C_20
REMARK    5  A    between atoms: C_24  and  O_25
REMARK    6  A    between atoms: O_25  and  C_26
REMARK                            x       y       z     vdW  Elec       q    Type
REMARK                         _______ _______ _______ _____ _____    ______ ____
ROOT
ATOM     13  C   UNL     1      -4.610   1.838  24.885  0.00  0.00    +0.140 C 
ATOM     14  C   UNL     1      -5.412   2.023  24.951  0.00  0.00    +0.060 C 
ATOM     15  C   UNL     1      -5.473   2.782  25.271  0.00  0.00    +0.170 C 
ATOM     16  O   UNL     1      -6.174   3.185  25.431  0.00  0.00    -0.222 OA
ATOM     17  C   UNL     1      -4.710   3.065  25.403  0.00  0.00    +0.106 C 
ATOM     18  N   UNL     1      -4.176   2.481  25.164  0.00  0.00    -0.260 NA
ENDROOT
BRANCH  13  11
ATOM      8  C   UNL     1      -3.915  -0.142  24.494  0.00  0.00    +0.203 A 
ATOM      9  N   UNL     1      -3.723   0.237  23.786  0.00  0.00    -0.056 NA
ATOM     10  O   UNL     1      -3.960   1.025  23.847  0.00  0.00    -0.336 OA
ATOM     11  C   UNL     1      -4.299   1.133  24.591  0.00  0.00    +0.251 A 
ATOM     12  N   UNL     1      -4.270   0.412  24.991  0.00  0.00    -0.190 NA
BRANCH   8   4
ATOM      1  C   UNL     1      -4.077  -2.905  23.781  0.00  0.00    +0.031 C 
ATOM      2  C   UNL     1      -3.857  -2.316  24.315  0.00  0.00    -0.022 A 
ATOM      3  C   UNL     1      -3.996  -1.523  24.137  0.00  0.00    -0.001 A 
ATOM      4  C   UNL     1      -3.775  -0.935  24.672  0.00  0.00    +0.039 A 
ATOM      5  C   UNL     1      -3.415  -1.140  25.385  0.00  0.00    +0.003 A 
ATOM      6  C   UNL     1      -3.275  -1.933  25.563  0.00  0.00    -0.000 A 
ATOM      7  C   UNL     1      -3.496  -2.522  25.029  0.00  0.00    -0.004 A 
ENDBRANCH   8   4
ENDBRANCH  13  11
BRANCH  18  19
ATOM     19  C   UNL     1      -3.354   2.533  25.199  0.00  0.00    +0.100 C 
BRANCH  19  20
ATOM     20  C   UNL     1      -2.995   3.230  25.455  0.00  0.00    -0.003 A 
ATOM     21  C   UNL     1      -3.044   3.452  26.249  0.00  0.00    -0.003 A 
ATOM     22  C   UNL     1      -2.685   4.148  26.506  0.00  0.00    +0.003 A 
ATOM     23  C   UNL     1      -2.277   4.623  25.970  0.00  0.00    +0.037 A 
ATOM     24  C   UNL     1      -2.227   4.402  25.177  0.00  0.00    +0.147 A 
ATOM     30  C   UNL     1      -2.586   3.705  24.920  0.00  0.00    +0.034 A 
BRANCH  24  25
ATOM     25  O   UNL     1      -1.817   4.878  24.640  0.00  0.00    -0.404 OA
BRANCH  25  26
ATOM     26  C   UNL     1      -1.056   5.139  24.819  0.00  0.00    +0.575 C 
ATOM     27  F   UNL     1      -0.294   5.401  24.998  0.00  0.00    -0.133 F 
ATOM     28  F   UNL     1      -1.369   5.839  25.125  0.00  0.00    -0.133 F 
ATOM     29  F   UNL     1      -0.743   4.440  24.513  0.00  0.00    -0.133 F 
ENDBRANCH  25  26
ENDBRANCH  24  25
ENDBRANCH  19  20
ENDBRANCH  18  19
TORSDOF 6
ENDMDL
MODEL 3
REMARK VINA RESULT:     -13.6      2.761      5.623
REMARK  Name = 
REMARK  6 active torsions:
REMARK  status: ('A' for Active; 'I' for Inactive)
REMARK    1  A    between atoms: C_4  and  C_8
REMARK    2  A    between atoms: C_11  and  C_13
REMARK    3  A    between atoms: N_18  and  C_19
REMARK    4  A    between atoms: C_19  and  C_20
REMARK    5  A    between atoms: C_24  and  O_25
REMARK    6  A    between atoms: O_25  and  C_26
REMARK                            x       y       z     vdW  Elec       q    Type
REMARK                         _______ _______ _______ _____ _____    ______ ____
ROOT
ATOM     13  C   UNL     1      -0.251   0.864  24.477  0.00  0.00    +0.140 C 
ATOM     14  C   UNL     1       0.254   0.810  23.826  0.00  0.00    +0.060 C 
ATOM     15  C   UNL     1       0.211   0.039  23.533  0.00  0.00    +0.170 C 
ATOM     16  O   UNL     1       0.627  -0.257  22.885  0.00  0.00    -0.222 OA
ATOM     17  C   UNL     1      -0.321  -0.382  24.003  0.00  0.00    +0.106 C 
ATOM     18  N   UNL     1      -0.606   0.128  24.586  0.00  0.00    -0.260 NA
ENDROOT
BRANCH  13  11
ATOM      8  C   UNL     1      -0.816   2.729  25.349  0.00  0.00    +0.203 A 
ATOM      9  N   UNL     1      -0.332   2.416  25.940  0.00  0.00    -0.056 NA
ATOM     10  O   UNL     1      -0.062   1.680  25.685  0.00  0.00    -0.336 OA
ATOM     11  C   UNL     1      -0.378   1.537  24.937  0.00  0.00    +0.251 A 
ATOM     12  N   UNL     1      -0.845   2.185  24.729  0.00  0.00    -0.190 NA
BRANCH   8   4
ATOM      1  C   UNL     1      -3.086   4.301  26.087  0.00  0.00    +0.031 C 
ATOM      2  C   UNL     1      -2.339   4.242  25.743  0.00  0.00    -0.022 A 
ATOM      3  C   UNL     1      -1.952   3.514  25.718  0.00  0.00    -0.001 A 
ATOM      4  C   UNL     1      -1.204   3.457  25.373  0.00  0.00    +0.039 A 
ATOM      5  C   UNL     1      -0.844   4.126  25.054  0.00  0.00    +0.003 A 
ATOM      6  C   UNL     1      -1.231   4.854  25.079  0.00  0.00    -0.000 A 
ATOM      7  C   UNL     1      -1.979   4.913  25.423  0.00  0.00    -0.004 A 
ENDBRANCH   8   4
ENDBRANCH  13  11
BRANCH  18  19
ATOM     19  C   UNL     1      -1.151  -0.066  25.174  0.00  0.00    +0.100 C 
BRANCH  19  20
ATOM     20  C   UNL     1      -1.641  -0.723  25.082  0.00  0.00    -0.003 A 
ATOM     21  C   UNL     1      -1.331  -1.483  25.162  0.00  0.00    -0.003 A 
ATOM     22  C   UNL     1      -1.821  -2.140  25.070  0.00  0.00    +0.003 A 
ATOM     23  C   UNL     1      -2.621  -2.038  24.900  0.00  0.00    +0.037 A 
ATOM     24  C   UNL     1      -2.932  -1.278  24.820  0.00  0.00    +0.147 A 
ATOM     30  C   UNL     1      -2.442  -0.620  24.912  0.00  0.00    +0.034 A 
BRANCH  24  25
ATOM     25  O   UNL     1      -3.733  -1.175  24.649  0.00  0.00    -0.404 OA
BRANCH  25  26
ATOM     26  C   UNL     1      -4.049  -1.488  23.955  0.00  0.00    +0.575 C 
ATOM     27  F   UNL     1      -4.366  -1.802  23.261  0.00  0.00    -0.133 F 
ATOM     28  F   UNL     1      -4.245  -2.181  24.358  0.00  0.00    -0.133 F 
ATOM     29  F   UNL     1      -3.854  -0.795  23.553  0.00  0.00    -0.133 F 
ENDBRANCH  25  26
ENDBRANCH  24  25
ENDBRANCH  19  20
ENDBRANCH  18  19
TORSDOF 6
ENDMDL
MODEL 4
REMARK VINA RESULT:     -13.5      2.318      4.961
REMARK  Name = 
REMARK  6 active torsions:
REMARK  status: ('A' for Active; 'I' for Inactive)
REMARK    1  A    between atoms: C_4  and  C_8
REMARK    2  A    between atoms: C_11  and  C_13
REMARK    3  A    between atoms: N_18  and  C_19
REMARK    4  A    between atoms: C_19  and  C_20
REMARK    5  A    between atoms: C_24  and  O_25
REMARK    6  A    between atoms: O_25  and  C_26
REMARK                            x       y       z     vdW  Elec       q    Type
REMARK                         _______ _______ _______ _____ _____    ______ ____
ROOT
ATOM     13  C   UNL     1      -4.615   2.202  24.794  0.00  0.00    +0.140 C 
ATOM     14  C   UNL     1      -5.357   2.401  25.094  0.00  0.00    +0.060 C 
ATOM     15  C   UNL     1      -5.762   1.701  25.259  0.00  0.00    +0.170 C 
ATOM     16  O   UNL     1      -6.524   1.644  25.569  0.00  0.00    -0.222 OA
ATOM     17  C   UNL     1      -5.270   1.070  25.061  0.00  0.00    +0.106 C 
ATOM     18  N   UNL     1      -4.561   1.379  24.773  0.00  0.00    -0.260 NA
ENDROOT
BRANCH  13  11
ATOM      8  C   UNL     1      -2.951   3.519  24.562  0.00  0.00    +0.203 A 
ATOM      9  N   UNL     1      -3.306   3.578  23.819  0.00  0.00    -0.056 NA
ATOM     10  O   UNL     1      -3.973   3.092  23.815  0.00  0.00    -0.336 OA
ATOM     11  C   UNL     1      -4.029   2.732  24.556  0.00  0.00    +0.251 A 
ATOM     12  N   UNL     1      -3.398   2.996  25.017  0.00  0.00    -0.190 NA
BRANCH   8   4
ATOM      1  C   UNL     1      -0.162   3.485  25.184  0.00  0.00    +0.031 C 
ATOM      2  C   UNL     1      -0.874   3.896  25.117  0.00  0.00    -0.022 A 
ATOM      3  C   UNL     1      -1.556   3.501  24.873  0.00  0.00    -0.001 A 
ATOM      4  C   UNL     1      -2.268   3.913  24.806  0.00  0.00    +0.039 A 
ATOM      5  C   UNL     1      -2.298   4.718  24.982  0.00  0.00    +0.003 A 
ATOM      6  C   UNL     1      -1.616   5.112  25.226  0.00  0.00    -0.000 A 
ATOM      7  C   UNL     1      -0.904   4.702  25.294  0.00  0.00    -0.004 A 
ENDBRANCH   8   4
ENDBRANCH  13  11
BRANCH  18  19
ATOM     19  C   UNL     1      -3.913   0.941  24.510  0.00  0.00    +0.100 C 
BRANCH  19  20
ATOM     20  C   UNL     1      -3.853   0.140  24.696  0.00  0.00    -0.003 A 
ATOM     21  C   UNL     1      -3.688  -0.093  25.470  0.00  0.00    -0.003 A 
ATOM     22  C   UNL     1      -3.629  -0.894  25.656  0.00  0.00    +0.003 A 
ATOM     23  C   UNL     1      -3.734  -1.463  25.068  0.00  0.00    +0.037 A 
ATOM     24  C   UNL     1      -3.898  -1.231  24.294  0.00  0.00    +0.147 A 
ATOM     30  C   UNL     1      -3.958  -0.428  24.108  0.00  0.00    +0.034 A 
BRANCH  24  25
ATOM     25  O   UNL     1      -4.003  -1.799  23.705  0.00  0.00    -0.404 OA
BRANCH  25  26
ATOM     26  C   UNL     1      -4.017  -2.600  23.904  0.00  0.00    +0.575 C 
ATOM     27  F   UNL     1      -4.029  -3.401  24.103  0.00  0.00    -0.133 F 
ATOM     28  F   UNL     1      -3.192  -2.618  23.882  0.00  0.00    -0.133 F 
ATOM     29  F   UNL     1      -4.841  -2.582  23.925  0.00  0.00    -0.133 F 
ENDBRANCH  25  26
ENDBRANCH  24  25
ENDBRANCH  19  20
ENDBRANCH  18  19
TORSDOF 6
ENDMDL
MODEL 5
REMARK VINA RESULT:     -13.4      2.130      3.177
REMARK  Name = 
REMARK  6 active torsions:
REMARK  status: ('A' for Active; 'I' for Inactive)
REMARK    1  A    between atoms: C_4  and  C_8
REMARK    2  A    between atoms: C_11  and  C_13
REMARK    3  A    between atoms: N_18  and  C_19
REMARK    4  A    between atoms: C_19  and  C_20
REMARK    5  A    between atoms: C_24  and  O_25
REMARK    6  A    between atoms: O_25  and  C_26
REMARK                            x       y       z     vdW  Elec       q    Type
REMARK                         _______ _______ _______ _____ _____    ______ ____
ROOT
ATOM     13  C   UNL     1      -0.885   0.982  24.870  0.00  0.00    +0.140 C 
ATOM     14  C   UNL     1      -0.193   0.917  24.425  0.00  0.00    +0.060 C 
ATOM     15  C   UNL     1       0.156   1.664  24.386  0.00  0.00    +0.170 C 
ATOM     16  O   UNL     1       0.858   1.852  23.995  0.00  0.00    -0.222 OA
ATOM     17  C   UNL     1      -0.320   2.190  24.807  0.00  0.00    +0.106 C 
ATOM     18  N   UNL     1      -0.963   1.769  25.106  0.00  0.00    -0.260 NA
ENDROOT
BRANCH  13  11
ATOM      8  C   UNL     1      -2.384  -0.536  24.948  0.00  0.00    +0.203 A 
ATOM      9  N   UNL     1      -2.035  -0.618  25.692  0.00  0.00    -0.056 NA
ATOM     10  O   UNL     1      -1.431  -0.059  25.753  0.00  0.00    -0.336 OA
ATOM     11  C   UNL     1      -1.406   0.368  25.047  0.00  0.00    +0.251 A 
ATOM     12  N   UNL     1      -1.995   0.073  24.550  0.00  0.00    -0.190 NA
BRANCH   8   4
ATOM      1  C   UNL     1      -3.550  -3.081  24.374  0.00  0.00    +0.031 C 
ATOM      2  C   UNL     1      -3.593  -2.258  24.368  0.00  0.00    -0.022 A 
ATOM      3  C   UNL     1      -2.966  -1.809  24.661  0.00  0.00    -0.001 A 
ATOM      4  C   UNL     1      -3.010  -0.985  24.654  0.00  0.00    +0.039 A 
ATOM      5  C   UNL     1      -3.681  -0.610  24.354  0.00  0.00    +0.003 A 
ATOM      6  C   UNL     1      -4.307  -1.059  24.061  0.00  0.00    -0.000 A 
ATOM      7  C   UNL     1      -4.264  -1.882  24.067  0.00  0.00    -0.004 A 
ENDBRANCH   8   4
ENDBRANCH  13  11
BRANCH  18  19
ATOM     19  C   UNL     1      -1.576   2.079  25.562  0.00  0.00    +0.100 C 
BRANCH  19  20
ATOM     20  C   UNL     1      -1.856   2.840  25.412  0.00  0.00    -0.003 A 
ATOM     21  C   UNL     1      -1.518   3.488  25.797  0.00  0.00    -0.003 A 
ATOM     22  C   UNL     1      -1.798   4.249  25.648  0.00  0.00    +0.003 A 
ATOM     23  C   UNL     1      -2.416   4.364  25.114  0.00  0.00    +0.037 A 
ATOM     24  C   UNL     1      -2.755   3.718  24.729  0.00  0.00    +0.147 A 
ATOM     30  C   UNL     1      -2.474   2.956  24.879  0.00  0.00    +0.034 A 
BRANCH  24  25
ATOM     25  O   UNL     1      -3.373   3.832  24.195  0.00  0.00    -0.404 OA
BRANCH  25  26
ATOM     26  C   UNL     1      -4.065   3.390  24.265  0.00  0.00    +0.575 C 
ATOM     27  F   UNL     1      -4.758   2.946  24.335  0.00  0.00    -0.133 F 
ATOM     28  F   UNL     1      -3.799   2.881  23.672  0.00  0.00    -0.133 F 
ATOM     29  F   UNL     1      -4.331   3.897  24.858  0.00  0.00    -0.133 F 
ENDBRANCH  25  26
ENDBRANCH  24  25
ENDBRANCH  19  20
ENDBRANCH  18  19
TORSDOF 6
ENDMDL
MODEL 6
REMARK VINA RESULT:     -12.8      2.150      4.403
REMARK  Name = 
REMARK  6 active torsions:
REMARK  status: ('A' for Active; 'I' for Inactive)
REMARK    1  A    between atoms: C_4  and  C_8
REMARK    2  A    between atoms: C_11  and  C_13
REMARK    3  A    between atoms: N_18  and  C_19
REMARK    4  A    between atoms: C_19  and  C_20
REMARK    5  A    between atoms: C_24  and  O_25
REMARK    6  A    between atoms: O_25  and  C_26
REMARK                            x       y       z     vdW  Elec       q    Type
REMARK                         _______ _______ _______ _____ _____    ______ ____
ROOT
ATOM     13  C   UNL     1      -1.362   2.372  25.201  0.00  0.00    +0.140 C 
ATOM     14  C   UNL     1      -0.834   2.784  25.684  0.00  0.00    +0.060 C 
ATOM     15  C   UNL     1      -0.171   2.307  25.802  0.00  0.00    +0.170 C 
ATOM     16  O   UNL     1       0.493   2.503  26.251  0.00  0.00    -0.222 OA
ATOM     17  C   UNL     1      -0.289   1.601  25.392  0.00  0.00    +0.106 C 
ATOM     18  N   UNL     1      -1.024   1.641  25.020  0.00  0.00    -0.260 NA
ENDROOT
BRANCH  13  11
ATOM      8  C   UNL     1      -3.402   2.919  24.895  0.00  0.00    +0.203 A 
ATOM      9  N   UNL     1      -3.055   3.205  24.203  0.00  0.00    -0.056 NA
ATOM     10  O   UNL     1      -2.248   3.035  24.233  0.00  0.00    -0.336 OA
ATOM     11  C   UNL     1      -2.097   2.644  24.944  0.00  0.00    +0.251 A 
ATOM     12  N   UNL     1      -2.810   2.572  25.352  0.00  0.00    -0.190 NA
BRANCH   8   4
ATOM      1  C   UNL     1      -5.994   1.726  25.057  0.00  0.00    +0.031 C 
ATOM      2  C   UNL     1      -5.497   2.373  25.174  0.00  0.00    -0.022 A 
ATOM      3  C   UNL     1      -4.698   2.322  24.975  0.00  0.00    -0.001 A 
ATOM      4  C   UNL     1      -4.201   2.970  25.093  0.00  0.00    +0.039 A 
ATOM      5  C   UNL     1      -4.503   3.669  25.409  0.00  0.00    +0.003 A 
ATOM      6  C   UNL     1      -5.302   3.721  25.608  0.00  0.00    -0.000 A 
ATOM      7  C   UNL     1      -5.800   3.073  25.490  0.00  0.00    -0.004 A 
ENDBRANCH   8   4
ENDBRANCH  13  11
BRANCH  18  19
ATOM     19  C   UNL     1      -1.363   1.053  24.551  0.00  0.00    +0.100 C 
BRANCH  19  20
ATOM     20  C   UNL     1      -1.291   0.261  24.767  0.00  0.00    -0.003 A 
ATOM     21  C   UNL     1      -0.644  -0.181  24.504  0.00  0.00    -0.003 A 
ATOM     22  C   UNL     1      -0.572  -0.974  24.719  0.00  0.00    +0.003 A 
ATOM     23  C   UNL     1      -1.145  -1.326  25.197  0.00  0.00    +0.037 A 
ATOM     24  C   UNL     1      -1.791  -0.885  25.460  0.00  0.00    +0.147 A 
ATOM     30  C   UNL     1      -1.863  -0.091  25.244  0.00  0.00    +0.034 A 
BRANCH  24  25
ATOM     25  O   UNL     1      -2.364  -1.237  25.938  0.00  0.00    -0.404 OA
BRANCH  25  26
ATOM     26  C   UNL     1      -3.121  -1.375  25.640  0.00  0.00    +0.575 C 
ATOM     27  F   UNL     1      -3.878  -1.512  25.341  0.00  0.00    -0.133 F 
ATOM     28  F   UNL     1      -3.388  -0.681  25.999  0.00  0.00    -0.133 F 
ATOM     29  F   UNL     1      -2.854  -2.067  25.281  0.00  0.00    -0.133 F 
ENDBRANCH  25  26
ENDBRANCH  24  25
ENDBRANCH  19  20
ENDBRANCH  18  19
TORSDOF 6
ENDMDL
