MODEL 1
REMARK VINA RESULT:     -11.0      0.000      0.000
REMARK  Name = 
REMARK  6 active torsions:
REMARK  status: ('A' for Active; 'I' for Inactive)
REMARK    1  A    between atoms: C_2  and  N_3
REMARK    2  A    between atoms: N_6  and  C_7
REMARK    3  A    between atoms: C_11  and  O_15
REMARK    4  A    between atoms: O_15  and  C_16
REMARK    5  A    between atoms: N_18  and  C_19
REMARK    6  A    between atoms: C_21  and  C_25
REMARK                            x       y       z     vdW  Elec       q    Type
REMARK                         _______ _______ _______ _____ _____    ______ ____
ROOT
ATOM      7  C   UNL     1      -0.451   2.318  25.193  0.00  0.00    +0.156 C 
ATOM      8  C   UNL     1      -0.551   2.086  25.979  0.00  0.00    +0.166 C 
ATOM      9  O   UNL     1      -0.581   1.262  25.998  0.00  0.00    -0.348 OA
ATOM     10  C   UNL     1      -0.500   0.985  25.226  0.00  0.00    +0.186 C 
ATOM     11  C   UNL     1      -0.468   0.305  24.760  0.00  0.00    +0.229 C 
ATOM     12  C   UNL     1      -0.367   0.537  23.976  0.00  0.00    +0.188 C 
ATOM     13  O   UNL     1      -0.337   1.361  23.955  0.00  0.00    -0.348 OA
ATOM     14  C   UNL     1      -0.419   1.637  24.728  0.00  0.00    +0.168 C 
ENDROOT
BRANCH   7   6
ATOM      3  N   UNL     1      -0.863   4.444  24.918  0.00  0.00    -0.187 NA
ATOM      4  C   UNL     1      -0.921   3.668  25.190  0.00  0.00    +0.339 C 
ATOM      5  O   UNL     1      -1.509   3.464  25.732  0.00  0.00    -0.249 OA
ATOM      6  N   UNL     1      -0.392   3.095  24.921  0.00  0.00    -0.184 NA
BRANCH   3   2
ATOM      1  C   UNL     1      -1.360   5.783  24.885  0.00  0.00    +0.025 C 
ATOM      2  C   UNL     1      -1.392   5.017  25.187  0.00  0.00    +0.117 C 
ENDBRANCH   3   2
ENDBRANCH   7   6
BRANCH  11  15
ATOM     15  O   UNL     1      -0.526  -0.473  25.033  0.00  0.00    -0.432 OA
BRANCH  15  16
ATOM     16  C   UNL     1      -1.112  -0.971  24.734  0.00  0.00    +0.425 C 
ATOM     17  O   UNL     1      -1.048  -1.271  23.969  0.00  0.00    -0.224 OA
ATOM     18  N   UNL     1      -1.763  -1.168  25.202  0.00  0.00    -0.142 NA
BRANCH  18  19
ATOM     19  C   UNL     1      -2.349  -1.666  24.904  0.00  0.00    +0.077 A 
ATOM     20  C   UNL     1      -3.066  -1.350  24.645  0.00  0.00    +0.021 A 
ATOM     21  C   UNL     1      -3.652  -1.848  24.346  0.00  0.00    +0.073 A 
ATOM     22  C   UNL     1      -3.521  -2.662  24.306  0.00  0.00    +0.004 A 
ATOM     23  C   UNL     1      -2.805  -2.977  24.565  0.00  0.00    +0.001 A 
ATOM     24  C   UNL     1      -2.218  -2.480  24.864  0.00  0.00    +0.017 A 
BRANCH  21  25
ATOM     25  C   UNL     1      -4.369  -1.532  24.087  0.00  0.00    +0.419 C 
ATOM     26  F   UNL     1      -5.085  -1.216  23.828  0.00  0.00    -0.166 F 
ATOM     27  F   UNL     1      -4.228  -1.832  23.332  0.00  0.00    -0.166 F 
ATOM     28  F   UNL     1      -4.509  -1.232  24.843  0.00  0.00    -0.166 F 
ENDBRANCH  21  25
ENDBRANCH  18  19
ENDBRANCH  15  16
ENDBRANCH  11  15
TORSDOF 6
ENDMDL
MODEL 2
REMARK VINA RESULT:     -10.8      2.132      5.288
REMARK  Name = 
REMARK  6 active torsions:
REMARK  status: ('A' for Active; 'I' for Inactive)
REMARK    1  A    between atoms: C_2  and  N_3
REMARK    2  A    between atoms: N_6  and  C_7
REMARK    3  A    between atoms: C_11  and  O_15
REMARK    4  A    between atoms: O_15  and  C_16
REMARK    5  A    between atoms: N_18  and  C_19
REMARK    6  A    between atoms: C_21  and  C_25
REMARK                            x       y       z     vdW  Elec       q    Type
REMARK                         _______ _______ _______ _____ _____    ______ ____
ROOT
ATOM      7  C   UNL     1      -1.289  -0.870  24.957  0.00  0.00    +0.156 C 
ATOM      8  C   UNL     1      -1.288  -0.665  25.757  0.00  0.00    +0.166 C 
ATOM      9  O   UNL     1      -0.931   0.075  25.829  0.00  0.00    -0.348 OA
ATOM     10  C   UNL     1      -0.711   0.328  25.075  0.00  0.00    +0.186 C 
ATOM     11  C   UNL     1      -0.355   0.941  24.654  0.00  0.00    +0.229 C 
ATOM     12  C   UNL     1      -0.356   0.736  23.855  0.00  0.00    +0.188 C 
ATOM     13  O   UNL     1      -0.713  -0.004  23.782  0.00  0.00    -0.348 OA
ATOM     14  C   UNL     1      -0.933  -0.256  24.536  0.00  0.00    +0.168 C 
ENDROOT
BRANCH   7   6
ATOM      3  N   UNL     1      -2.670  -2.492  24.486  0.00  0.00    -0.187 NA
ATOM      4  C   UNL     1      -2.366  -1.797  24.807  0.00  0.00    +0.339 C 
ATOM      5  O   UNL     1      -2.835  -1.331  25.301  0.00  0.00    -0.249 OA
ATOM      6  N   UNL     1      -1.593  -1.565  24.636  0.00  0.00    -0.184 NA
BRANCH   3   2
ATOM      1  C   UNL     1      -3.896  -3.109  24.087  0.00  0.00    +0.025 C 
ATOM      2  C   UNL     1      -3.444  -2.723  24.658  0.00  0.00    +0.117 C 
ENDBRANCH   3   2
ENDBRANCH   7   6
BRANCH  11  15
ATOM     15  O   UNL     1      -0.051   1.638  24.976  0.00  0.00    -0.432 OA
BRANCH  15  16
ATOM     16  C   UNL     1      -0.462   2.347  24.885  0.00  0.00    +0.425 C 
ATOM     17  O   UNL     1      -0.695   2.596  24.134  0.00  0.00    -0.224 OA
ATOM     18  N   UNL     1      -0.639   2.808  25.547  0.00  0.00    -0.142 NA
BRANCH  18  19
ATOM     19  C   UNL     1      -1.050   3.517  25.456  0.00  0.00    +0.077 A 
ATOM     20  C   UNL     1      -1.844   3.565  25.678  0.00  0.00    +0.021 A 
ATOM     21  C   UNL     1      -2.255   4.274  25.587  0.00  0.00    +0.073 A 
ATOM     22  C   UNL     1      -1.874   4.936  25.276  0.00  0.00    +0.004 A 
ATOM     23  C   UNL     1      -1.081   4.888  25.055  0.00  0.00    +0.001 A 
ATOM     24  C   UNL     1      -0.669   4.179  25.145  0.00  0.00    +0.017 A 
BRANCH  21  25
ATOM     25  C   UNL     1      -3.049   4.321  25.809  0.00  0.00    +0.419 C 
ATOM     26  F   UNL     1      -3.842   4.369  26.030  0.00  0.00    -0.166 F 
ATOM     27  F   UNL     1      -3.275   4.170  25.030  0.00  0.00    -0.166 F 
ATOM     28  F   UNL     1      -2.822   4.472  26.588  0.00  0.00    -0.166 F 
ENDBRANCH  21  25
ENDBRANCH  18  19
ENDBRANCH  15  16
ENDBRANCH  11  15
TORSDOF 6
ENDMDL
MODEL 3
REMARK VINA RESULT:     -10.6      2.355      2.936
REMARK  Name = 
REMARK  6 active torsions:
REMARK  status: ('A' for Active; 'I' for Inactive)
REMARK    1  A    between atoms: C_2  and  N_3
REMARK    2  A    between atoms: N_6  and  C_7
REMARK    3  A    between atoms: C_11  and  O_15
REMARK    4  A    between atoms: O_15  and  C_16
REMARK    5  A    between atoms: N_18  and  C_19
REMARK    6  A    between atoms: C_21  and  C_25
REMARK                            x       y       z     vdW  Elec       q    Type
REMARK                         _______ _______ _______ _____ _____    ______ ____
ROOT
ATOM      7  C   UNL     1      -3.393   2.899  24.406  0.00  0.00    +0.156 C 
ATOM      8  C   UNL     1      -3.219   2.665  23.634  0.00  0.00    +0.166 C 
ATOM      9  O   UNL     1      -3.572   1.930  23.505  0.00  0.00    -0.348 OA
ATOM     10  C   UNL     1      -3.963   1.710  24.197  0.00  0.00    +0.186 C 
ATOM     11  C   UNL     1      -4.423   1.121  24.545  0.00  0.00    +0.229 C 
ATOM     12  C   UNL     1      -4.596   1.354  25.316  0.00  0.00    +0.188 C 
ATOM     13  O   UNL     1      -4.244   2.089  25.446  0.00  0.00    -0.348 OA
ATOM     14  C   UNL     1      -3.852   2.308  24.753  0.00  0.00    +0.168 C 
ENDROOT
BRANCH   7   6
ATOM      3  N   UNL     1      -2.110   4.519  25.108  0.00  0.00    -0.187 NA
ATOM      4  C   UNL     1      -2.354   3.819  24.747  0.00  0.00    +0.339 C 
ATOM      5  O   UNL     1      -1.802   3.337  24.368  0.00  0.00    -0.249 OA
ATOM      6  N   UNL     1      -3.149   3.599  24.766  0.00  0.00    -0.184 NA
BRANCH   3   2
ATOM      1  C   UNL     1      -1.108   5.537  25.068  0.00  0.00    +0.025 C 
ATOM      2  C   UNL     1      -1.315   4.739  25.089  0.00  0.00    +0.117 C 
ENDBRANCH   3   2
ENDBRANCH   7   6
BRANCH  11  15
ATOM     15  O   UNL     1      -4.666   0.419  24.184  0.00  0.00    -0.432 OA
BRANCH  15  16
ATOM     16  C   UNL     1      -4.348  -0.302  24.427  0.00  0.00    +0.425 C 
ATOM     17  O   UNL     1      -4.381  -0.520  25.222  0.00  0.00    -0.224 OA
ATOM     18  N   UNL     1      -3.996  -0.804  23.875  0.00  0.00    -0.142 NA
BRANCH  18  19
ATOM     19  C   UNL     1      -3.677  -1.525  24.119  0.00  0.00    +0.077 A 
ATOM     20  C   UNL     1      -2.871  -1.583  24.287  0.00  0.00    +0.021 A 
ATOM     21  C   UNL     1      -2.552  -2.304  24.531  0.00  0.00    +0.073 A 
ATOM     22  C   UNL     1      -3.038  -2.966  24.606  0.00  0.00    +0.004 A 
ATOM     23  C   UNL     1      -3.843  -2.908  24.437  0.00  0.00    +0.001 A 
ATOM     24  C   UNL     1      -4.163  -2.187  24.193  0.00  0.00    +0.017 A 
BRANCH  21  25
ATOM     25  C   UNL     1      -1.746  -2.362  24.700  0.00  0.00    +0.419 C 
ATOM     26  F   UNL     1      -0.941  -2.420  24.869  0.00  0.00    -0.166 F 
ATOM     27  F   UNL     1      -1.886  -2.079  25.462  0.00  0.00    -0.166 F 
ATOM     28  F   UNL     1      -1.607  -2.645  23.937  0.00  0.00    -0.166 F 
ENDBRANCH  21  25
ENDBRANCH  18  19
ENDBRANCH  15  16
ENDBRANCH  11  15
TORSDOF 6
ENDMDL
MODEL 4
REMARK VINA RESULT:      -9.7      3.201      6.070
REMARK  Name = 
REMARK  6 active torsions:
REMARK  status: ('A' for Active; 'I' for Inactive)
REMARK    1  A    between atoms: C_2  and  N_3
REMARK    2  A    between atoms: N_6  and  C_7
REMARK    3  A    between atoms: C_11  and  O_15
REMARK    4  A    between atoms: O_15  and  C_16
REMARK    5  A    between atoms: N_18  and  C_19
REMARK    6  A    between atoms: C_21  and  C_25
REMARK                            x       y       z     vdW  Elec       q    Type
REMARK                         _______ _______ _______ _____ _____    ______ ____
ROOT
ATOM      7  C   UNL     1      -4.367   0.011  24.617  0.00  0.00    +0.156 C 
ATOM      8  C   UNL     1      -4.699   0.195  25.350  0.00  0.00    +0.166 C 
ATOM      9  O   UNL     1      -4.668   1.014  25.445  0.00  0.00    -0.348 OA
ATOM     10  C   UNL     1      -4.318   1.336  24.771  0.00  0.00    +0.186 C 
ATOM     11  C   UNL     1      -4.082   2.041  24.413  0.00  0.00    +0.229 C 
ATOM     12  C   UNL     1      -3.751   1.857  23.681  0.00  0.00    +0.188 C 
ATOM     13  O   UNL     1      -3.781   1.038  23.585  0.00  0.00    -0.348 OA
ATOM     14  C   UNL     1      -4.132   0.717  24.260  0.00  0.00    +0.168 C 
ENDROOT
BRANCH   7   6
ATOM      3  N   UNL     1      -3.852  -2.101  24.424  0.00  0.00    -0.187 NA
ATOM      4  C   UNL     1      -3.934  -1.345  24.743  0.00  0.00    +0.339 C 
ATOM      5  O   UNL     1      -3.664  -1.188  25.506  0.00  0.00    -0.249 OA
ATOM      6  N   UNL     1      -4.286  -0.745  24.299  0.00  0.00    -0.184 NA
BRANCH   3   2
ATOM      1  C   UNL     1      -3.169  -3.354  24.491  0.00  0.00    +0.025 C 
ATOM      2  C   UNL     1      -3.501  -2.701  24.869  0.00  0.00    +0.117 C 
ENDBRANCH   3   2
ENDBRANCH   7   6
BRANCH  11  15
ATOM     15  O   UNL     1      -4.164   2.798  24.733  0.00  0.00    -0.432 OA
BRANCH  15  16
ATOM     16  C   UNL     1      -3.545   3.339  24.672  0.00  0.00    +0.425 C 
ATOM     17  O   UNL     1      -3.403   3.727  23.958  0.00  0.00    -0.224 OA
ATOM     18  N   UNL     1      -3.067   3.493  25.328  0.00  0.00    -0.142 NA
BRANCH  18  19
ATOM     19  C   UNL     1      -2.447   4.034  25.268  0.00  0.00    +0.077 A 
ATOM     20  C   UNL     1      -1.678   3.767  25.134  0.00  0.00    +0.021 A 
ATOM     21  C   UNL     1      -1.058   4.308  25.074  0.00  0.00    +0.073 A 
ATOM     22  C   UNL     1      -1.207   5.116  25.147  0.00  0.00    +0.004 A 
ATOM     23  C   UNL     1      -1.976   5.383  25.281  0.00  0.00    +0.001 A 
ATOM     24  C   UNL     1      -2.596   4.842  25.342  0.00  0.00    +0.017 A 
BRANCH  21  25
ATOM     25  C   UNL     1      -0.289   4.041  24.939  0.00  0.00    +0.419 C 
ATOM     26  F   UNL     1       0.479   3.774  24.806  0.00  0.00    -0.166 F 
ATOM     27  F   UNL     1      -0.256   3.750  25.711  0.00  0.00    -0.166 F 
ATOM     28  F   UNL     1      -0.323   4.332  24.168  0.00  0.00    -0.166 F 
ENDBRANCH  21  25
ENDBRANCH  18  19
ENDBRANCH  15  16
ENDBRANCH  11  15
TORSDOF 6
ENDMDL
MODEL 5
REMARK VINA RESULT:      -9.6      3.140      4.269
REMARK  Name = 
REMARK  6 active torsions:
REMARK  status: ('A' for Active; 'I' for Inactive)
REMARK    1  A    between atoms: C_2  and  N_3
REMARK    2  A    between atoms: N_6  and  C_7
REMARK    3  A    between atoms: C_11  and  O_15
REMARK    4  A    between atoms: O_15  and  C_16
REMARK    5  A    between atoms: N_18  and  C_19
REMARK    6  A    between atoms: C_21  and  C_25
REMARK                            x       y       z     vdW  Elec       q    Type
REMARK                         _______ _______ _______ _____ _____    ______ ____
ROOT
ATOM      7  C   UNL     1       0.019   0.376  23.880  0.00  0.00    +0.156 C 
ATOM      8  C   UNL     1      -0.119  -0.403  24.117  0.00  0.00    +0.166 C 
ATOM      9  O   UNL     1      -0.925  -0.481  24.276  0.00  0.00    -0.348 OA
ATOM     10  C   UNL     1      -1.285   0.248  24.137  0.00  0.00    +0.186 C 
ATOM     11  C   UNL     1      -2.004   0.650  24.149  0.00  0.00    +0.229 C 
ATOM     12  C   UNL     1      -1.866   1.428  23.913  0.00  0.00    +0.188 C 
ATOM     13  O   UNL     1      -1.060   1.507  23.754  0.00  0.00    -0.348 OA
ATOM     14  C   UNL     1      -0.701   0.778  23.893  0.00  0.00    +0.168 C 
ENDROOT
BRANCH   7   6
ATOM      3  N   UNL     1       1.997   0.583  22.981  0.00  0.00    -0.187 NA
ATOM      4  C   UNL     1       1.267   0.264  23.193  0.00  0.00    +0.339 C 
ATOM      5  O   UNL     1       1.054  -0.488  22.929  0.00  0.00    -0.249 OA
ATOM      6  N   UNL     1       0.749   0.695  23.669  0.00  0.00    -0.184 NA
BRANCH   3   2
ATOM      1  C   UNL     1       3.293   0.404  22.407  0.00  0.00    +0.025 C 
ATOM      2  C   UNL     1       2.515   0.151  22.505  0.00  0.00    +0.117 C 
ENDBRANCH   3   2
ENDBRANCH   7   6
BRANCH  11  15
ATOM     15  O   UNL     1      -2.735   0.330  24.361  0.00  0.00    -0.432 OA
BRANCH  15  16
ATOM     16  C   UNL     1      -3.407   0.808  24.369  0.00  0.00    +0.425 C 
ATOM     17  O   UNL     1      -3.675   1.157  23.671  0.00  0.00    -0.224 OA
ATOM     18  N   UNL     1      -3.813   0.937  25.077  0.00  0.00    -0.142 NA
BRANCH  18  19
ATOM     19  C   UNL     1      -4.485   1.415  25.085  0.00  0.00    +0.077 A 
ATOM     20  C   UNL     1      -4.424   2.209  25.303  0.00  0.00    +0.021 A 
ATOM     21  C   UNL     1      -5.096   2.687  25.311  0.00  0.00    +0.073 A 
ATOM     22  C   UNL     1      -5.829   2.373  25.101  0.00  0.00    +0.004 A 
ATOM     23  C   UNL     1      -5.890   1.580  24.884  0.00  0.00    +0.001 A 
ATOM     24  C   UNL     1      -5.218   1.101  24.875  0.00  0.00    +0.017 A 
BRANCH  21  25
ATOM     25  C   UNL     1      -5.034   3.481  25.529  0.00  0.00    +0.419 C 
ATOM     26  F   UNL     1      -4.973   4.274  25.747  0.00  0.00    -0.166 F 
ATOM     27  F   UNL     1      -4.967   3.694  24.735  0.00  0.00    -0.166 F 
ATOM     28  F   UNL     1      -5.102   3.268  26.323  0.00  0.00    -0.166 F 
ENDBRANCH  21  25
ENDBRANCH  18  19
ENDBRANCH  15  16
ENDBRANCH  11  15
TORSDOF 6
ENDMDL
MODEL 6
REMARK VINA RESULT:      -9.4      2.936      4.234
REMARK  Name = 
REMARK  6 active torsions:
REMARK  status: ('A' for Active; 'I' for Inactive)
REMARK    1  A    between atoms: C_2  and  N_3
REMARK    2  A    between atoms: N_6  and  C_7
REMARK    3  A    between atoms: C_11  and  O_15
REMARK    4  A    between atoms: O_15  and  C_16
REMARK    5  A    between atoms: N_18  and  C_19
REMARK    6  A    between atoms: C_21  and  C_25
REMARK                            x       y       z     vdW  Elec       q    Type
REMARK                         _______ _______ _______ _____ _____    ______ ____
ROOT
ATOM      7  C   UNL     1       0.712   0.813  23.683  0.00  0.00    +0.156 C 
ATOM      8  C   UNL     1       0.431   0.068  23.465  0.00  0.00    +0.166 C 
ATOM      9  O   UNL     1      -0.388   0.068  23.557  0.00  0.00    -0.348 OA
ATOM     10  C   UNL     1      -0.615   0.812  23.831  0.00  0.00    +0.186 C 
ATOM     11  C   UNL     1      -1.261   1.272  24.058  0.00  0.00    +0.229 C 
ATOM     12  C   UNL     1      -0.981   2.016  24.276  0.00  0.00    +0.188 C 
ATOM     13  O   UNL     1      -0.161   2.017  24.184  0.00  0.00    -0.348 OA
ATOM     14  C   UNL     1       0.065   1.272  23.909  0.00  0.00    +0.168 C 
ENDROOT
BRANCH   7   6
ATOM      3  N   UNL     1       2.824   0.941  23.152  0.00  0.00    -0.187 NA
ATOM      4  C   UNL     1       2.036   0.699  23.159  0.00  0.00    +0.339 C 
ATOM      5  O   UNL     1       1.784   0.101  22.650  0.00  0.00    -0.249 OA
ATOM      6  N   UNL     1       1.500   1.055  23.675  0.00  0.00    -0.184 NA
BRANCH   3   2
ATOM      1  C   UNL     1       4.166   0.751  22.699  0.00  0.00    +0.025 C 
ATOM      2  C   UNL     1       3.361   0.586  22.636  0.00  0.00    +0.117 C 
ENDBRANCH   3   2
ENDBRANCH   7   6
BRANCH  11  15
ATOM     15  O   UNL     1      -2.050   1.029  24.065  0.00  0.00    -0.432 OA
BRANCH  15  16
ATOM     16  C   UNL     1      -2.625   1.508  24.412  0.00  0.00    +0.425 C 
ATOM     17  O   UNL     1      -2.514   1.801  25.175  0.00  0.00    -0.224 OA
ATOM     18  N   UNL     1      -3.312   1.695  23.994  0.00  0.00    -0.142 NA
BRANCH  18  19
ATOM     19  C   UNL     1      -3.887   2.174  24.341  0.00  0.00    +0.077 A 
ATOM     20  C   UNL     1      -4.572   1.835  24.655  0.00  0.00    +0.021 A 
ATOM     21  C   UNL     1      -5.147   2.315  25.001  0.00  0.00    +0.073 A 
ATOM     22  C   UNL     1      -5.038   3.132  25.034  0.00  0.00    +0.004 A 
ATOM     23  C   UNL     1      -4.355   3.470  24.721  0.00  0.00    +0.001 A 
ATOM     24  C   UNL     1      -3.779   2.991  24.374  0.00  0.00    +0.017 A 
BRANCH  21  25
ATOM     25  C   UNL     1      -5.831   1.976  25.315  0.00  0.00    +0.419 C 
ATOM     26  F   UNL     1      -6.514   1.638  25.629  0.00  0.00    -0.166 F 
ATOM     27  F   UNL     1      -5.500   2.009  26.070  0.00  0.00    -0.166 F 
ATOM     28  F   UNL     1      -6.161   1.944  24.560  0.00  0.00    -0.166 F 
ENDBRANCH  21  25
ENDBRANCH  18  19
ENDBRANCH  15  16
ENDBRANCH  11  15
TORSDOF 6
ENDMDL
MODEL 7
REMARK VINA RESULT:      -9.2      2.798      4.402
REMARK  Name = 
REMARK  6 active torsions:
REMARK  status: ('A' for Active; 'I' for Inactive)
REMARK    1  A    between atoms: C_2  and  N_3
REMARK    2  A    between atoms: N_6  and  C_7
REMARK    3  A    between atoms: C_11  and  O_15
REMARK    4  A    between atoms: O_15  and  C_16
REMARK    5  A    between atoms: N_18  and  C_19
REMARK    6  A    between atoms: C_21  and  C_25
REMARK                            x       y       z     vdW  Elec       q    Type
REMARK                         _______ _______ _______ _____ _____    ______ ____
ROOT
ATOM      7  C   UNL     1      -0.082   1.986  24.765  0.00  0.00    +0.156 C 
ATOM      8  C   UNL     1      -0.340   1.575  25.433  0.00  0.00    +0.166 C 
ATOM      9  O   UNL     1      -0.930   2.024  25.795  0.00  0.00    -0.348 OA
ATOM     10  C   UNL     1      -1.037   2.712  25.351  0.00  0.00    +0.186 C 
ATOM     11  C   UNL     1      -1.467   3.414  25.300  0.00  0.00    +0.229 C 
ATOM     12  C   UNL     1      -1.208   3.823  24.633  0.00  0.00    +0.188 C 
ATOM     13  O   UNL     1      -0.618   3.375  24.271  0.00  0.00    -0.348 OA
ATOM     14  C   UNL     1      -0.513   2.688  24.715  0.00  0.00    +0.168 C 
ENDROOT
BRANCH   7   6
ATOM      3  N   UNL     1       1.047   0.738  23.375  0.00  0.00    -0.187 NA
ATOM      4  C   UNL     1       0.462   0.987  23.900  0.00  0.00    +0.339 C 
ATOM      5  O   UNL     1      -0.166   0.484  24.085  0.00  0.00    -0.249 OA
ATOM      6  N   UNL     1       0.503   1.737  24.240  0.00  0.00    -0.184 NA
BRANCH   3   2
ATOM      1  C   UNL     1       1.561  -0.241  22.470  0.00  0.00    +0.025 C 
ATOM      2  C   UNL     1       1.006  -0.013  23.035  0.00  0.00    +0.117 C 
ENDBRANCH   3   2
ENDBRANCH   7   6
BRANCH  11  15
ATOM     15  O   UNL     1      -2.053   3.662  25.826  0.00  0.00    -0.432 OA
BRANCH  15  16
ATOM     16  C   UNL     1      -2.842   3.675  25.587  0.00  0.00    +0.425 C 
ATOM     17  O   UNL     1      -3.061   4.090  24.908  0.00  0.00    -0.224 OA
ATOM     18  N   UNL     1      -3.413   3.271  26.026  0.00  0.00    -0.142 NA
BRANCH  18  19
ATOM     19  C   UNL     1      -4.202   3.284  25.787  0.00  0.00    +0.077 A 
ATOM     20  C   UNL     1      -4.557   2.595  25.500  0.00  0.00    +0.021 A 
ATOM     21  C   UNL     1      -5.346   2.608  25.260  0.00  0.00    +0.073 A 
ATOM     22  C   UNL     1      -5.781   3.308  25.307  0.00  0.00    +0.004 A 
ATOM     23  C   UNL     1      -5.426   3.994  25.594  0.00  0.00    +0.001 A 
ATOM     24  C   UNL     1      -4.637   3.983  25.834  0.00  0.00    +0.017 A 
BRANCH  21  25
ATOM     25  C   UNL     1      -5.700   1.920  24.973  0.00  0.00    +0.419 C 
ATOM     26  F   UNL     1      -6.055   1.233  24.687  0.00  0.00    -0.166 F 
ATOM     27  F   UNL     1      -5.948   1.730  25.737  0.00  0.00    -0.166 F 
ATOM     28  F   UNL     1      -5.452   2.110  24.210  0.00  0.00    -0.166 F 
ENDBRANCH  21  25
ENDBRANCH  18  19
ENDBRANCH  15  16
ENDBRANCH  11  15
TORSDOF 6
ENDMDL
MODEL 8
REMARK VINA RESULT:      -8.9      2.268      3.434
REMARK  Name = 
REMARK  6 active torsions:
REMARK  status: ('A' for Active; 'I' for Inactive)
REMARK    1  A    between atoms: C_2  and  N_3
REMARK    2  A    between atoms: N_6  and  C_7
REMARK    3  A    between atoms: C_11  and  O_15
REMARK    4  A    between atoms: O_15  and  C_16
REMARK    5  A    between atoms: N_18  and  C_19
REMARK    6  A    between atoms: C_21  and  C_25
REMARK                            x       y       z     vdW  Elec       q    Type
REMARK                         _______ _______ _______ _____ _____    ______ ____
ROOT
ATOM      7  C   UNL     1       1.303   0.784  23.402  0.00  0.00    +0.156 C 
ATOM      8  C   UNL     1       1.018   0.287  22.807  0.00  0.00    +0.166 C 
ATOM      9  O   UNL     1       0.196   0.258  22.872  0.00  0.00    -0.348 OA
ATOM     10  C   UNL     1      -0.028   0.736  23.506  0.00  0.00    +0.186 C 
ATOM     11  C   UNL     1      -0.673   1.014  23.938  0.00  0.00    +0.229 C 
ATOM     12  C   UNL     1      -0.388   1.510  24.532  0.00  0.00    +0.188 C 
ATOM     13  O   UNL     1       0.434   1.540  24.468  0.00  0.00    -0.348 OA
ATOM     14  C   UNL     1       0.656   1.061  23.833  0.00  0.00    +0.168 C 
ENDROOT
BRANCH   7   6
ATOM      3  N   UNL     1       3.475   0.829  23.202  0.00  0.00    -0.187 NA
ATOM      4  C   UNL     1       2.684   0.643  23.064  0.00  0.00    +0.339 C 
ATOM      5  O   UNL     1       2.482   0.131  22.450  0.00  0.00    -0.249 OA
ATOM      6  N   UNL     1       2.094   0.969  23.540  0.00  0.00    -0.184 NA
BRANCH   3   2
ATOM      1  C   UNL     1       4.845   0.477  22.994  0.00  0.00    +0.025 C 
ATOM      2  C   UNL     1       4.066   0.503  22.726  0.00  0.00    +0.117 C 
ENDBRANCH   3   2
ENDBRANCH   7   6
BRANCH  11  15
ATOM     15  O   UNL     1      -1.465   0.827  23.800  0.00  0.00    -0.432 OA
BRANCH  15  16
ATOM     16  C   UNL     1      -1.862   0.313  24.308  0.00  0.00    +0.425 C 
ATOM     17  O   UNL     1      -1.551   0.148  25.054  0.00  0.00    -0.224 OA
ATOM     18  N   UNL     1      -2.571  -0.037  24.069  0.00  0.00    -0.142 NA
BRANCH  18  19
ATOM     19  C   UNL     1      -2.967  -0.551  24.578  0.00  0.00    +0.077 A 
ATOM     20  C   UNL     1      -3.074  -1.342  24.363  0.00  0.00    +0.021 A 
ATOM     21  C   UNL     1      -3.471  -1.856  24.872  0.00  0.00    +0.073 A 
ATOM     22  C   UNL     1      -3.761  -1.582  25.593  0.00  0.00    +0.004 A 
ATOM     23  C   UNL     1      -3.654  -0.793  25.807  0.00  0.00    +0.001 A 
ATOM     24  C   UNL     1      -3.257  -0.277  25.300  0.00  0.00    +0.017 A 
BRANCH  21  25
ATOM     25  C   UNL     1      -3.577  -2.646  24.657  0.00  0.00    +0.419 C 
ATOM     26  F   UNL     1      -3.684  -3.435  24.443  0.00  0.00    -0.166 F 
ATOM     27  F   UNL     1      -4.225  -2.432  24.193  0.00  0.00    -0.166 F 
ATOM     28  F   UNL     1      -2.929  -2.859  25.121  0.00  0.00    -0.166 F 
ENDBRANCH  21  25
ENDBRANCH  18  19
ENDBRANCH  15  16
ENDBRANCH  11  15
TORSDOF 6
ENDMDL
MODEL 9
REMARK VINA RESULT:      -8.6      2.160      2.415
REMARK  Name = 
REMARK  6 active torsions:
REMARK  status: ('A' for Active; 'I' for Inactive)
REMARK    1  A    between atoms: C_2  and  N_3
REMARK    2  A    between atoms: N_6  and  C_7
REMARK    3  A    between atoms: C_11  and  O_15
REMARK    4  A    between atoms: O_15  and  C_16
REMARK    5  A    between atoms: N_18  and  C_19
REMARK    6  A    between atoms: C_21  and  C_25
REMARK                            x       y       z     vdW  Elec       q    Type
REMARK                         _______ _______ _______ _____ _____    ______ ____
ROOT
ATOM      7  C   UNL     1      -3.027   3.100  25.009  0.00  0.00    +0.156 C 
ATOM      8  C   UNL     1      -2.609   3.057  25.719  0.00  0.00    +0.166 C 
ATOM      9  O   UNL     1      -2.068   2.437  25.657  0.00  0.00    -0.348 OA
ATOM     10  C   UNL     1      -2.151   2.098  24.910  0.00  0.00    +0.186 C 
ATOM     11  C   UNL     1      -1.870   1.506  24.410  0.00  0.00    +0.229 C 
ATOM     12  C   UNL     1      -2.288   1.549  23.701  0.00  0.00    +0.188 C 
ATOM     13  O   UNL     1      -2.829   2.169  23.762  0.00  0.00    -0.348 OA
ATOM     14  C   UNL     1      -2.745   2.508  24.510  0.00  0.00    +0.168 C 
ENDROOT
BRANCH   7   6
ATOM      3  N   UNL     1      -4.901   4.214  25.117  0.00  0.00    -0.187 NA
ATOM      4  C   UNL     1      -4.305   3.673  25.295  0.00  0.00    +0.339 C 
ATOM      5  O   UNL     1      -4.391   3.162  25.937  0.00  0.00    -0.249 OA
ATOM      6  N   UNL     1      -3.623   3.642  24.831  0.00  0.00    -0.184 NA
BRANCH   3   2
ATOM      1  C   UNL     1      -6.127   4.856  25.475  0.00  0.00    +0.025 C 
ATOM      2  C   UNL     1      -5.583   4.245  25.580  0.00  0.00    +0.117 C 
ENDBRANCH   3   2
ENDBRANCH   7   6
BRANCH  11  15
ATOM     15  O   UNL     1      -1.273   0.964  24.589  0.00  0.00    -0.432 OA
BRANCH  15  16
ATOM     16  C   UNL     1      -1.385   0.162  24.433  0.00  0.00    +0.425 C 
ATOM     17  O   UNL     1      -1.254  -0.134  23.674  0.00  0.00    -0.224 OA
ATOM     18  N   UNL     1      -1.628  -0.345  25.038  0.00  0.00    -0.142 NA
BRANCH  18  19
ATOM     19  C   UNL     1      -1.740  -1.148  24.882  0.00  0.00    +0.077 A 
ATOM     20  C   UNL     1      -2.505  -1.454  24.829  0.00  0.00    +0.021 A 
ATOM     21  C   UNL     1      -2.617  -2.256  24.673  0.00  0.00    +0.073 A 
ATOM     22  C   UNL     1      -1.966  -2.752  24.571  0.00  0.00    +0.004 A 
ATOM     23  C   UNL     1      -1.203  -2.446  24.625  0.00  0.00    +0.001 A 
ATOM     24  C   UNL     1      -1.089  -1.644  24.781  0.00  0.00    +0.017 A 
BRANCH  21  25
ATOM     25  C   UNL     1      -3.382  -2.563  24.619  0.00  0.00    +0.419 C 
ATOM     26  F   UNL     1      -4.146  -2.869  24.566  0.00  0.00    -0.166 F 
ATOM     27  F   UNL     1      -3.392  -2.680  25.436  0.00  0.00    -0.166 F 
ATOM     28  F   UNL     1      -3.371  -2.445  23.803  0.00  0.00    -0.166 F 
ENDBRANCH  21  25
ENDBRANCH  18  19
ENDBRANCH  15  16
ENDBRANCH  11  15
TORSDOF 6
ENDMDL
MODEL 10
REMARK VINA RESULT:      -7.5     16.912     18.422
REMARK  Name = 
REMARK  6 active torsions:
REMARK  status: ('A' for Active; 'I' for Inactive)
REMARK    1  A    between atoms: C_2  and  N_3
REMARK    2  A    between atoms: N_6  and  C_7
REMARK    3  A    between atoms: C_11  and  O_15
REMARK    4  A    between atoms: O_15  and  C_16
REMARK    5  A    between atoms: N_18  and  C_19
REMARK    6  A    between atoms: C_21  and  C_25
REMARK                            x       y       z     vdW  Elec       q    Type
REMARK                         _______ _______ _______ _____ _____    ______ ____
ROOT
ATOM      7  C   UNL     1      11.805   7.752  20.018  0.00  0.00    +0.156 C 
ATOM      8  C   UNL     1      11.776   6.930  19.953  0.00  0.00    +0.166 C 
ATOM      9  O   UNL     1      12.410   6.689  19.483  0.00  0.00    -0.348 OA
ATOM     10  C   UNL     1      12.831   7.362  19.258  0.00  0.00    +0.186 C 
ATOM     11  C   UNL     1      13.482   7.629  18.828  0.00  0.00    +0.229 C 
ATOM     12  C   UNL     1      13.512   8.450  18.894  0.00  0.00    +0.188 C 
ATOM     13  O   UNL     1      12.878   8.692  19.364  0.00  0.00    -0.348 OA
ATOM     14  C   UNL     1      12.457   8.018  19.589  0.00  0.00    +0.168 C 
ENDROOT
BRANCH   7   6
ATOM      3  N   UNL     1      10.654   8.588  21.673  0.00  0.00    -0.187 NA
ATOM      4  C   UNL     1      11.183   8.117  21.252  0.00  0.00    +0.339 C 
ATOM      5  O   UNL     1      11.621   7.537  21.644  0.00  0.00    -0.249 OA
ATOM      6  N   UNL     1      11.276   8.224  20.439  0.00  0.00    -0.184 NA
BRANCH   3   2
ATOM      1  C   UNL     1      10.265   9.094  22.952  0.00  0.00    +0.025 C 
ATOM      2  C   UNL     1      10.561   8.481  22.486  0.00  0.00    +0.117 C 
ENDBRANCH   3   2
ENDBRANCH   7   6
BRANCH  11  15
ATOM     15  O   UNL     1      14.012   7.156  18.407  0.00  0.00    -0.432 OA
BRANCH  15  16
ATOM     16  C   UNL     1      14.797   7.097  18.654  0.00  0.00    +0.425 C 
ATOM     17  O   UNL     1      15.328   7.708  18.495  0.00  0.00    -0.224 OA
ATOM     18  N   UNL     1      15.051   6.424  19.061  0.00  0.00    -0.142 NA
BRANCH  18  19
ATOM     19  C   UNL     1      15.836   6.365  19.308  0.00  0.00    +0.077 A 
ATOM     20  C   UNL     1      16.049   6.615  20.066  0.00  0.00    +0.021 A 
ATOM     21  C   UNL     1      16.834   6.555  20.313  0.00  0.00    +0.073 A 
ATOM     22  C   UNL     1      17.405   6.246  19.804  0.00  0.00    +0.004 A 
ATOM     23  C   UNL     1      17.191   5.995  19.048  0.00  0.00    +0.001 A 
ATOM     24  C   UNL     1      16.406   6.055  18.800  0.00  0.00    +0.017 A 
BRANCH  21  25
ATOM     25  C   UNL     1      17.048   6.806  21.070  0.00  0.00    +0.419 C 
ATOM     26  F   UNL     1      17.261   7.056  21.826  0.00  0.00    -0.166 F 
ATOM     27  F   UNL     1      16.735   6.111  21.387  0.00  0.00    -0.166 F 
ATOM     28  F   UNL     1      17.360   7.500  20.752  0.00  0.00    -0.166 F 
ENDBRANCH  21  25
ENDBRANCH  18  19
ENDBRANCH  15  16
ENDBRANCH  11  15
TORSDOF 6
ENDMDL
