REMARK  Name = 
REMARK  11 active torsions:
REMARK  status: ('A' for Active; 'I' for Inactive)
REMARK    1  A    between atoms: O_2  and  C_3
REMARK    2  A    between atoms: C_8  and  C_9
REMARK    3  A    between atoms: C_9  and  N_10
REMARK    4  A    between atoms: N_10  and  C_11
REMARK    5  A    between atoms: N_10  and  C_20
REMARK    6  A    between atoms: C_11  and  C_12
REMARK    7  A    between atoms: C_13  and  O_14
REMARK    8  A    between atoms: C_20  and  C_21
REMARK    9  A    between atoms: C_21  and  C_22
REMARK   10  A    between atoms: C_25  and  C_26
REMARK   11  A    between atoms: C_26  and  C_27
REMARK                            x       y       z     vdW  Elec       q    Type
REMARK                         _______ _______ _______ _____ _____    ______ ____
ROOT
ATOM     10  N   UNL     1       2.878   0.493   0.000  0.00  0.00    -0.263 NA
ENDROOT
BRANCH  10  20
ATOM     20  C   UNL     1       2.294  -0.091   0.000  0.00  0.00    +0.106 C 
ATOM     30  C   UNL     1       2.878  -0.674   0.000  0.00  0.00    +0.160 C 
ATOM     31  O   UNL     1       2.294  -1.257   0.000  0.00  0.00    -0.351 OA
ATOM     32  C   UNL     1       1.711  -0.674   0.000  0.00  0.00    +0.160 C 
BRANCH  20  21
ATOM     21  C   UNL     1       1.711   0.493   0.000  0.00  0.00    +0.069 C 
BRANCH  21  22
ATOM     22  C   UNL     1       0.914   0.279   0.000  0.00  0.00    +0.102 A 
ATOM     23  N   UNL     1       0.619  -0.491   0.000  0.00  0.00    -0.082 NA
ATOM     24  O   UNL     1      -0.205  -0.448   0.000  0.00  0.00    -0.358 OA
ATOM     25  C   UNL     1      -0.419   0.349   0.000  0.00  0.00    +0.157 A 
ATOM     29  C   UNL     1       0.273   0.798   0.000  0.00  0.00    +0.054 A 
BRANCH  25  26
ATOM     26  C   UNL     1      -1.189   0.645   0.000  0.00  0.00    +0.103 C 
BRANCH  26  27
ATOM     27  C   UNL     1      -1.830   0.126   0.000  0.00  0.00    +0.190 C 
ATOM     28  O   UNL     1      -1.701  -0.689   0.000  0.00  0.00    -0.220 OA
ENDBRANCH  26  27
ENDBRANCH  25  26
ENDBRANCH  21  22
ENDBRANCH  20  21
ENDBRANCH  10  20
BRANCH  10   9
ATOM      9  C   UNL     1       2.664   1.290   0.000  0.00  0.00    +0.102 C 
BRANCH   9   8
ATOM      3  C   UNL     1       3.034   2.670   0.000  0.00  0.00    +0.136 A 
ATOM      4  C   UNL     1       3.617   3.253   0.000  0.00  0.00    +0.037 A 
ATOM      5  C   UNL     1       4.414   3.040   0.000  0.00  0.00    +0.003 A 
ATOM      6  C   UNL     1       4.628   2.243   0.000  0.00  0.00    -0.000 A 
ATOM      7  C   UNL     1       4.045   1.659   0.000  0.00  0.00    +0.000 A 
ATOM      8  C   UNL     1       3.248   1.873   0.000  0.00  0.00    +0.028 A 
BRANCH   3   2
ATOM      1  C   UNL     1       2.024   3.680   0.000  0.00  0.00    +0.252 C 
ATOM      2  O   UNL     1       2.237   2.883   0.000  0.00  0.00    -0.472 OA
ENDBRANCH   3   2
ENDBRANCH   9   8
ENDBRANCH  10   9
BRANCH  10  11
ATOM     11  C   UNL     1       3.675   0.279   0.000  0.00  0.00    +0.102 C 
BRANCH  11  12
ATOM     12  C   UNL     1       3.888  -0.518   0.000  0.00  0.00    +0.028 A 
ATOM     13  C   UNL     1       4.685  -0.731   0.000  0.00  0.00    +0.136 A 
ATOM     16  C   UNL     1       4.899  -1.528   0.000  0.00  0.00    +0.037 A 
ATOM     17  C   UNL     1       4.315  -2.111   0.000  0.00  0.00    +0.003 A 
ATOM     18  C   UNL     1       3.518  -1.898   0.000  0.00  0.00    -0.000 A 
ATOM     19  C   UNL     1       3.305  -1.101   0.000  0.00  0.00    +0.000 A 
BRANCH  13  14
ATOM     14  O   UNL     1       5.268  -0.148   0.000  0.00  0.00    -0.472 OA
ATOM     15  C   UNL     1       6.065  -0.361   0.000  0.00  0.00    +0.252 C 
ENDBRANCH  13  14
ENDBRANCH  11  12
ENDBRANCH  10  11
TORSDOF 11
