MODEL 1
REMARK VINA RESULT:      -9.7      0.000      0.000
REMARK  Name = 
REMARK  5 active torsions:
REMARK  status: ('A' for Active; 'I' for Inactive)
REMARK    1  A    between atoms: C_1  and  N_2
REMARK    2  A    between atoms: C_1  and  C_22
REMARK    3  A    between atoms: N_2  and  C_3
REMARK    4  A    between atoms: C_7  and  N_11
REMARK    5  A    between atoms: C_13  and  C_16
REMARK                            x       y       z     vdW  Elec       q    Type
REMARK                         _______ _______ _______ _____ _____    ______ ____
ROOT
ATOM      3  C   UNL     1      -2.356  -0.208  24.944  0.00  0.00    +0.132 C 
ATOM      4  C   UNL     1      -2.825   0.321  25.368  0.00  0.00    +0.162 C 
ATOM      5  O   UNL     1      -2.404   1.026  25.447  0.00  0.00    -0.350 OA
ATOM      6  C   UNL     1      -1.676   0.933  25.072  0.00  0.00    +0.168 C 
ATOM      7  C   UNL     1      -0.965   1.309  24.889  0.00  0.00    +0.166 C 
ATOM      8  C   UNL     1      -0.497   0.780  24.465  0.00  0.00    +0.169 C 
ATOM      9  O   UNL     1      -0.917   0.075  24.386  0.00  0.00    -0.350 OA
ATOM     10  C   UNL     1      -1.646   0.169  24.761  0.00  0.00    +0.163 C 
ENDROOT
BRANCH   7  11
ATOM     11  N   UNL     1      -0.760   2.082  25.094  0.00  0.00    -0.227 N 
ATOM     12  C   UNL     1      -1.161   2.767  24.869  0.00  0.00    +0.119 A 
ATOM     13  C   UNL     1      -0.766   3.413  25.196  0.00  0.00    +0.141 A 
ATOM     14  N   UNL     1      -0.121   3.127  25.624  0.00  0.00    -0.127 NA
ATOM     15  N   UNL     1      -0.117   2.305  25.560  0.00  0.00    -0.064 NA
BRANCH  13  16
ATOM     16  C   UNL     1      -0.979   4.206  25.111  0.00  0.00    +0.102 A 
ATOM     17  N   UNL     1      -1.704   4.471  25.401  0.00  0.00    -0.242 NA
ATOM     18  C   UNL     1      -1.917   5.264  25.315  0.00  0.00    +0.099 A 
ATOM     19  C   UNL     1      -1.404   5.791  24.941  0.00  0.00    +0.021 A 
ATOM     20  C   UNL     1      -0.679   5.524  24.651  0.00  0.00    +0.003 A 
ATOM     21  C   UNL     1      -0.466   4.733  24.736  0.00  0.00    +0.021 A 
ENDBRANCH  13  16
ENDBRANCH   7  11
BRANCH   3   2
ATOM      2  N   UNL     1      -2.562  -0.981  24.739  0.00  0.00    -0.214 NA
BRANCH   2   1
ATOM      1  C   UNL     1      -3.316  -1.266  24.911  0.00  0.00    +0.089 C 
BRANCH   1  22
ATOM     22  C   UNL     1      -3.596  -1.946  24.536  0.00  0.00    +0.017 C 
ATOM     23  C   UNL     1      -3.304  -2.687  24.753  0.00  0.00    +0.001 C 
ATOM     24  C   UNL     1      -3.584  -3.366  24.378  0.00  0.00    +0.000 C 
ATOM     25  C   UNL     1      -4.154  -3.306  23.786  0.00  0.00    +0.000 C 
ATOM     26  C   UNL     1      -4.446  -2.565  23.568  0.00  0.00    +0.000 C 
ATOM     27  C   UNL     1      -4.166  -1.885  23.943  0.00  0.00    +0.001 C 
ENDBRANCH   1  22
ENDBRANCH   2   1
ENDBRANCH   3   2
TORSDOF 5
ENDMDL
MODEL 2
REMARK VINA RESULT:      -9.5      1.269      1.968
REMARK  Name = 
REMARK  5 active torsions:
REMARK  status: ('A' for Active; 'I' for Inactive)
REMARK    1  A    between atoms: C_1  and  N_2
REMARK    2  A    between atoms: C_1  and  C_22
REMARK    3  A    between atoms: N_2  and  C_3
REMARK    4  A    between atoms: C_7  and  N_11
REMARK    5  A    between atoms: C_13  and  C_16
REMARK                            x       y       z     vdW  Elec       q    Type
REMARK                         _______ _______ _______ _____ _____    ______ ____
ROOT
ATOM      3  C   UNL     1      -3.597   0.284  24.798  0.00  0.00    +0.132 C 
ATOM      4  C   UNL     1      -2.805   0.381  25.008  0.00  0.00    +0.162 C 
ATOM      5  O   UNL     1      -2.678   1.182  25.158  0.00  0.00    -0.350 OA
ATOM      6  C   UNL     1      -3.390   1.580  25.041  0.00  0.00    +0.168 C 
ATOM      7  C   UNL     1      -3.753   2.321  25.062  0.00  0.00    +0.166 C 
ATOM      8  C   UNL     1      -4.545   2.224  24.852  0.00  0.00    +0.169 C 
ATOM      9  O   UNL     1      -4.672   1.423  24.701  0.00  0.00    -0.350 OA
ATOM     10  C   UNL     1      -3.959   1.025  24.819  0.00  0.00    +0.163 C 
ENDROOT
BRANCH   7  11
ATOM     11  N   UNL     1      -3.387   3.034  25.258  0.00  0.00    -0.227 N 
ATOM     12  C   UNL     1      -2.691   3.329  24.927  0.00  0.00    +0.119 A 
ATOM     13  C   UNL     1      -2.527   4.055  25.284  0.00  0.00    +0.141 A 
ATOM     14  N   UNL     1      -3.121   4.208  25.835  0.00  0.00    -0.127 NA
ATOM     15  N   UNL     1      -3.653   3.577  25.818  0.00  0.00    -0.064 NA
BRANCH  13  16
ATOM     16  C   UNL     1      -1.881   4.542  25.119  0.00  0.00    +0.102 A 
ATOM     17  N   UNL     1      -1.141   4.208  24.971  0.00  0.00    -0.242 NA
ATOM     18  C   UNL     1      -0.496   4.695  24.805  0.00  0.00    +0.099 A 
ATOM     19  C   UNL     1      -0.591   5.515  24.789  0.00  0.00    +0.021 A 
ATOM     20  C   UNL     1      -1.331   5.847  24.937  0.00  0.00    +0.003 A 
ATOM     21  C   UNL     1      -1.976   5.361  25.102  0.00  0.00    +0.021 A 
ENDBRANCH  13  16
ENDBRANCH   7  11
BRANCH   3   2
ATOM      2  N   UNL     1      -3.963  -0.429  24.602  0.00  0.00    -0.214 NA
BRANCH   2   1
ATOM      1  C   UNL     1      -3.764  -1.120  25.006  0.00  0.00    +0.089 C 
BRANCH   1  22
ATOM     22  C   UNL     1      -3.817  -1.851  24.626  0.00  0.00    +0.017 C 
ATOM     23  C   UNL     1      -3.374  -2.491  24.899  0.00  0.00    +0.001 C 
ATOM     24  C   UNL     1      -3.428  -3.221  24.519  0.00  0.00    +0.000 C 
ATOM     25  C   UNL     1      -3.925  -3.311  23.867  0.00  0.00    +0.000 C 
ATOM     26  C   UNL     1      -4.368  -2.671  23.594  0.00  0.00    +0.000 C 
ATOM     27  C   UNL     1      -4.315  -1.940  23.974  0.00  0.00    +0.001 C 
ENDBRANCH   1  22
ENDBRANCH   2   1
ENDBRANCH   3   2
TORSDOF 5
ENDMDL
MODEL 3
REMARK VINA RESULT:      -9.3      1.683      6.231
REMARK  Name = 
REMARK  5 active torsions:
REMARK  status: ('A' for Active; 'I' for Inactive)
REMARK    1  A    between atoms: C_1  and  N_2
REMARK    2  A    between atoms: C_1  and  C_22
REMARK    3  A    between atoms: N_2  and  C_3
REMARK    4  A    between atoms: C_7  and  N_11
REMARK    5  A    between atoms: C_13  and  C_16
REMARK                            x       y       z     vdW  Elec       q    Type
REMARK                         _______ _______ _______ _____ _____    ______ ____
ROOT
ATOM      3  C   UNL     1      -3.207   3.022  24.942  0.00  0.00    +0.132 C 
ATOM      4  C   UNL     1      -3.581   2.731  25.617  0.00  0.00    +0.162 C 
ATOM      5  O   UNL     1      -3.822   1.958  25.461  0.00  0.00    -0.350 OA
ATOM      6  C   UNL     1      -3.599   1.771  24.691  0.00  0.00    +0.168 C 
ATOM      7  C   UNL     1      -3.609   1.178  24.117  0.00  0.00    +0.166 C 
ATOM      8  C   UNL     1      -3.235   1.469  23.441  0.00  0.00    +0.169 C 
ATOM      9  O   UNL     1      -2.994   2.242  23.597  0.00  0.00    -0.350 OA
ATOM     10  C   UNL     1      -3.218   2.429  24.369  0.00  0.00    +0.163 C 
ENDROOT
BRANCH   7  11
ATOM     11  N   UNL     1      -3.936   0.425  24.204  0.00  0.00    -0.227 N 
ATOM     12  C   UNL     1      -3.516  -0.281  24.280  0.00  0.00    +0.119 A 
ATOM     13  C   UNL     1      -4.061  -0.895  24.353  0.00  0.00    +0.141 A 
ATOM     14  N   UNL     1      -4.818  -0.569  24.323  0.00  0.00    -0.127 NA
ATOM     15  N   UNL     1      -4.741   0.247  24.230  0.00  0.00    -0.064 NA
BRANCH  13  16
ATOM     16  C   UNL     1      -3.881  -1.696  24.442  0.00  0.00    +0.102 A 
ATOM     17  N   UNL     1      -3.489  -1.957  25.119  0.00  0.00    -0.242 NA
ATOM     18  C   UNL     1      -3.309  -2.758  25.208  0.00  0.00    +0.099 A 
ATOM     19  C   UNL     1      -3.520  -3.296  24.619  0.00  0.00    +0.021 A 
ATOM     20  C   UNL     1      -3.912  -3.033  23.942  0.00  0.00    +0.003 A 
ATOM     21  C   UNL     1      -4.092  -2.234  23.853  0.00  0.00    +0.021 A 
ENDBRANCH  13  16
ENDBRANCH   7  11
BRANCH   3   2
ATOM      2  N   UNL     1      -2.880   3.774  24.855  0.00  0.00    -0.214 NA
BRANCH   2   1
ATOM      1  C   UNL     1      -2.345   4.059  25.414  0.00  0.00    +0.089 C 
BRANCH   1  22
ATOM     22  C   UNL     1      -1.771   4.610  25.194  0.00  0.00    +0.017 C 
ATOM     23  C   UNL     1      -1.973   5.407  25.120  0.00  0.00    +0.001 C 
ATOM     24  C   UNL     1      -1.400   5.958  24.900  0.00  0.00    +0.000 C 
ATOM     25  C   UNL     1      -0.625   5.713  24.755  0.00  0.00    +0.000 C 
ATOM     26  C   UNL     1      -0.424   4.916  24.829  0.00  0.00    +0.000 C 
ATOM     27  C   UNL     1      -0.997   4.365  25.049  0.00  0.00    +0.001 C 
ENDBRANCH   1  22
ENDBRANCH   2   1
ENDBRANCH   3   2
TORSDOF 5
ENDMDL
MODEL 4
REMARK VINA RESULT:      -9.0      1.048      5.961
REMARK  Name = 
REMARK  5 active torsions:
REMARK  status: ('A' for Active; 'I' for Inactive)
REMARK    1  A    between atoms: C_1  and  N_2
REMARK    2  A    between atoms: C_1  and  C_22
REMARK    3  A    between atoms: N_2  and  C_3
REMARK    4  A    between atoms: C_7  and  N_11
REMARK    5  A    between atoms: C_13  and  C_16
REMARK                            x       y       z     vdW  Elec       q    Type
REMARK                         _______ _______ _______ _____ _____    ______ ____
ROOT
ATOM      3  C   UNL     1      -0.691   2.202  25.209  0.00  0.00    +0.132 C 
ATOM      4  C   UNL     1      -1.065   1.882  25.870  0.00  0.00    +0.162 C 
ATOM      5  O   UNL     1      -1.170   1.075  25.737  0.00  0.00    -0.350 OA
ATOM      6  C   UNL     1      -0.862   0.896  24.993  0.00  0.00    +0.168 C 
ATOM      7  C   UNL     1      -0.736   0.288  24.450  0.00  0.00    +0.166 C 
ATOM      8  C   UNL     1      -0.362   0.609  23.789  0.00  0.00    +0.169 C 
ATOM      9  O   UNL     1      -0.257   1.415  23.923  0.00  0.00    -0.350 OA
ATOM     10  C   UNL     1      -0.565   1.594  24.667  0.00  0.00    +0.163 C 
ENDROOT
BRANCH   7  11
ATOM     11  N   UNL     1      -0.948  -0.503  24.552  0.00  0.00    -0.227 N 
ATOM     12  C   UNL     1      -1.710  -0.814  24.484  0.00  0.00    +0.119 A 
ATOM     13  C   UNL     1      -1.668  -1.625  24.629  0.00  0.00    +0.141 A 
ATOM     14  N   UNL     1      -0.881  -1.815  24.786  0.00  0.00    -0.127 NA
ATOM     15  N   UNL     1      -0.436  -1.122  24.738  0.00  0.00    -0.064 NA
BRANCH  13  16
ATOM     16  C   UNL     1      -2.302  -2.153  24.619  0.00  0.00    +0.102 A 
ATOM     17  N   UNL     1      -2.275  -2.820  24.135  0.00  0.00    -0.242 NA
ATOM     18  C   UNL     1      -2.909  -3.348  24.125  0.00  0.00    +0.099 A 
ATOM     19  C   UNL     1      -3.569  -3.209  24.599  0.00  0.00    +0.021 A 
ATOM     20  C   UNL     1      -3.596  -2.541  25.083  0.00  0.00    +0.003 A 
ATOM     21  C   UNL     1      -2.962  -2.014  25.093  0.00  0.00    +0.021 A 
ENDBRANCH  13  16
ENDBRANCH   7  11
BRANCH   3   2
ATOM      2  N   UNL     1      -0.479   2.993  25.107  0.00  0.00    -0.214 NA
BRANCH   2   1
ATOM      1  C   UNL     1      -0.790   3.571  25.607  0.00  0.00    +0.089 C 
BRANCH   1  22
ATOM     22  C   UNL     1      -0.979   4.317  25.309  0.00  0.00    +0.017 C 
ATOM     23  C   UNL     1      -1.717   4.650  25.469  0.00  0.00    +0.001 C 
ATOM     24  C   UNL     1      -1.906   5.395  25.170  0.00  0.00    +0.000 C 
ATOM     25  C   UNL     1      -1.358   5.808  24.712  0.00  0.00    +0.000 C 
ATOM     26  C   UNL     1      -0.620   5.474  24.551  0.00  0.00    +0.000 C 
ATOM     27  C   UNL     1      -0.431   4.729  24.850  0.00  0.00    +0.001 C 
ENDBRANCH   1  22
ENDBRANCH   2   1
ENDBRANCH   3   2
TORSDOF 5
ENDMDL
MODEL 5
REMARK VINA RESULT:      -9.0      3.057      4.507
REMARK  Name = 
REMARK  5 active torsions:
REMARK  status: ('A' for Active; 'I' for Inactive)
REMARK    1  A    between atoms: C_1  and  N_2
REMARK    2  A    between atoms: C_1  and  C_22
REMARK    3  A    between atoms: N_2  and  C_3
REMARK    4  A    between atoms: C_7  and  N_11
REMARK    5  A    between atoms: C_13  and  C_16
REMARK                            x       y       z     vdW  Elec       q    Type
REMARK                         _______ _______ _______ _____ _____    ______ ____
ROOT
ATOM      3  C   UNL     1      -2.609   1.679  24.288  0.00  0.00    +0.132 C 
ATOM      4  C   UNL     1      -2.562   1.538  23.477  0.00  0.00    +0.162 C 
ATOM      5  O   UNL     1      -1.859   1.133  23.330  0.00  0.00    -0.350 OA
ATOM      6  C   UNL     1      -1.471   1.024  24.050  0.00  0.00    +0.168 C 
ATOM      7  C   UNL     1      -0.797   0.707  24.405  0.00  0.00    +0.166 C 
ATOM      8  C   UNL     1      -0.845   0.849  25.216  0.00  0.00    +0.169 C 
ATOM      9  O   UNL     1      -1.548   1.253  25.363  0.00  0.00    -0.350 OA
ATOM     10  C   UNL     1      -1.936   1.362  24.642  0.00  0.00    +0.163 C 
ENDROOT
BRANCH   7  11
ATOM     11  N   UNL     1      -0.183   0.317  24.016  0.00  0.00    -0.227 N 
ATOM     12  C   UNL     1       0.484   0.671  23.683  0.00  0.00    +0.119 A 
ATOM     13  C   UNL     1       0.951   0.077  23.353  0.00  0.00    +0.141 A 
ATOM     14  N   UNL     1       0.573  -0.645  23.482  0.00  0.00    -0.127 NA
ATOM     15  N   UNL     1      -0.127  -0.496  23.892  0.00  0.00    -0.064 NA
BRANCH  13  16
ATOM     16  C   UNL     1       1.669   0.186  22.962  0.00  0.00    +0.102 A 
ATOM     17  N   UNL     1       2.261   0.645  23.308  0.00  0.00    -0.242 NA
ATOM     18  C   UNL     1       2.980   0.754  22.917  0.00  0.00    +0.099 A 
ATOM     19  C   UNL     1       3.107   0.403  22.182  0.00  0.00    +0.021 A 
ATOM     20  C   UNL     1       2.515  -0.057  21.837  0.00  0.00    +0.003 A 
ATOM     21  C   UNL     1       1.796  -0.166  22.227  0.00  0.00    +0.021 A 
ENDBRANCH  13  16
ENDBRANCH   7  11
BRANCH   3   2
ATOM      2  N   UNL     1      -3.224   2.070  24.677  0.00  0.00    -0.214 NA
BRANCH   2   1
ATOM      1  C   UNL     1      -3.967   2.123  24.325  0.00  0.00    +0.089 C 
BRANCH   1  22
ATOM     22  C   UNL     1      -4.621   2.354  24.773  0.00  0.00    +0.017 C 
ATOM     23  C   UNL     1      -4.648   3.108  25.105  0.00  0.00    +0.001 C 
ATOM     24  C   UNL     1      -5.301   3.338  25.552  0.00  0.00    +0.000 C 
ATOM     25  C   UNL     1      -5.928   2.814  25.668  0.00  0.00    +0.000 C 
ATOM     26  C   UNL     1      -5.901   2.059  25.336  0.00  0.00    +0.000 C 
ATOM     27  C   UNL     1      -5.247   1.829  24.888  0.00  0.00    +0.001 C 
ENDBRANCH   1  22
ENDBRANCH   2   1
ENDBRANCH   3   2
TORSDOF 5
ENDMDL
MODEL 6
REMARK VINA RESULT:      -8.6      3.129      4.455
REMARK  Name = 
REMARK  5 active torsions:
REMARK  status: ('A' for Active; 'I' for Inactive)
REMARK    1  A    between atoms: C_1  and  N_2
REMARK    2  A    between atoms: C_1  and  C_22
REMARK    3  A    between atoms: N_2  and  C_3
REMARK    4  A    between atoms: C_7  and  N_11
REMARK    5  A    between atoms: C_13  and  C_16
REMARK                            x       y       z     vdW  Elec       q    Type
REMARK                         _______ _______ _______ _____ _____    ______ ____
ROOT
ATOM      3  C   UNL     1      -0.950  -0.463  24.361  0.00  0.00    +0.132 C 
ATOM      4  C   UNL     1      -0.499  -1.151  24.425  0.00  0.00    +0.162 C 
ATOM      5  O   UNL     1       0.211  -1.027  24.025  0.00  0.00    -0.350 OA
ATOM      6  C   UNL     1       0.200  -0.264  23.714  0.00  0.00    +0.168 C 
ATOM      7  C   UNL     1       0.632   0.285  23.274  0.00  0.00    +0.166 C 
ATOM      8  C   UNL     1       0.181   0.973  23.210  0.00  0.00    +0.169 C 
ATOM      9  O   UNL     1      -0.530   0.849  23.610  0.00  0.00    -0.350 OA
ATOM     10  C   UNL     1      -0.518   0.085  23.921  0.00  0.00    +0.163 C 
ENDROOT
BRANCH   7  11
ATOM     11  N   UNL     1       1.383   0.166  22.954  0.00  0.00    -0.227 N 
ATOM     12  C   UNL     1       2.101   0.301  23.339  0.00  0.00    +0.119 A 
ATOM     13  C   UNL     1       2.710   0.110  22.816  0.00  0.00    +0.141 A 
ATOM     14  N   UNL     1       2.369  -0.143  22.110  0.00  0.00    -0.127 NA
ATOM     15  N   UNL     1       1.549  -0.108  22.195  0.00  0.00    -0.064 NA
BRANCH  13  16
ATOM     16  C   UNL     1       3.518   0.163  22.973  0.00  0.00    +0.102 A 
ATOM     17  N   UNL     1       3.919  -0.483  23.295  0.00  0.00    -0.242 NA
ATOM     18  C   UNL     1       4.727  -0.430  23.453  0.00  0.00    +0.099 A 
ATOM     19  C   UNL     1       5.135   0.268  23.288  0.00  0.00    +0.021 A 
ATOM     20  C   UNL     1       4.734   0.914  22.966  0.00  0.00    +0.003 A 
ATOM     21  C   UNL     1       3.926   0.861  22.809  0.00  0.00    +0.021 A 
ENDBRANCH  13  16
ENDBRANCH   7  11
BRANCH   3   2
ATOM      2  N   UNL     1      -1.702  -0.344  24.680  0.00  0.00    -0.214 NA
BRANCH   2   1
ATOM      1  C   UNL     1      -2.228  -0.976  24.742  0.00  0.00    +0.089 C 
BRANCH   1  22
ATOM     22  C   UNL     1      -3.042  -0.837  24.740  0.00  0.00    +0.017 C 
ATOM     23  C   UNL     1      -3.525  -1.220  24.192  0.00  0.00    +0.001 C 
ATOM     24  C   UNL     1      -4.337  -1.081  24.190  0.00  0.00    +0.000 C 
ATOM     25  C   UNL     1      -4.668  -0.559  24.736  0.00  0.00    +0.000 C 
ATOM     26  C   UNL     1      -4.185  -0.175  25.284  0.00  0.00    +0.000 C 
ATOM     27  C   UNL     1      -3.372  -0.314  25.286  0.00  0.00    +0.001 C 
ENDBRANCH   1  22
ENDBRANCH   2   1
ENDBRANCH   3   2
TORSDOF 5
ENDMDL
MODEL 7
REMARK VINA RESULT:      -8.5      3.008      5.840
REMARK  Name = 
REMARK  5 active torsions:
REMARK  status: ('A' for Active; 'I' for Inactive)
REMARK    1  A    between atoms: C_1  and  N_2
REMARK    2  A    between atoms: C_1  and  C_22
REMARK    3  A    between atoms: N_2  and  C_3
REMARK    4  A    between atoms: C_7  and  N_11
REMARK    5  A    between atoms: C_13  and  C_16
REMARK                            x       y       z     vdW  Elec       q    Type
REMARK                         _______ _______ _______ _____ _____    ______ ____
ROOT
ATOM      3  C   UNL     1       1.645   0.507  23.179  0.00  0.00    +0.132 C 
ATOM      4  C   UNL     1       1.239  -0.088  22.778  0.00  0.00    +0.162 C 
ATOM      5  O   UNL     1       0.441  -0.031  22.978  0.00  0.00    -0.350 OA
ATOM      6  C   UNL     1       0.354   0.599  23.502  0.00  0.00    +0.168 C 
ATOM      7  C   UNL     1      -0.193   1.024  23.951  0.00  0.00    +0.166 C 
ATOM      8  C   UNL     1       0.213   1.619  24.352  0.00  0.00    +0.169 C 
ATOM      9  O   UNL     1       1.011   1.562  24.152  0.00  0.00    -0.350 OA
ATOM     10  C   UNL     1       1.098   0.931  23.627  0.00  0.00    +0.163 C 
ENDROOT
BRANCH   7  11
ATOM     11  N   UNL     1      -1.004   0.879  23.990  0.00  0.00    -0.227 N 
ATOM     12  C   UNL     1      -1.368   0.262  24.401  0.00  0.00    +0.119 A 
ATOM     13  C   UNL     1      -2.182   0.327  24.290  0.00  0.00    +0.141 A 
ATOM     14  N   UNL     1      -2.323   0.984  23.812  0.00  0.00    -0.127 NA
ATOM     15  N   UNL     1      -1.595   1.325  23.627  0.00  0.00    -0.064 NA
BRANCH  13  16
ATOM     16  C   UNL     1      -2.756  -0.176  24.604  0.00  0.00    +0.102 A 
ATOM     17  N   UNL     1      -2.638  -0.528  25.341  0.00  0.00    -0.242 NA
ATOM     18  C   UNL     1      -3.212  -1.032  25.654  0.00  0.00    +0.099 A 
ATOM     19  C   UNL     1      -3.903  -1.183  25.230  0.00  0.00    +0.021 A 
ATOM     20  C   UNL     1      -4.021  -0.831  24.494  0.00  0.00    +0.003 A 
ATOM     21  C   UNL     1      -3.448  -0.328  24.180  0.00  0.00    +0.021 A 
ENDBRANCH  13  16
ENDBRANCH   7  11
BRANCH   3   2
ATOM      2  N   UNL     1       2.457   0.652  23.140  0.00  0.00    -0.214 NA
BRANCH   2   1
ATOM      1  C   UNL     1       2.968   0.065  22.866  0.00  0.00    +0.089 C 
BRANCH   1  22
ATOM     22  C   UNL     1       3.766   0.082  23.076  0.00  0.00    +0.017 C 
ATOM     23  C   UNL     1       4.219   0.754  22.921  0.00  0.00    +0.001 C 
ATOM     24  C   UNL     1       5.016   0.771  23.130  0.00  0.00    +0.000 C 
ATOM     25  C   UNL     1       5.361   0.116  23.495  0.00  0.00    +0.000 C 
ATOM     26  C   UNL     1       4.908  -0.556  23.650  0.00  0.00    +0.000 C 
ATOM     27  C   UNL     1       4.110  -0.573  23.441  0.00  0.00    +0.001 C 
ENDBRANCH   1  22
ENDBRANCH   2   1
ENDBRANCH   3   2
TORSDOF 5
ENDMDL
