MODEL 1
REMARK VINA RESULT:      -8.4      0.000      0.000
REMARK  Name = 
REMARK  8 active torsions:
REMARK  status: ('A' for Active; 'I' for Inactive)
REMARK    1  A    between atoms: O_2  and  C_3
REMARK    2  A    between atoms: C_3  and  C_4
REMARK    3  A    between atoms: C_4  and  O_5
REMARK    4  A    between atoms: O_5  and  C_6
REMARK    5  A    between atoms: C_9  and  C_12
REMARK    6  A    between atoms: C_15  and  C_17
REMARK    7  A    between atoms: N_21  and  C_22
REMARK    8  A    between atoms: C_22  and  C_23
REMARK                            x       y       z     vdW  Elec       q    Type
REMARK                         _______ _______ _______ _____ _____    ______ ____
ROOT
ATOM     12  C   UNL     1      -3.826   1.968  24.402  0.00  0.00    +0.205 A 
ATOM     13  N   UNL     1      -4.020   2.561  23.863  0.00  0.00    -0.056 NA
ATOM     14  O   UNL     1      -3.794   3.284  24.187  0.00  0.00    -0.336 OA
ATOM     15  C   UNL     1      -3.459   3.139  24.927  0.00  0.00    +0.251 A 
ATOM     16  N   UNL     1      -3.479   2.325  25.061  0.00  0.00    -0.190 NA
ENDROOT
BRANCH  12   9
ATOM      6  C   UNL     1      -4.214  -0.458  24.098  0.00  0.00    +0.225 A 
ATOM      7  C   UNL     1      -4.653  -0.036  24.656  0.00  0.00    +0.058 A 
ATOM      8  C   UNL     1      -4.523   0.772  24.757  0.00  0.00    +0.010 A 
ATOM      9  C   UNL     1      -3.956   1.159  24.301  0.00  0.00    +0.058 A 
ATOM     10  C   UNL     1      -3.517   0.738  23.743  0.00  0.00    +0.105 A 
ATOM     11  N   UNL     1      -3.647  -0.071  23.642  0.00  0.00    -0.210 NA
BRANCH   6   5
ATOM      5  O   UNL     1      -4.344  -1.266  23.997  0.00  0.00    -0.457 OA
BRANCH   5   4
ATOM      4  C   UNL     1      -3.826  -1.812  24.335  0.00  0.00    +0.239 C 
BRANCH   4   3
ATOM      3  C   UNL     1      -3.904  -2.615  24.164  0.00  0.00    +0.189 C 
BRANCH   3   2
ATOM      1  C   UNL     1      -2.715  -3.304  24.556  0.00  0.00    +0.174 C 
ATOM      2  O   UNL     1      -3.527  -3.175  24.637  0.00  0.00    -0.347 OA
ENDBRANCH   3   2
ENDBRANCH   4   3
ENDBRANCH   5   4
ENDBRANCH   6   5
ENDBRANCH  12   9
BRANCH  15  17
ATOM     17  C   UNL     1      -3.157   3.707  25.445  0.00  0.00    +0.138 C 
ATOM     18  C   UNL     1      -3.569   4.064  26.065  0.00  0.00    +0.027 C 
ATOM     19  C   UNL     1      -3.058   4.595  26.436  0.00  0.00    +0.019 C 
ATOM     20  C   UNL     1      -2.332   4.566  26.045  0.00  0.00    +0.073 C 
ATOM     21  N   UNL     1      -2.394   4.017  25.433  0.00  0.00    -0.266 NA
BRANCH  21  22
ATOM     22  C   UNL     1      -1.797   3.814  24.901  0.00  0.00    +0.072 C 
BRANCH  22  23
ATOM     23  C   UNL     1      -1.029   4.094  25.017  0.00  0.00    +0.016 C 
ATOM     24  C   UNL     1      -0.827   4.856  24.774  0.00  0.00    +0.001 C 
ATOM     25  C   UNL     1      -0.464   3.611  25.374  0.00  0.00    +0.001 C 
ENDBRANCH  22  23
ENDBRANCH  21  22
ENDBRANCH  15  17
TORSDOF 8
ENDMDL
MODEL 2
REMARK VINA RESULT:      -8.2      3.537      4.752
REMARK  Name = 
REMARK  8 active torsions:
REMARK  status: ('A' for Active; 'I' for Inactive)
REMARK    1  A    between atoms: O_2  and  C_3
REMARK    2  A    between atoms: C_3  and  C_4
REMARK    3  A    between atoms: C_4  and  O_5
REMARK    4  A    between atoms: O_5  and  C_6
REMARK    5  A    between atoms: C_9  and  C_12
REMARK    6  A    between atoms: C_15  and  C_17
REMARK    7  A    between atoms: N_21  and  C_22
REMARK    8  A    between atoms: C_22  and  C_23
REMARK                            x       y       z     vdW  Elec       q    Type
REMARK                         _______ _______ _______ _____ _____    ______ ____
ROOT
ATOM     12  C   UNL     1      -1.275   0.337  24.592  0.00  0.00    +0.205 A 
ATOM     13  N   UNL     1      -1.317   0.409  25.413  0.00  0.00    -0.056 NA
ATOM     14  O   UNL     1      -2.110   0.504  25.619  0.00  0.00    -0.336 OA
ATOM     15  C   UNL     1      -2.558   0.491  24.926  0.00  0.00    +0.251 A 
ATOM     16  N   UNL     1      -2.041   0.388  24.291  0.00  0.00    -0.190 NA
ENDROOT
BRANCH  12   9
ATOM      6  C   UNL     1       0.792   0.026  23.266  0.00  0.00    +0.225 A 
ATOM      7  C   UNL     1       0.400  -0.629  23.580  0.00  0.00    +0.058 A 
ATOM      8  C   UNL     1      -0.288  -0.525  24.022  0.00  0.00    +0.010 A 
ATOM      9  C   UNL     1      -0.585   0.233  24.150  0.00  0.00    +0.058 A 
ATOM     10  C   UNL     1      -0.194   0.888  23.836  0.00  0.00    +0.105 A 
ATOM     11  N   UNL     1       0.495   0.784  23.394  0.00  0.00    -0.210 NA
BRANCH   6   5
ATOM      5  O   UNL     1       1.481  -0.078  22.824  0.00  0.00    -0.457 OA
BRANCH   5   4
ATOM      4  C   UNL     1       2.146   0.385  22.981  0.00  0.00    +0.239 C 
BRANCH   4   3
ATOM      3  C   UNL     1       2.864   0.213  22.614  0.00  0.00    +0.189 C 
BRANCH   3   2
ATOM      1  C   UNL     1       4.264   0.491  22.690  0.00  0.00    +0.174 C 
ATOM      2  O   UNL     1       3.483   0.757  22.646  0.00  0.00    -0.347 OA
ENDBRANCH   3   2
ENDBRANCH   4   3
ENDBRANCH   5   4
ENDBRANCH   6   5
ENDBRANCH  12   9
BRANCH  15  17
ATOM     17  C   UNL     1      -3.378   0.567  24.875  0.00  0.00    +0.138 C 
ATOM     18  C   UNL     1      -3.923  -0.054  24.871  0.00  0.00    +0.027 C 
ATOM     19  C   UNL     1      -4.679   0.272  24.813  0.00  0.00    +0.019 C 
ATOM     20  C   UNL     1      -4.601   1.093  24.783  0.00  0.00    +0.073 C 
ATOM     21  N   UNL     1      -3.797   1.275  24.821  0.00  0.00    -0.266 NA
BRANCH  21  22
ATOM     22  C   UNL     1      -3.470   2.031  24.807  0.00  0.00    +0.072 C 
BRANCH  22  23
ATOM     23  C   UNL     1      -3.956   2.689  24.696  0.00  0.00    +0.016 C 
ATOM     24  C   UNL     1      -4.314   3.052  25.344  0.00  0.00    +0.001 C 
ATOM     25  C   UNL     1      -4.082   2.984  23.936  0.00  0.00    +0.001 C 
ENDBRANCH  22  23
ENDBRANCH  21  22
ENDBRANCH  15  17
TORSDOF 8
ENDMDL
MODEL 3
REMARK VINA RESULT:      -8.2      3.732      5.638
REMARK  Name = 
REMARK  8 active torsions:
REMARK  status: ('A' for Active; 'I' for Inactive)
REMARK    1  A    between atoms: O_2  and  C_3
REMARK    2  A    between atoms: C_3  and  C_4
REMARK    3  A    between atoms: C_4  and  O_5
REMARK    4  A    between atoms: O_5  and  C_6
REMARK    5  A    between atoms: C_9  and  C_12
REMARK    6  A    between atoms: C_15  and  C_17
REMARK    7  A    between atoms: N_21  and  C_22
REMARK    8  A    between atoms: C_22  and  C_23
REMARK                            x       y       z     vdW  Elec       q    Type
REMARK                         _______ _______ _______ _____ _____    ______ ____
ROOT
ATOM     12  C   UNL     1      -0.884   0.185  24.448  0.00  0.00    +0.205 A 
ATOM     13  N   UNL     1      -0.926   0.175  25.272  0.00  0.00    -0.056 NA
ATOM     14  O   UNL     1      -1.721   0.121  25.485  0.00  0.00    -0.336 OA
ATOM     15  C   UNL     1      -2.170   0.098  24.792  0.00  0.00    +0.251 A 
ATOM     16  N   UNL     1      -1.652   0.138  24.152  0.00  0.00    -0.190 NA
ENDROOT
BRANCH  12   9
ATOM      6  C   UNL     1       1.189   0.335  23.103  0.00  0.00    +0.225 A 
ATOM      7  C   UNL     1       0.796  -0.388  23.177  0.00  0.00    +0.058 A 
ATOM      8  C   UNL     1       0.105  -0.437  23.626  0.00  0.00    +0.010 A 
ATOM      9  C   UNL     1      -0.192   0.235  23.999  0.00  0.00    +0.058 A 
ATOM     10  C   UNL     1       0.200   0.957  23.925  0.00  0.00    +0.105 A 
ATOM     11  N   UNL     1       0.891   1.006  23.476  0.00  0.00    -0.210 NA
BRANCH   6   5
ATOM      5  O   UNL     1       1.879   0.384  22.654  0.00  0.00    -0.457 OA
BRANCH   5   4
ATOM      4  C   UNL     1       2.610   0.458  23.030  0.00  0.00    +0.239 C 
BRANCH   4   3
ATOM      3  C   UNL     1       3.303   0.477  22.583  0.00  0.00    +0.189 C 
BRANCH   3   2
ATOM      1  C   UNL     1       4.668   0.475  23.006  0.00  0.00    +0.174 C 
ATOM      2  O   UNL     1       3.964   0.882  22.865  0.00  0.00    -0.347 OA
ENDBRANCH   3   2
ENDBRANCH   4   3
ENDBRANCH   5   4
ENDBRANCH   6   5
ENDBRANCH  12   9
BRANCH  15  17
ATOM     17  C   UNL     1      -2.992   0.045  24.748  0.00  0.00    +0.138 C 
ATOM     18  C   UNL     1      -3.523   0.673  24.824  0.00  0.00    +0.027 C 
ATOM     19  C   UNL     1      -4.287   0.371  24.743  0.00  0.00    +0.019 C 
ATOM     20  C   UNL     1      -4.228  -0.442  24.616  0.00  0.00    +0.073 C 
ATOM     21  N   UNL     1      -3.428  -0.643  24.620  0.00  0.00    -0.266 NA
BRANCH  21  22
ATOM     22  C   UNL     1      -3.118  -1.400  24.513  0.00  0.00    +0.072 C 
BRANCH  22  23
ATOM     23  C   UNL     1      -3.621  -2.054  24.500  0.00  0.00    +0.016 C 
ATOM     24  C   UNL     1      -3.641  -2.572  25.141  0.00  0.00    +0.001 C 
ATOM     25  C   UNL     1      -4.104  -2.189  23.845  0.00  0.00    +0.001 C 
ENDBRANCH  22  23
ENDBRANCH  21  22
ENDBRANCH  15  17
TORSDOF 8
ENDMDL
MODEL 4
REMARK VINA RESULT:      -8.2      2.059      2.777
REMARK  Name = 
REMARK  8 active torsions:
REMARK  status: ('A' for Active; 'I' for Inactive)
REMARK    1  A    between atoms: O_2  and  C_3
REMARK    2  A    between atoms: C_3  and  C_4
REMARK    3  A    between atoms: C_4  and  O_5
REMARK    4  A    between atoms: O_5  and  C_6
REMARK    5  A    between atoms: C_9  and  C_12
REMARK    6  A    between atoms: C_15  and  C_17
REMARK    7  A    between atoms: N_21  and  C_22
REMARK    8  A    between atoms: C_22  and  C_23
REMARK                            x       y       z     vdW  Elec       q    Type
REMARK                         _______ _______ _______ _____ _____    ______ ____
ROOT
ATOM     12  C   UNL     1      -0.696   1.610  25.436  0.00  0.00    +0.205 A 
ATOM     13  N   UNL     1      -0.142   1.895  25.977  0.00  0.00    -0.056 NA
ATOM     14  O   UNL     1      -0.200   2.717  25.992  0.00  0.00    -0.336 OA
ATOM     15  C   UNL     1      -0.789   2.942  25.459  0.00  0.00    +0.251 A 
ATOM     16  N   UNL     1      -1.096   2.257  25.116  0.00  0.00    -0.190 NA
ENDROOT
BRANCH  12   9
ATOM      6  C   UNL     1      -1.087  -0.767  24.871  0.00  0.00    +0.225 A 
ATOM      7  C   UNL     1      -1.280  -0.484  25.622  0.00  0.00    +0.058 A 
ATOM      8  C   UNL     1      -1.149   0.308  25.810  0.00  0.00    +0.010 A 
ATOM      9  C   UNL     1      -0.827   0.817  25.248  0.00  0.00    +0.058 A 
ATOM     10  C   UNL     1      -0.634   0.535  24.497  0.00  0.00    +0.105 A 
ATOM     11  N   UNL     1      -0.764  -0.258  24.309  0.00  0.00    -0.210 NA
BRANCH   6   5
ATOM      5  O   UNL     1      -1.218  -1.560  24.684  0.00  0.00    -0.457 OA
BRANCH   5   4
ATOM      4  C   UNL     1      -1.981  -1.873  24.724  0.00  0.00    +0.239 C 
BRANCH   4   3
ATOM      3  C   UNL     1      -2.156  -2.582  24.342  0.00  0.00    +0.189 C 
BRANCH   3   2
ATOM      1  C   UNL     1      -3.548  -2.891  24.242  0.00  0.00    +0.174 C 
ATOM      2  O   UNL     1      -2.808  -3.028  24.581  0.00  0.00    -0.347 OA
ENDBRANCH   3   2
ENDBRANCH   4   3
ENDBRANCH   5   4
ENDBRANCH   6   5
ENDBRANCH  12   9
BRANCH  15  17
ATOM     17  C   UNL     1      -1.030   3.714  25.298  0.00  0.00    +0.138 C 
ATOM     18  C   UNL     1      -0.574   4.298  24.934  0.00  0.00    +0.027 C 
ATOM     19  C   UNL     1      -1.031   4.983  24.884  0.00  0.00    +0.019 C 
ATOM     20  C   UNL     1      -1.769   4.822  25.215  0.00  0.00    +0.073 C 
ATOM     21  N   UNL     1      -1.768   4.038  25.471  0.00  0.00    -0.266 NA
BRANCH  21  22
ATOM     22  C   UNL     1      -2.396   3.647  25.836  0.00  0.00    +0.072 C 
BRANCH  22  23
ATOM     23  C   UNL     1      -3.118   4.033  25.941  0.00  0.00    +0.016 C 
ATOM     24  C   UNL     1      -3.244   4.498  26.610  0.00  0.00    +0.001 C 
ATOM     25  C   UNL     1      -3.713   3.952  25.376  0.00  0.00    +0.001 C 
ENDBRANCH  22  23
ENDBRANCH  21  22
ENDBRANCH  15  17
TORSDOF 8
ENDMDL
MODEL 5
REMARK VINA RESULT:      -7.9      2.855      3.950
REMARK  Name = 
REMARK  8 active torsions:
REMARK  status: ('A' for Active; 'I' for Inactive)
REMARK    1  A    between atoms: O_2  and  C_3
REMARK    2  A    between atoms: C_3  and  C_4
REMARK    3  A    between atoms: C_4  and  O_5
REMARK    4  A    between atoms: O_5  and  C_6
REMARK    5  A    between atoms: C_9  and  C_12
REMARK    6  A    between atoms: C_15  and  C_17
REMARK    7  A    between atoms: N_21  and  C_22
REMARK    8  A    between atoms: C_22  and  C_23
REMARK                            x       y       z     vdW  Elec       q    Type
REMARK                         _______ _______ _______ _____ _____    ______ ____
ROOT
ATOM     12  C   UNL     1      -2.553   2.080  23.898  0.00  0.00    +0.205 A 
ATOM     13  N   UNL     1      -3.000   2.284  23.236  0.00  0.00    -0.056 NA
ATOM     14  O   UNL     1      -3.664   2.698  23.495  0.00  0.00    -0.336 OA
ATOM     15  C   UNL     1      -3.628   2.749  24.318  0.00  0.00    +0.251 A 
ATOM     16  N   UNL     1      -2.941   2.367  24.567  0.00  0.00    -0.190 NA
ENDROOT
BRANCH  12   9
ATOM      6  C   UNL     1      -0.419   0.824  23.880  0.00  0.00    +0.225 A 
ATOM      7  C   UNL     1      -1.137   0.418  23.910  0.00  0.00    +0.058 A 
ATOM      8  C   UNL     1      -1.848   0.837  23.916  0.00  0.00    +0.010 A 
ATOM      9  C   UNL     1      -1.841   1.661  23.892  0.00  0.00    +0.058 A 
ATOM     10  C   UNL     1      -1.124   2.067  23.862  0.00  0.00    +0.105 A 
ATOM     11  N   UNL     1      -0.413   1.648  23.856  0.00  0.00    -0.210 NA
BRANCH   6   5
ATOM      5  O   UNL     1       0.291   0.405  23.874  0.00  0.00    -0.457 OA
BRANCH   5   4
ATOM      4  C   UNL     1       0.683   0.268  23.160  0.00  0.00    +0.239 C 
BRANCH   4   3
ATOM      3  C   UNL     1       1.464   0.004  23.163  0.00  0.00    +0.189 C 
BRANCH   3   2
ATOM      1  C   UNL     1       2.712   0.065  22.469  0.00  0.00    +0.174 C 
ATOM      2  O   UNL     1       1.891  -0.026  22.458  0.00  0.00    -0.347 OA
ENDBRANCH   3   2
ENDBRANCH   4   3
ENDBRANCH   5   4
ENDBRANCH   6   5
ENDBRANCH  12   9
BRANCH  15  17
ATOM     17  C   UNL     1      -4.181   3.118  24.807  0.00  0.00    +0.138 C 
ATOM     18  C   UNL     1      -4.123   3.883  25.113  0.00  0.00    +0.027 C 
ATOM     19  C   UNL     1      -4.795   4.025  25.571  0.00  0.00    +0.019 C 
ATOM     20  C   UNL     1      -5.267   3.349  25.547  0.00  0.00    +0.073 C 
ATOM     21  N   UNL     1      -4.887   2.789  25.075  0.00  0.00    -0.266 NA
BRANCH  21  22
ATOM     22  C   UNL     1      -5.166   2.032  24.901  0.00  0.00    +0.072 C 
BRANCH  22  23
ATOM     23  C   UNL     1      -5.885   1.775  25.214  0.00  0.00    +0.016 C 
ATOM     24  C   UNL     1      -6.576   1.841  24.769  0.00  0.00    +0.001 C 
ATOM     25  C   UNL     1      -5.912   1.452  25.973  0.00  0.00    +0.001 C 
ENDBRANCH  22  23
ENDBRANCH  21  22
ENDBRANCH  15  17
TORSDOF 8
ENDMDL
MODEL 6
REMARK VINA RESULT:      -7.7      1.256      5.448
REMARK  Name = 
REMARK  8 active torsions:
REMARK  status: ('A' for Active; 'I' for Inactive)
REMARK    1  A    between atoms: O_2  and  C_3
REMARK    2  A    between atoms: C_3  and  C_4
REMARK    3  A    between atoms: C_4  and  O_5
REMARK    4  A    between atoms: O_5  and  C_6
REMARK    5  A    between atoms: C_9  and  C_12
REMARK    6  A    between atoms: C_15  and  C_17
REMARK    7  A    between atoms: N_21  and  C_22
REMARK    8  A    between atoms: C_22  and  C_23
REMARK                            x       y       z     vdW  Elec       q    Type
REMARK                         _______ _______ _______ _____ _____    ______ ____
ROOT
ATOM     12  C   UNL     1      -3.914   0.751  24.899  0.00  0.00    +0.205 A 
ATOM     13  N   UNL     1      -4.392   0.431  25.490  0.00  0.00    -0.056 NA
ATOM     14  O   UNL     1      -4.463  -0.378  25.350  0.00  0.00    -0.336 OA
ATOM     15  C   UNL     1      -4.029  -0.560  24.672  0.00  0.00    +0.251 A 
ATOM     16  N   UNL     1      -3.689   0.138  24.393  0.00  0.00    -0.190 NA
ENDROOT
BRANCH  12   9
ATOM      6  C   UNL     1      -3.265   3.129  24.681  0.00  0.00    +0.225 A 
ATOM      7  C   UNL     1      -4.053   2.905  24.579  0.00  0.00    +0.058 A 
ATOM      8  C   UNL     1      -4.268   2.113  24.652  0.00  0.00    +0.010 A 
ATOM      9  C   UNL     1      -3.698   1.544  24.826  0.00  0.00    +0.058 A 
ATOM     10  C   UNL     1      -2.910   1.767  24.928  0.00  0.00    +0.105 A 
ATOM     11  N   UNL     1      -2.694   2.561  24.855  0.00  0.00    -0.210 NA
BRANCH   6   5
ATOM      5  O   UNL     1      -3.049   3.922  24.608  0.00  0.00    -0.457 OA
BRANCH   5   4
ATOM      4  C   UNL     1      -2.351   4.193  24.956  0.00  0.00    +0.239 C 
BRANCH   4   3
ATOM      3  C   UNL     1      -2.143   4.989  24.895  0.00  0.00    +0.189 C 
BRANCH   3   2
ATOM      1  C   UNL     1      -0.764   5.364  24.871  0.00  0.00    +0.174 C 
ATOM      2  O   UNL     1      -1.472   5.270  25.285  0.00  0.00    -0.347 OA
ENDBRANCH   3   2
ENDBRANCH   4   3
ENDBRANCH   5   4
ENDBRANCH   6   5
ENDBRANCH  12   9
BRANCH  15  17
ATOM     17  C   UNL     1      -3.948  -1.307  24.331  0.00  0.00    +0.138 C 
ATOM     18  C   UNL     1      -4.502  -1.681  23.846  0.00  0.00    +0.027 C 
ATOM     19  C   UNL     1      -4.196  -2.417  23.631  0.00  0.00    +0.019 C 
ATOM     20  C   UNL     1      -3.454  -2.497  23.984  0.00  0.00    +0.073 C 
ATOM     21  N   UNL     1      -3.302  -1.811  24.416  0.00  0.00    -0.266 NA
BRANCH  21  22
ATOM     22  C   UNL     1      -2.621  -1.657  24.856  0.00  0.00    +0.072 C 
BRANCH  22  23
ATOM     23  C   UNL     1      -1.964  -2.152  24.787  0.00  0.00    +0.016 C 
ATOM     24  C   UNL     1      -1.312  -1.911  24.345  0.00  0.00    +0.001 C 
ATOM     25  C   UNL     1      -1.961  -2.887  25.161  0.00  0.00    +0.001 C 
ENDBRANCH  22  23
ENDBRANCH  21  22
ENDBRANCH  15  17
TORSDOF 8
ENDMDL
