MODEL 1
REMARK VINA RESULT:     -11.6      0.000      0.000
REMARK  Name = 
REMARK  6 active torsions:
REMARK  status: ('A' for Active; 'I' for Inactive)
REMARK    1  A    between atoms: C_2  and  C_4
REMARK    2  A    between atoms: C_4  and  C_5
REMARK    3  A    between atoms: C_10  and  C_11
REMARK    4  A    between atoms: C_11  and  C_12
REMARK    5  A    between atoms: C_12  and  N_13
REMARK    6  A    between atoms: N_21  and  C_22
REMARK                            x       y       z     vdW  Elec       q    Type
REMARK                         _______ _______ _______ _____ _____    ______ ____
ROOT
ATOM      5  C   UNL     1      -4.433   2.419  25.147  0.00  0.00    +0.015 C 
ATOM      6  C   UNL     1      -4.979   1.804  25.200  0.00  0.00    +0.022 C 
ATOM      7  C   UNL     1      -4.742   1.028  25.056  0.00  0.00    +0.095 C 
ATOM      8  N   UNL     1      -3.958   0.866  24.858  0.00  0.00    -0.263 N 
ATOM      9  C   UNL     1      -3.411   1.481  24.804  0.00  0.00    +0.095 C 
ATOM     10  C   UNL     1      -3.648   2.257  24.949  0.00  0.00    +0.022 C 
ATOM     19  C   UNL     1      -3.720   0.089  24.713  0.00  0.00    +0.323 C 
ATOM     20  O   UNL     1      -2.937  -0.072  24.515  0.00  0.00    -0.251 OA
ATOM     21  N   UNL     1      -4.267  -0.526  24.767  0.00  0.00    -0.190 NA
ENDROOT
BRANCH  21  22
ATOM     22  C   UNL     1      -4.029  -1.303  24.622  0.00  0.00    +0.097 C 
ATOM     23  C   UNL     1      -4.219  -1.666  23.905  0.00  0.00    +0.022 C 
ATOM     24  C   UNL     1      -3.982  -2.442  23.761  0.00  0.00    +0.002 C 
ATOM     25  C   UNL     1      -3.554  -2.857  24.333  0.00  0.00    +0.000 C 
ATOM     26  C   UNL     1      -3.365  -2.494  25.049  0.00  0.00    +0.002 C 
ATOM     27  C   UNL     1      -3.603  -1.717  25.193  0.00  0.00    +0.022 C 
ENDBRANCH  21  22
BRANCH   5   4
ATOM      4  C   UNL     1      -4.670   3.196  25.291  0.00  0.00    +0.114 C 
BRANCH   4   2
ATOM      1  O   UNL     1      -6.038   3.603  25.228  0.00  0.00    -0.246 OA
ATOM      2  C   UNL     1      -5.389   3.344  25.667  0.00  0.00    +0.365 C 
ATOM      3  O   UNL     1      -5.460   3.233  26.482  0.00  0.00    -0.246 OA
ENDBRANCH   4   2
ENDBRANCH   5   4
BRANCH  10  11
ATOM     11  C   UNL     1      -3.101   2.873  24.895  0.00  0.00    +0.019 C 
BRANCH  11  12
ATOM     12  C   UNL     1      -2.312   2.743  25.098  0.00  0.00    +0.072 C 
BRANCH  12  13
ATOM     13  N   UNL     1      -1.751   3.334  24.969  0.00  0.00    -0.268 NA
ATOM     14  C   UNL     1      -1.832   4.068  25.335  0.00  0.00    +0.105 C 
ATOM     15  C   UNL     1      -1.271   4.658  25.205  0.00  0.00    +0.159 C 
ATOM     16  O   UNL     1      -0.627   4.513  24.709  0.00  0.00    -0.351 OA
ATOM     17  C   UNL     1      -0.545   3.779  24.344  0.00  0.00    +0.159 C 
ATOM     18  C   UNL     1      -1.106   3.189  24.473  0.00  0.00    +0.105 C 
ENDBRANCH  12  13
ENDBRANCH  11  12
ENDBRANCH  10  11
TORSDOF 6
ENDMDL
MODEL 2
REMARK VINA RESULT:     -10.3      1.086      4.773
REMARK  Name = 
REMARK  6 active torsions:
REMARK  status: ('A' for Active; 'I' for Inactive)
REMARK    1  A    between atoms: C_2  and  C_4
REMARK    2  A    between atoms: C_4  and  C_5
REMARK    3  A    between atoms: C_10  and  C_11
REMARK    4  A    between atoms: C_11  and  C_12
REMARK    5  A    between atoms: C_12  and  N_13
REMARK    6  A    between atoms: N_21  and  C_22
REMARK                            x       y       z     vdW  Elec       q    Type
REMARK                         _______ _______ _______ _____ _____    ______ ____
ROOT
ATOM      5  C   UNL     1      -4.922   1.646  25.158  0.00  0.00    +0.015 C 
ATOM      6  C   UNL     1      -4.871   2.455  25.315  0.00  0.00    +0.022 C 
ATOM      7  C   UNL     1      -4.145   2.840  25.263  0.00  0.00    +0.095 C 
ATOM      8  N   UNL     1      -3.467   2.419  25.054  0.00  0.00    -0.263 N 
ATOM      9  C   UNL     1      -3.518   1.611  24.897  0.00  0.00    +0.095 C 
ATOM     10  C   UNL     1      -4.244   1.225  24.948  0.00  0.00    +0.022 C 
ATOM     19  C   UNL     1      -2.740   2.805  25.002  0.00  0.00    +0.323 C 
ATOM     20  O   UNL     1      -2.064   2.383  24.793  0.00  0.00    -0.251 OA
ATOM     21  N   UNL     1      -2.690   3.613  25.159  0.00  0.00    -0.190 NA
ENDROOT
BRANCH  21  22
ATOM     22  C   UNL     1      -1.962   3.999  25.107  0.00  0.00    +0.097 C 
ATOM     23  C   UNL     1      -1.936   4.811  24.961  0.00  0.00    +0.022 C 
ATOM     24  C   UNL     1      -1.209   5.197  24.910  0.00  0.00    +0.002 C 
ATOM     25  C   UNL     1      -0.508   4.772  25.003  0.00  0.00    +0.000 C 
ATOM     26  C   UNL     1      -0.535   3.960  25.149  0.00  0.00    +0.002 C 
ATOM     27  C   UNL     1      -1.262   3.574  25.201  0.00  0.00    +0.022 C 
ENDBRANCH  21  22
BRANCH   5   4
ATOM      4  C   UNL     1      -5.649   1.260  25.209  0.00  0.00    +0.114 C 
BRANCH   4   2
ATOM      1  O   UNL     1      -6.821   1.948  24.766  0.00  0.00    -0.246 OA
ATOM      2  C   UNL     1      -6.332   1.689  25.380  0.00  0.00    +0.365 C 
ATOM      3  O   UNL     1      -6.528   1.860  26.163  0.00  0.00    -0.246 OA
ENDBRANCH   4   2
ENDBRANCH   5   4
BRANCH  10  11
ATOM     11  C   UNL     1      -4.294   0.416  24.791  0.00  0.00    +0.019 C 
BRANCH  11  12
ATOM     12  C   UNL     1      -3.609  -0.042  24.761  0.00  0.00    +0.072 C 
BRANCH  12  13
ATOM     13  N   UNL     1      -3.664  -0.862  24.687  0.00  0.00    -0.268 NA
ATOM     14  C   UNL     1      -3.979  -1.195  24.002  0.00  0.00    +0.105 C 
ATOM     15  C   UNL     1      -4.034  -2.014  23.929  0.00  0.00    +0.159 C 
ATOM     16  O   UNL     1      -3.773  -2.502  24.543  0.00  0.00    -0.351 OA
ATOM     17  C   UNL     1      -3.457  -2.169  25.228  0.00  0.00    +0.159 C 
ATOM     18  C   UNL     1      -3.402  -1.350  25.301  0.00  0.00    +0.105 C 
ENDBRANCH  12  13
ENDBRANCH  11  12
ENDBRANCH  10  11
TORSDOF 6
ENDMDL
MODEL 3
REMARK VINA RESULT:      -9.7      2.112      4.471
REMARK  Name = 
REMARK  6 active torsions:
REMARK  status: ('A' for Active; 'I' for Inactive)
REMARK    1  A    between atoms: C_2  and  C_4
REMARK    2  A    between atoms: C_4  and  C_5
REMARK    3  A    between atoms: C_10  and  C_11
REMARK    4  A    between atoms: C_11  and  C_12
REMARK    5  A    between atoms: C_12  and  N_13
REMARK    6  A    between atoms: N_21  and  C_22
REMARK                            x       y       z     vdW  Elec       q    Type
REMARK                         _______ _______ _______ _____ _____    ______ ____
ROOT
ATOM      5  C   UNL     1      -3.289  -1.110  24.501  0.00  0.00    +0.015 C 
ATOM      6  C   UNL     1      -4.088  -0.935  24.611  0.00  0.00    +0.022 C 
ATOM      7  C   UNL     1      -4.324  -0.160  24.761  0.00  0.00    +0.095 C 
ATOM      8  N   UNL     1      -3.761   0.442  24.800  0.00  0.00    -0.263 N 
ATOM      9  C   UNL     1      -2.963   0.267  24.690  0.00  0.00    +0.095 C 
ATOM     10  C   UNL     1      -2.727  -0.508  24.541  0.00  0.00    +0.022 C 
ATOM     19  C   UNL     1      -3.997   1.218  24.950  0.00  0.00    +0.323 C 
ATOM     20  O   UNL     1      -3.435   1.820  24.989  0.00  0.00    -0.251 OA
ATOM     21  N   UNL     1      -4.795   1.393  25.059  0.00  0.00    -0.190 NA
ENDROOT
BRANCH  21  22
ATOM     22  C   UNL     1      -5.032   2.170  25.209  0.00  0.00    +0.097 C 
ATOM     23  C   UNL     1      -5.493   2.340  25.872  0.00  0.00    +0.022 C 
ATOM     24  C   UNL     1      -5.729   3.116  26.021  0.00  0.00    +0.002 C 
ATOM     25  C   UNL     1      -5.504   3.722  25.508  0.00  0.00    +0.000 C 
ATOM     26  C   UNL     1      -5.043   3.551  24.846  0.00  0.00    +0.002 C 
ATOM     27  C   UNL     1      -4.807   2.775  24.696  0.00  0.00    +0.022 C 
ENDBRANCH  21  22
BRANCH   5   4
ATOM      4  C   UNL     1      -3.053  -1.887  24.352  0.00  0.00    +0.114 C 
BRANCH   4   2
ATOM      1  O   UNL     1      -3.590  -2.890  25.217  0.00  0.00    -0.246 OA
ATOM      2  C   UNL     1      -3.578  -2.509  24.484  0.00  0.00    +0.365 C 
ATOM      3  O   UNL     1      -4.090  -2.753  23.884  0.00  0.00    -0.246 OA
ENDBRANCH   4   2
ENDBRANCH   5   4
BRANCH  10  11
ATOM     11  C   UNL     1      -1.928  -0.683  24.431  0.00  0.00    +0.019 C 
BRANCH  11  12
ATOM     12  C   UNL     1      -1.358  -0.098  24.548  0.00  0.00    +0.072 C 
BRANCH  12  13
ATOM     13  N   UNL     1      -0.621  -0.162  24.182  0.00  0.00    -0.268 NA
ATOM     14  C   UNL     1      -0.176  -0.851  24.266  0.00  0.00    +0.105 C 
ATOM     15  C   UNL     1       0.560  -0.914  23.900  0.00  0.00    +0.159 C 
ATOM     16  O   UNL     1       0.852  -0.287  23.449  0.00  0.00    -0.351 OA
ATOM     17  C   UNL     1       0.407   0.402  23.366  0.00  0.00    +0.159 C 
ATOM     18  C   UNL     1      -0.329   0.466  23.732  0.00  0.00    +0.105 C 
ENDBRANCH  12  13
ENDBRANCH  11  12
ENDBRANCH  10  11
TORSDOF 6
ENDMDL
MODEL 4
REMARK VINA RESULT:      -9.3      1.158      2.957
REMARK  Name = 
REMARK  6 active torsions:
REMARK  status: ('A' for Active; 'I' for Inactive)
REMARK    1  A    between atoms: C_2  and  C_4
REMARK    2  A    between atoms: C_4  and  C_5
REMARK    3  A    between atoms: C_10  and  C_11
REMARK    4  A    between atoms: C_11  and  C_12
REMARK    5  A    between atoms: C_12  and  N_13
REMARK    6  A    between atoms: N_21  and  C_22
REMARK                            x       y       z     vdW  Elec       q    Type
REMARK                         _______ _______ _______ _____ _____    ______ ____
ROOT
ATOM      5  C   UNL     1      -2.038   1.934  24.806  0.00  0.00    +0.015 C 
ATOM      6  C   UNL     1      -1.588   1.253  24.686  0.00  0.00    +0.022 C 
ATOM      7  C   UNL     1      -1.956   0.517  24.646  0.00  0.00    +0.095 C 
ATOM      8  N   UNL     1      -2.774   0.459  24.727  0.00  0.00    -0.263 N 
ATOM      9  C   UNL     1      -3.224   1.140  24.848  0.00  0.00    +0.095 C 
ATOM     10  C   UNL     1      -2.856   1.876  24.888  0.00  0.00    +0.022 C 
ATOM     19  C   UNL     1      -3.143  -0.278  24.688  0.00  0.00    +0.323 C 
ATOM     20  O   UNL     1      -3.961  -0.334  24.769  0.00  0.00    -0.251 OA
ATOM     21  N   UNL     1      -2.692  -0.958  24.567  0.00  0.00    -0.190 NA
ENDROOT
BRANCH  21  22
ATOM     22  C   UNL     1      -3.061  -1.696  24.527  0.00  0.00    +0.097 C 
ATOM     23  C   UNL     1      -3.515  -1.894  23.867  0.00  0.00    +0.022 C 
ATOM     24  C   UNL     1      -3.883  -2.632  23.828  0.00  0.00    +0.002 C 
ATOM     25  C   UNL     1      -3.798  -3.170  24.448  0.00  0.00    +0.000 C 
ATOM     26  C   UNL     1      -3.344  -2.970  25.107  0.00  0.00    +0.002 C 
ATOM     27  C   UNL     1      -2.976  -2.233  25.147  0.00  0.00    +0.022 C 
ENDBRANCH  21  22
BRANCH   5   4
ATOM      4  C   UNL     1      -1.669   2.671  24.846  0.00  0.00    +0.114 C 
BRANCH   4   2
ATOM      1  O   UNL     1      -0.421   2.799  24.163  0.00  0.00    -0.246 OA
ATOM      2  C   UNL     1      -0.847   2.720  24.866  0.00  0.00    +0.365 C 
ATOM      3  O   UNL     1      -0.448   2.689  25.588  0.00  0.00    -0.246 OA
ENDBRANCH   4   2
ENDBRANCH   5   4
BRANCH  10  11
ATOM     11  C   UNL     1      -3.307   2.557  25.009  0.00  0.00    +0.019 C 
BRANCH  11  12
ATOM     12  C   UNL     1      -4.074   2.603  24.708  0.00  0.00    +0.072 C 
BRANCH  12  13
ATOM     13  N   UNL     1      -4.624   3.111  25.057  0.00  0.00    -0.268 NA
ATOM     14  C   UNL     1      -4.480   3.922  25.080  0.00  0.00    +0.105 C 
ATOM     15  C   UNL     1      -5.029   4.429  25.429  0.00  0.00    +0.159 C 
ATOM     16  O   UNL     1      -5.724   4.123  25.754  0.00  0.00    -0.351 OA
ATOM     17  C   UNL     1      -5.868   3.312  25.731  0.00  0.00    +0.159 C 
ATOM     18  C   UNL     1      -5.319   2.805  25.382  0.00  0.00    +0.105 C 
ENDBRANCH  12  13
ENDBRANCH  11  12
ENDBRANCH  10  11
TORSDOF 6
ENDMDL
MODEL 5
REMARK VINA RESULT:      -8.7      3.007      4.024
REMARK  Name = 
REMARK  6 active torsions:
REMARK  status: ('A' for Active; 'I' for Inactive)
REMARK    1  A    between atoms: C_2  and  C_4
REMARK    2  A    between atoms: C_4  and  C_5
REMARK    3  A    between atoms: C_10  and  C_11
REMARK    4  A    between atoms: C_11  and  C_12
REMARK    5  A    between atoms: C_12  and  N_13
REMARK    6  A    between atoms: N_21  and  C_22
REMARK                            x       y       z     vdW  Elec       q    Type
REMARK                         _______ _______ _______ _____ _____    ______ ____
ROOT
ATOM      5  C   UNL     1      -0.398   1.347  24.714  0.00  0.00    +0.015 C 
ATOM      6  C   UNL     1      -1.125   1.303  25.101  0.00  0.00    +0.022 C 
ATOM      7  C   UNL     1      -1.620   0.657  24.978  0.00  0.00    +0.095 C 
ATOM      8  N   UNL     1      -1.390   0.052  24.467  0.00  0.00    -0.263 N 
ATOM      9  C   UNL     1      -0.663   0.095  24.079  0.00  0.00    +0.095 C 
ATOM     10  C   UNL     1      -0.168   0.742  24.203  0.00  0.00    +0.022 C 
ATOM     19  C   UNL     1      -1.886  -0.596  24.344  0.00  0.00    +0.323 C 
ATOM     20  O   UNL     1      -1.655  -1.200  23.832  0.00  0.00    -0.251 OA
ATOM     21  N   UNL     1      -2.612  -0.639  24.731  0.00  0.00    -0.190 NA
ENDROOT
BRANCH  21  22
ATOM     22  C   UNL     1      -3.108  -1.287  24.608  0.00  0.00    +0.097 C 
ATOM     23  C   UNL     1      -2.988  -1.985  25.032  0.00  0.00    +0.022 C 
ATOM     24  C   UNL     1      -3.484  -2.633  24.909  0.00  0.00    +0.002 C 
ATOM     25  C   UNL     1      -4.100  -2.583  24.361  0.00  0.00    +0.000 C 
ATOM     26  C   UNL     1      -4.219  -1.885  23.938  0.00  0.00    +0.002 C 
ATOM     27  C   UNL     1      -3.723  -1.237  24.061  0.00  0.00    +0.022 C 
ENDBRANCH  21  22
BRANCH   5   4
ATOM      4  C   UNL     1       0.098   1.995  24.837  0.00  0.00    +0.114 C 
BRANCH   4   2
ATOM      1  O   UNL     1      -0.544   3.217  25.206  0.00  0.00    -0.246 OA
ATOM      2  C   UNL     1      -0.093   2.556  25.410  0.00  0.00    +0.365 C 
ATOM      3  O   UNL     1       0.167   2.459  26.187  0.00  0.00    -0.246 OA
ENDBRANCH   4   2
ENDBRANCH   5   4
BRANCH  10  11
ATOM     11  C   UNL     1       0.560   0.785  23.814  0.00  0.00    +0.019 C 
BRANCH  11  12
ATOM     12  C   UNL     1       0.902   0.102  23.502  0.00  0.00    +0.072 C 
BRANCH  12  13
ATOM     13  N   UNL     1       1.571   0.159  23.022  0.00  0.00    -0.268 NA
ATOM     14  C   UNL     1       2.246   0.541  23.299  0.00  0.00    +0.105 C 
ATOM     15  C   UNL     1       2.914   0.598  22.819  0.00  0.00    +0.159 C 
ATOM     16  O   UNL     1       2.906   0.272  22.060  0.00  0.00    -0.351 OA
ATOM     17  C   UNL     1       2.230  -0.110  21.783  0.00  0.00    +0.159 C 
ATOM     18  C   UNL     1       1.563  -0.167  22.263  0.00  0.00    +0.105 C 
ENDBRANCH  12  13
ENDBRANCH  11  12
ENDBRANCH  10  11
TORSDOF 6
ENDMDL
MODEL 6
REMARK VINA RESULT:      -8.7      2.105      5.799
REMARK  Name = 
REMARK  6 active torsions:
REMARK  status: ('A' for Active; 'I' for Inactive)
REMARK    1  A    between atoms: C_2  and  C_4
REMARK    2  A    between atoms: C_4  and  C_5
REMARK    3  A    between atoms: C_10  and  C_11
REMARK    4  A    between atoms: C_11  and  C_12
REMARK    5  A    between atoms: C_12  and  N_13
REMARK    6  A    between atoms: N_21  and  C_22
REMARK                            x       y       z     vdW  Elec       q    Type
REMARK                         _______ _______ _______ _____ _____    ______ ____
ROOT
ATOM      5  C   UNL     1      -0.589   0.211  24.163  0.00  0.00    +0.015 C 
ATOM      6  C   UNL     1      -0.130   0.895  24.220  0.00  0.00    +0.022 C 
ATOM      7  C   UNL     1      -0.474   1.603  24.465  0.00  0.00    +0.095 C 
ATOM      8  N   UNL     1      -1.276   1.629  24.653  0.00  0.00    -0.263 N 
ATOM      9  C   UNL     1      -1.735   0.946  24.596  0.00  0.00    +0.095 C 
ATOM     10  C   UNL     1      -1.392   0.238  24.351  0.00  0.00    +0.022 C 
ATOM     19  C   UNL     1      -1.620   2.338  24.897  0.00  0.00    +0.323 C 
ATOM     20  O   UNL     1      -2.423   2.364  25.085  0.00  0.00    -0.251 OA
ATOM     21  N   UNL     1      -1.161   3.021  24.954  0.00  0.00    -0.190 NA
ENDROOT
BRANCH  21  22
ATOM     22  C   UNL     1      -1.505   3.731  25.199  0.00  0.00    +0.097 C 
ATOM     23  C   UNL     1      -1.268   4.443  24.857  0.00  0.00    +0.022 C 
ATOM     24  C   UNL     1      -1.612   5.152  25.101  0.00  0.00    +0.002 C 
ATOM     25  C   UNL     1      -2.193   5.149  25.688  0.00  0.00    +0.000 C 
ATOM     26  C   UNL     1      -2.429   4.436  26.029  0.00  0.00    +0.002 C 
ATOM     27  C   UNL     1      -2.085   3.727  25.784  0.00  0.00    +0.022 C 
ENDBRANCH  21  22
BRANCH   5   4
ATOM      4  C   UNL     1      -0.245  -0.498  23.919  0.00  0.00    +0.114 C 
BRANCH   4   2
ATOM      1  O   UNL     1       1.172  -0.676  23.950  0.00  0.00    -0.246 OA
ATOM      2  C   UNL     1       0.483  -0.491  23.533  0.00  0.00    +0.365 C 
ATOM      3  O   UNL     1       0.525  -0.299  22.732  0.00  0.00    -0.246 OA
ENDBRANCH   4   2
ENDBRANCH   5   4
BRANCH  10  11
ATOM     11  C   UNL     1      -1.851  -0.446  24.295  0.00  0.00    +0.019 C 
BRANCH  11  12
ATOM     12  C   UNL     1      -2.579  -0.487  24.681  0.00  0.00    +0.072 C 
BRANCH  12  13
ATOM     13  N   UNL     1      -3.067  -1.143  24.570  0.00  0.00    -0.268 NA
ATOM     14  C   UNL     1      -2.934  -1.835  24.998  0.00  0.00    +0.105 C 
ATOM     15  C   UNL     1      -3.422  -2.490  24.886  0.00  0.00    +0.159 C 
ATOM     16  O   UNL     1      -4.046  -2.452  24.346  0.00  0.00    -0.351 OA
ATOM     17  C   UNL     1      -4.180  -1.760  23.919  0.00  0.00    +0.159 C 
ATOM     18  C   UNL     1      -3.691  -1.105  24.030  0.00  0.00    +0.105 C 
ENDBRANCH  12  13
ENDBRANCH  11  12
ENDBRANCH  10  11
TORSDOF 6
ENDMDL
MODEL 7
REMARK VINA RESULT:      -8.6      2.255      4.071
REMARK  Name = 
REMARK  6 active torsions:
REMARK  status: ('A' for Active; 'I' for Inactive)
REMARK    1  A    between atoms: C_2  and  C_4
REMARK    2  A    between atoms: C_4  and  C_5
REMARK    3  A    between atoms: C_10  and  C_11
REMARK    4  A    between atoms: C_11  and  C_12
REMARK    5  A    between atoms: C_12  and  N_13
REMARK    6  A    between atoms: N_21  and  C_22
REMARK                            x       y       z     vdW  Elec       q    Type
REMARK                         _______ _______ _______ _____ _____    ______ ____
ROOT
ATOM      5  C   UNL     1      -1.405   3.057  24.784  0.00  0.00    +0.015 C 
ATOM      6  C   UNL     1      -2.015   3.574  24.986  0.00  0.00    +0.022 C 
ATOM      7  C   UNL     1      -2.784   3.291  25.072  0.00  0.00    +0.095 C 
ATOM      8  N   UNL     1      -2.945   2.490  24.957  0.00  0.00    -0.263 N 
ATOM      9  C   UNL     1      -2.335   1.973  24.755  0.00  0.00    +0.095 C 
ATOM     10  C   UNL     1      -1.566   2.256  24.669  0.00  0.00    +0.022 C 
ATOM     19  C   UNL     1      -3.715   2.207  25.043  0.00  0.00    +0.323 C 
ATOM     20  O   UNL     1      -3.875   1.406  24.927  0.00  0.00    -0.251 OA
ATOM     21  N   UNL     1      -4.324   2.724  25.244  0.00  0.00    -0.190 NA
ENDROOT
BRANCH  21  22
ATOM     22  C   UNL     1      -5.095   2.441  25.330  0.00  0.00    +0.097 C 
ATOM     23  C   UNL     1      -5.455   2.445  26.073  0.00  0.00    +0.022 C 
ATOM     24  C   UNL     1      -6.225   2.161  26.159  0.00  0.00    +0.002 C 
ATOM     25  C   UNL     1      -6.635   1.874  25.503  0.00  0.00    +0.000 C 
ATOM     26  C   UNL     1      -6.274   1.870  24.761  0.00  0.00    +0.002 C 
ATOM     27  C   UNL     1      -5.504   2.154  24.675  0.00  0.00    +0.022 C 
ENDBRANCH  21  22
BRANCH   5   4
ATOM      4  C   UNL     1      -0.635   3.340  24.698  0.00  0.00    +0.114 C 
BRANCH   4   2
ATOM      1  O   UNL     1      -0.349   4.481  23.886  0.00  0.00    -0.246 OA
ATOM      2  C   UNL     1      -0.499   4.151  24.628  0.00  0.00    +0.365 C 
ATOM      3  O   UNL     1      -0.514   4.632  25.298  0.00  0.00    -0.246 OA
ENDBRANCH   4   2
ENDBRANCH   5   4
BRANCH  10  11
ATOM     11  C   UNL     1      -0.955   1.738  24.467  0.00  0.00    +0.019 C 
BRANCH  11  12
ATOM     12  C   UNL     1      -1.117   1.062  24.023  0.00  0.00    +0.072 C 
BRANCH  12  13
ATOM     13  N   UNL     1      -0.540   0.478  23.936  0.00  0.00    -0.268 NA
ATOM     14  C   UNL     1       0.075   0.583  23.398  0.00  0.00    +0.105 C 
ATOM     15  C   UNL     1       0.651  -0.000  23.311  0.00  0.00    +0.159 C 
ATOM     16  O   UNL     1       0.611  -0.690  23.763  0.00  0.00    -0.351 OA
ATOM     17  C   UNL     1      -0.004  -0.795  24.302  0.00  0.00    +0.159 C 
ATOM     18  C   UNL     1      -0.580  -0.211  24.388  0.00  0.00    +0.105 C 
ENDBRANCH  12  13
ENDBRANCH  11  12
ENDBRANCH  10  11
TORSDOF 6
ENDMDL
MODEL 8
REMARK VINA RESULT:      -8.5      1.605      3.416
REMARK  Name = 
REMARK  6 active torsions:
REMARK  status: ('A' for Active; 'I' for Inactive)
REMARK    1  A    between atoms: C_2  and  C_4
REMARK    2  A    between atoms: C_4  and  C_5
REMARK    3  A    between atoms: C_10  and  C_11
REMARK    4  A    between atoms: C_11  and  C_12
REMARK    5  A    between atoms: C_12  and  N_13
REMARK    6  A    between atoms: N_21  and  C_22
REMARK                            x       y       z     vdW  Elec       q    Type
REMARK                         _______ _______ _______ _____ _____    ______ ____
ROOT
ATOM      5  C   UNL     1      -1.673   2.834  24.894  0.00  0.00    +0.015 C 
ATOM      6  C   UNL     1      -0.986   2.395  24.772  0.00  0.00    +0.022 C 
ATOM      7  C   UNL     1      -1.016   1.571  24.778  0.00  0.00    +0.095 C 
ATOM      8  N   UNL     1      -1.733   1.185  24.907  0.00  0.00    -0.263 N 
ATOM      9  C   UNL     1      -2.420   1.624  25.029  0.00  0.00    +0.095 C 
ATOM     10  C   UNL     1      -2.391   2.448  25.023  0.00  0.00    +0.022 C 
ATOM     19  C   UNL     1      -1.763   0.361  24.914  0.00  0.00    +0.323 C 
ATOM     20  O   UNL     1      -2.480  -0.025  25.042  0.00  0.00    -0.251 OA
ATOM     21  N   UNL     1      -1.075  -0.077  24.791  0.00  0.00    -0.190 NA
ENDROOT
BRANCH  21  22
ATOM     22  C   UNL     1      -1.105  -0.903  24.798  0.00  0.00    +0.097 C 
ATOM     23  C   UNL     1      -0.700  -1.325  25.379  0.00  0.00    +0.022 C 
ATOM     24  C   UNL     1      -0.729  -2.150  25.386  0.00  0.00    +0.002 C 
ATOM     25  C   UNL     1      -1.164  -2.552  24.811  0.00  0.00    +0.000 C 
ATOM     26  C   UNL     1      -1.569  -2.128  24.230  0.00  0.00    +0.002 C 
ATOM     27  C   UNL     1      -1.539  -1.304  24.223  0.00  0.00    +0.022 C 
ENDBRANCH  21  22
BRANCH   5   4
ATOM      4  C   UNL     1      -1.644   3.658  24.887  0.00  0.00    +0.114 C 
BRANCH   4   2
ATOM      1  O   UNL     1      -0.577   4.275  24.163  0.00  0.00    -0.246 OA
ATOM      2  C   UNL     1      -0.915   4.044  24.880  0.00  0.00    +0.365 C 
ATOM      3  O   UNL     1      -0.523   4.200  25.589  0.00  0.00    -0.246 OA
ENDBRANCH   4   2
ENDBRANCH   5   4
BRANCH  10  11
ATOM     11  C   UNL     1      -3.079   2.887  25.145  0.00  0.00    +0.019 C 
BRANCH  11  12
ATOM     12  C   UNL     1      -3.807   2.593  24.891  0.00  0.00    +0.072 C 
BRANCH  12  13
ATOM     13  N   UNL     1      -4.507   2.900  25.202  0.00  0.00    -0.268 NA
ATOM     14  C   UNL     1      -4.640   3.714  25.193  0.00  0.00    +0.105 C 
ATOM     15  C   UNL     1      -5.339   4.020  25.504  0.00  0.00    +0.159 C 
ATOM     16  O   UNL     1      -5.907   3.513  25.823  0.00  0.00    -0.351 OA
ATOM     17  C   UNL     1      -5.774   2.699  25.832  0.00  0.00    +0.159 C 
ATOM     18  C   UNL     1      -5.074   2.392  25.522  0.00  0.00    +0.105 C 
ENDBRANCH  12  13
ENDBRANCH  11  12
ENDBRANCH  10  11
TORSDOF 6
ENDMDL
MODEL 9
REMARK VINA RESULT:      -8.1     16.136     19.175
REMARK  Name = 
REMARK  6 active torsions:
REMARK  status: ('A' for Active; 'I' for Inactive)
REMARK    1  A    between atoms: C_2  and  C_4
REMARK    2  A    between atoms: C_4  and  C_5
REMARK    3  A    between atoms: C_10  and  C_11
REMARK    4  A    between atoms: C_11  and  C_12
REMARK    5  A    between atoms: C_12  and  N_13
REMARK    6  A    between atoms: N_21  and  C_22
REMARK                            x       y       z     vdW  Elec       q    Type
REMARK                         _______ _______ _______ _____ _____    ______ ____
ROOT
ATOM      5  C   UNL     1      13.550   7.870  18.176  0.00  0.00    +0.015 C 
ATOM      6  C   UNL     1      12.765   8.124  18.193  0.00  0.00    +0.022 C 
ATOM      7  C   UNL     1      12.352   8.138  18.906  0.00  0.00    +0.095 C 
ATOM      8  N   UNL     1      12.722   7.898  19.603  0.00  0.00    -0.263 N 
ATOM      9  C   UNL     1      13.507   7.645  19.586  0.00  0.00    +0.095 C 
ATOM     10  C   UNL     1      13.920   7.631  18.873  0.00  0.00    +0.022 C 
ATOM     19  C   UNL     1      12.308   7.912  20.316  0.00  0.00    +0.323 C 
ATOM     20  O   UNL     1      12.678   7.673  21.012  0.00  0.00    -0.251 OA
ATOM     21  N   UNL     1      11.524   8.166  20.333  0.00  0.00    -0.190 NA
ENDROOT
BRANCH  21  22
ATOM     22  C   UNL     1      11.109   8.180  21.047  0.00  0.00    +0.097 C 
ATOM     23  C   UNL     1      11.060   8.880  21.481  0.00  0.00    +0.022 C 
ATOM     24  C   UNL     1      10.646   8.894  22.195  0.00  0.00    +0.002 C 
ATOM     25  C   UNL     1      10.281   8.208  22.474  0.00  0.00    +0.000 C 
ATOM     26  C   UNL     1      10.331   7.509  22.039  0.00  0.00    +0.002 C 
ATOM     27  C   UNL     1      10.745   7.495  21.326  0.00  0.00    +0.022 C 
ENDBRANCH  21  22
BRANCH   5   4
ATOM      4  C   UNL     1      13.964   7.856  17.463  0.00  0.00    +0.114 C 
BRANCH   4   2
ATOM      1  O   UNL     1      14.006   9.092  16.746  0.00  0.00    -0.246 OA
ATOM      2  C   UNL     1      13.714   8.324  16.832  0.00  0.00    +0.365 C 
ATOM      3  O   UNL     1      13.172   8.027  16.286  0.00  0.00    -0.246 OA
ENDBRANCH   4   2
ENDBRANCH   5   4
BRANCH  10  11
ATOM     11  C   UNL     1      14.705   7.376  18.856  0.00  0.00    +0.019 C 
BRANCH  11  12
ATOM     12  C   UNL     1      14.982   6.854  19.431  0.00  0.00    +0.072 C 
BRANCH  12  13
ATOM     13  N   UNL     1      15.790   6.696  19.490  0.00  0.00    -0.268 NA
ATOM     14  C   UNL     1      16.145   6.162  18.972  0.00  0.00    +0.105 C 
ATOM     15  C   UNL     1      16.952   6.004  19.031  0.00  0.00    +0.159 C 
ATOM     16  O   UNL     1      17.405   6.382  19.609  0.00  0.00    -0.351 OA
ATOM     17  C   UNL     1      17.050   6.916  20.127  0.00  0.00    +0.159 C 
ATOM     18  C   UNL     1      16.243   7.074  20.068  0.00  0.00    +0.105 C 
ENDBRANCH  12  13
ENDBRANCH  11  12
ENDBRANCH  10  11
TORSDOF 6
ENDMDL
