REMARK  Name = 
REMARK  8 active torsions:
REMARK  status: ('A' for Active; 'I' for Inactive)
REMARK    1  A    between atoms: C_2  and  C_5
REMARK    2  A    between atoms: C_5  and  C_6
REMARK    3  A    between atoms: C_11  and  C_12
REMARK    4  A    between atoms: C_12  and  C_13
REMARK    5  A    between atoms: C_16  and  C_17
REMARK    6  A    between atoms: C_17  and  C_18
REMARK    7  A    between atoms: C_18  and  N_19
REMARK    8  A    between atoms: N_22  and  C_25
REMARK                            x       y       z     vdW  Elec       q    Type
REMARK                         _______ _______ _______ _____ _____    ______ ____
ROOT
ATOM      6  C   UNL     1       1.429  -4.125   0.000  0.00  0.00    +0.226 C 
ATOM      7  O   UNL     1       0.715  -3.712   0.000  0.00  0.00    -0.275 OA
ATOM      8  N   UNL     1       1.429  -4.950   0.000  0.00  0.00    -0.280 N 
ATOM      9  C   UNL     1       2.143  -5.362   0.000  0.00  0.00    +0.093 C 
ATOM     10  C   UNL     1       2.143  -6.188   0.000  0.00  0.00    +0.022 C 
ATOM     11  C   UNL     1       1.429  -6.600   0.000  0.00  0.00    +0.015 C 
ATOM     16  C   UNL     1       0.715  -6.188   0.000  0.00  0.00    +0.022 C 
ATOM     32  C   UNL     1       0.715  -5.362   0.000  0.00  0.00    +0.093 C 
ENDROOT
BRANCH   6   5
ATOM      5  C   UNL     1       2.143  -3.712   0.000  0.00  0.00    +0.085 C 
BRANCH   5   2
ATOM      1  C   UNL     1       2.143  -2.062   0.000  0.00  0.00    +0.000 C 
ATOM      2  C   UNL     1       2.143  -2.888   0.000  0.00  0.00    +0.009 C 
ATOM      3  C   UNL     1       1.318  -2.888   0.000  0.00  0.00    +0.000 C 
ATOM      4  C   UNL     1       2.968  -2.888   0.000  0.00  0.00    +0.000 C 
ENDBRANCH   5   2
ENDBRANCH   6   5
BRANCH  11  12
ATOM     12  C   UNL     1       1.429  -7.425   0.000  0.00  0.00    +0.114 C 
BRANCH  12  13
ATOM     13  C   UNL     1       2.143  -7.838   0.000  0.00  0.00    +0.365 C 
ATOM     14  O   UNL     1       2.858  -7.425   0.000  0.00  0.00    -0.246 OA
ATOM     15  O   UNL     1       2.143  -8.662   0.000  0.00  0.00    -0.246 OA
ENDBRANCH  12  13
ENDBRANCH  11  12
BRANCH  16  17
ATOM     17  C   UNL     1       0.000  -6.600   0.000  0.00  0.00    +0.019 C 
BRANCH  17  18
ATOM     18  C   UNL     1       0.000  -7.425   0.000  0.00  0.00    +0.072 C 
BRANCH  18  19
ATOM     19  N   UNL     1      -0.715  -7.838   0.000  0.00  0.00    -0.270 NA
ATOM     20  C   UNL     1      -0.715  -8.662   0.000  0.00  0.00    +0.094 C 
ATOM     21  C   UNL     1      -1.429  -9.075   0.000  0.00  0.00    +0.108 C 
ATOM     22  N   UNL     1      -2.143  -8.662   0.000  0.00  0.00    -0.305 N 
ATOM     23  C   UNL     1      -2.143  -7.838   0.000  0.00  0.00    +0.108 C 
ATOM     24  C   UNL     1      -1.429  -7.425   0.000  0.00  0.00    +0.094 C 
BRANCH  22  25
ATOM     25  C   UNL     1      -2.858  -9.075   0.000  0.00  0.00    +0.048 A 
ATOM     26  C   UNL     1      -2.858  -9.900   0.000  0.00  0.00    +0.017 A 
ATOM     27  C   UNL     1      -3.572 -10.312   0.000  0.00  0.00    +0.031 A 
ATOM     28  C   UNL     1      -4.287  -9.900   0.000  0.00  0.00    +0.140 A 
ATOM     29  F   UNL     1      -5.001 -10.312   0.000  0.00  0.00    -0.204 F 
ATOM     30  C   UNL     1      -4.287  -9.075   0.000  0.00  0.00    +0.031 A 
ATOM     31  C   UNL     1      -3.572  -8.662   0.000  0.00  0.00    +0.017 A 
ENDBRANCH  22  25
ENDBRANCH  18  19
ENDBRANCH  17  18
ENDBRANCH  16  17
TORSDOF 8
