MODEL 1
REMARK VINA RESULT:     -11.7      0.000      0.000
REMARK  Name = 
REMARK  3 active torsions:
REMARK  status: ('A' for Active; 'I' for Inactive)
REMARK    1  A    between atoms: N_3  and  C_4
REMARK    2  A    between atoms: C_4  and  C_5
REMARK    3  A    between atoms: N_17  and  C_18
REMARK                            x       y       z     vdW  Elec       q    Type
REMARK                         _______ _______ _______ _____ _____    ______ ____
ROOT
ATOM      1  O   UNL     1      -4.352   0.700  24.235  0.00  0.00    -0.251 OA
ATOM      2  C   UNL     1      -3.638   0.446  24.561  0.00  0.00    +0.324 C 
ATOM      3  N   UNL     1      -3.519  -0.355  24.721  0.00  0.00    -0.184 NA
ATOM     11  N   UNL     1      -3.043   0.993  24.728  0.00  0.00    -0.259 N 
ATOM     12  C   UNL     1      -2.329   0.738  25.054  0.00  0.00    +0.117 C 
ATOM     13  C   UNL     1      -1.734   1.285  25.221  0.00  0.00    +0.117 C 
ATOM     14  N   UNL     1      -1.852   2.086  25.062  0.00  0.00    -0.261 N 
ATOM     15  C   UNL     1      -2.566   2.340  24.735  0.00  0.00    +0.117 C 
ATOM     16  C   UNL     1      -2.526   3.157  24.639  0.00  0.00    +0.116 C 
ATOM     17  N   UNL     1      -1.787   3.409  24.905  0.00  0.00    -0.264 N 
ATOM     24  C   UNL     1      -1.371   2.746  25.166  0.00  0.00    +0.307 C 
ATOM     25  O   UNL     1      -0.607   2.745  25.478  0.00  0.00    -0.252 OA
ATOM     26  C   UNL     1      -3.162   1.793  24.568  0.00  0.00    +0.117 C 
ENDROOT
BRANCH  17  18
ATOM     18  C   UNL     1      -1.512   4.187  24.909  0.00  0.00    +0.077 C 
ATOM     19  C   UNL     1      -1.944   4.776  25.294  0.00  0.00    +0.020 C 
ATOM     20  C   UNL     1      -1.669   5.554  25.298  0.00  0.00    +0.002 C 
ATOM     21  C   UNL     1      -0.962   5.743  24.917  0.00  0.00    +0.000 C 
ATOM     22  C   UNL     1      -0.530   5.155  24.533  0.00  0.00    +0.002 C 
ATOM     23  C   UNL     1      -0.805   4.377  24.529  0.00  0.00    +0.020 C 
ENDBRANCH  17  18
BRANCH   3   4
ATOM      4  C   UNL     1      -4.115  -0.902  24.554  0.00  0.00    +0.143 C 
BRANCH   4   5
ATOM      5  C   UNL     1      -3.935  -1.705  24.510  0.00  0.00    -0.001 A 
ATOM      6  C   UNL     1      -4.151  -2.140  23.842  0.00  0.00    -0.003 A 
ATOM      7  C   UNL     1      -3.972  -2.944  23.797  0.00  0.00    -0.000 A 
ATOM      8  C   UNL     1      -3.577  -3.313  24.420  0.00  0.00    -0.000 A 
ATOM      9  C   UNL     1      -3.361  -2.879  25.087  0.00  0.00    -0.000 A 
ATOM     10  C   UNL     1      -3.540  -2.075  25.132  0.00  0.00    -0.003 A 
ENDBRANCH   4   5
ENDBRANCH   3   4
TORSDOF 3
ENDMDL
MODEL 2
REMARK VINA RESULT:     -11.7      0.635      5.991
REMARK  Name = 
REMARK  3 active torsions:
REMARK  status: ('A' for Active; 'I' for Inactive)
REMARK    1  A    between atoms: N_3  and  C_4
REMARK    2  A    between atoms: C_4  and  C_5
REMARK    3  A    between atoms: N_17  and  C_18
REMARK                            x       y       z     vdW  Elec       q    Type
REMARK                         _______ _______ _______ _____ _____    ______ ____
ROOT
ATOM      1  O   UNL     1      -0.636   1.780  25.123  0.00  0.00    -0.251 OA
ATOM      2  C   UNL     1      -1.416   2.044  25.085  0.00  0.00    +0.324 C 
ATOM      3  N   UNL     1      -1.584   2.848  25.167  0.00  0.00    -0.184 NA
ATOM     11  N   UNL     1      -2.030   1.505  24.965  0.00  0.00    -0.259 N 
ATOM     12  C   UNL     1      -2.810   1.769  24.927  0.00  0.00    +0.117 C 
ATOM     13  C   UNL     1      -3.422   1.230  24.807  0.00  0.00    +0.117 C 
ATOM     14  N   UNL     1      -3.255   0.426  24.725  0.00  0.00    -0.261 N 
ATOM     15  C   UNL     1      -2.475   0.162  24.763  0.00  0.00    +0.117 C 
ATOM     16  C   UNL     1      -2.478  -0.656  24.664  0.00  0.00    +0.116 C 
ATOM     17  N   UNL     1      -3.260  -0.898  24.564  0.00  0.00    -0.264 N 
ATOM     24  C   UNL     1      -3.740  -0.229  24.602  0.00  0.00    +0.307 C 
ATOM     25  O   UNL     1      -4.562  -0.217  24.530  0.00  0.00    -0.252 OA
ATOM     26  C   UNL     1      -1.861   0.702  24.883  0.00  0.00    +0.117 C 
ENDROOT
BRANCH  17  18
ATOM     18  C   UNL     1      -3.517  -1.674  24.448  0.00  0.00    +0.077 C 
ATOM     19  C   UNL     1      -3.299  -2.265  24.981  0.00  0.00    +0.020 C 
ATOM     20  C   UNL     1      -3.556  -3.041  24.864  0.00  0.00    +0.002 C 
ATOM     21  C   UNL     1      -4.031  -3.224  24.214  0.00  0.00    +0.000 C 
ATOM     22  C   UNL     1      -4.248  -2.633  23.682  0.00  0.00    +0.002 C 
ATOM     23  C   UNL     1      -3.991  -1.858  23.798  0.00  0.00    +0.020 C 
ENDBRANCH  17  18
BRANCH   3   4
ATOM      4  C   UNL     1      -0.971   3.387  25.287  0.00  0.00    +0.143 C 
BRANCH   4   5
ATOM      5  C   UNL     1      -1.100   4.192  25.163  0.00  0.00    -0.001 A 
ATOM      6  C   UNL     1      -0.552   4.636  24.733  0.00  0.00    -0.003 A 
ATOM      7  C   UNL     1      -0.682   5.441  24.609  0.00  0.00    -0.000 A 
ATOM      8  C   UNL     1      -1.358   5.803  24.912  0.00  0.00    -0.000 A 
ATOM      9  C   UNL     1      -1.905   5.359  25.341  0.00  0.00    -0.000 A 
ATOM     10  C   UNL     1      -1.777   4.554  25.466  0.00  0.00    -0.003 A 
ENDBRANCH   4   5
ENDBRANCH   3   4
TORSDOF 3
ENDMDL
MODEL 3
REMARK VINA RESULT:      -9.8      2.910      4.432
REMARK  Name = 
REMARK  3 active torsions:
REMARK  status: ('A' for Active; 'I' for Inactive)
REMARK    1  A    between atoms: N_3  and  C_4
REMARK    2  A    between atoms: C_4  and  C_5
REMARK    3  A    between atoms: N_17  and  C_18
REMARK                            x       y       z     vdW  Elec       q    Type
REMARK                         _______ _______ _______ _____ _____    ______ ____
ROOT
ATOM      1  O   UNL     1      -0.571  -0.195  24.714  0.00  0.00    -0.251 OA
ATOM      2  C   UNL     1      -0.625   0.340  24.088  0.00  0.00    +0.324 C 
ATOM      3  N   UNL     1      -0.020   0.384  23.529  0.00  0.00    -0.184 NA
ATOM     11  N   UNL     1      -1.285   0.831  24.021  0.00  0.00    -0.259 N 
ATOM     12  C   UNL     1      -1.339   1.366  23.395  0.00  0.00    +0.117 C 
ATOM     13  C   UNL     1      -1.998   1.857  23.328  0.00  0.00    +0.117 C 
ATOM     14  N   UNL     1      -2.604   1.813  23.886  0.00  0.00    -0.261 N 
ATOM     15  C   UNL     1      -2.550   1.279  24.512  0.00  0.00    +0.117 C 
ATOM     16  C   UNL     1      -3.227   1.359  24.975  0.00  0.00    +0.116 C 
ATOM     17  N   UNL     1      -3.701   1.943  24.636  0.00  0.00    -0.264 N 
ATOM     24  C   UNL     1      -3.315   2.223  23.963  0.00  0.00    +0.307 C 
ATOM     25  O   UNL     1      -3.592   2.812  23.455  0.00  0.00    -0.252 OA
ATOM     26  C   UNL     1      -1.890   0.787  24.580  0.00  0.00    +0.117 C 
ENDROOT
BRANCH  17  18
ATOM     18  C   UNL     1      -4.431   2.201  24.920  0.00  0.00    +0.077 C 
ATOM     19  C   UNL     1      -5.111   1.756  24.774  0.00  0.00    +0.020 C 
ATOM     20  C   UNL     1      -5.842   2.015  25.057  0.00  0.00    +0.002 C 
ATOM     21  C   UNL     1      -5.892   2.717  25.487  0.00  0.00    +0.000 C 
ATOM     22  C   UNL     1      -5.213   3.161  25.633  0.00  0.00    +0.002 C 
ATOM     23  C   UNL     1      -4.482   2.903  25.349  0.00  0.00    +0.020 C 
ENDBRANCH  17  18
BRANCH   3   4
ATOM      4  C   UNL     1       0.640  -0.107  23.597  0.00  0.00    +0.143 C 
BRANCH   4   5
ATOM      5  C   UNL     1       1.258  -0.044  23.053  0.00  0.00    -0.001 A 
ATOM      6  C   UNL     1       1.951   0.352  23.262  0.00  0.00    -0.003 A 
ATOM      7  C   UNL     1       2.569   0.414  22.718  0.00  0.00    -0.000 A 
ATOM      8  C   UNL     1       2.493   0.082  21.967  0.00  0.00    -0.000 A 
ATOM      9  C   UNL     1       1.800  -0.313  21.759  0.00  0.00    -0.000 A 
ATOM     10  C   UNL     1       1.182  -0.377  22.302  0.00  0.00    -0.003 A 
ENDBRANCH   4   5
ENDBRANCH   3   4
TORSDOF 3
ENDMDL
MODEL 4
REMARK VINA RESULT:      -9.4      3.676      5.358
REMARK  Name = 
REMARK  3 active torsions:
REMARK  status: ('A' for Active; 'I' for Inactive)
REMARK    1  A    between atoms: N_3  and  C_4
REMARK    2  A    between atoms: C_4  and  C_5
REMARK    3  A    between atoms: N_17  and  C_18
REMARK                            x       y       z     vdW  Elec       q    Type
REMARK                         _______ _______ _______ _____ _____    ______ ____
ROOT
ATOM      1  O   UNL     1       0.796  -0.308  22.401  0.00  0.00    -0.251 OA
ATOM      2  C   UNL     1       1.003   0.225  22.995  0.00  0.00    +0.324 C 
ATOM      3  N   UNL     1       1.797   0.402  23.134  0.00  0.00    -0.184 NA
ATOM     11  N   UNL     1       0.415   0.583  23.452  0.00  0.00    -0.259 N 
ATOM     12  C   UNL     1       0.622   1.117  24.046  0.00  0.00    +0.117 C 
ATOM     13  C   UNL     1       0.035   1.474  24.502  0.00  0.00    +0.117 C 
ATOM     14  N   UNL     1      -0.759   1.298  24.364  0.00  0.00    -0.261 N 
ATOM     15  C   UNL     1      -0.966   0.765  23.770  0.00  0.00    +0.117 C 
ATOM     16  C   UNL     1      -1.788   0.699  23.761  0.00  0.00    +0.116 C 
ATOM     17  N   UNL     1      -2.089   1.192  24.349  0.00  0.00    -0.264 N 
ATOM     24  C   UNL     1      -1.453   1.562  24.722  0.00  0.00    +0.307 C 
ATOM     25  O   UNL     1      -1.503   2.102  25.344  0.00  0.00    -0.252 OA
ATOM     26  C   UNL     1      -0.378   0.407  23.314  0.00  0.00    +0.117 C 
ENDROOT
BRANCH  17  18
ATOM     18  C   UNL     1      -2.887   1.297  24.533  0.00  0.00    +0.077 C 
ATOM     19  C   UNL     1      -3.296   0.710  24.944  0.00  0.00    +0.020 C 
ATOM     20  C   UNL     1      -4.094   0.814  25.128  0.00  0.00    +0.002 C 
ATOM     21  C   UNL     1      -4.482   1.506  24.900  0.00  0.00    +0.000 C 
ATOM     22  C   UNL     1      -4.073   2.093  24.490  0.00  0.00    +0.002 C 
ATOM     23  C   UNL     1      -3.275   1.988  24.306  0.00  0.00    +0.020 C 
ENDBRANCH  17  18
BRANCH   3   4
ATOM      4  C   UNL     1       2.384   0.044  22.677  0.00  0.00    +0.143 C 
BRANCH   4   5
ATOM      5  C   UNL     1       3.179   0.194  22.838  0.00  0.00    -0.001 A 
ATOM      6  C   UNL     1       3.639  -0.378  23.216  0.00  0.00    -0.003 A 
ATOM      7  C   UNL     1       4.434  -0.228  23.377  0.00  0.00    -0.000 A 
ATOM      8  C   UNL     1       4.770   0.494  23.160  0.00  0.00    -0.000 A 
ATOM      9  C   UNL     1       4.311   1.065  22.783  0.00  0.00    -0.000 A 
ATOM     10  C   UNL     1       3.515   0.916  22.622  0.00  0.00    -0.003 A 
ENDBRANCH   4   5
ENDBRANCH   3   4
TORSDOF 3
ENDMDL
MODEL 5
REMARK VINA RESULT:      -9.2      2.842      4.253
REMARK  Name = 
REMARK  3 active torsions:
REMARK  status: ('A' for Active; 'I' for Inactive)
REMARK    1  A    between atoms: N_3  and  C_4
REMARK    2  A    between atoms: C_4  and  C_5
REMARK    3  A    between atoms: N_17  and  C_18
REMARK                            x       y       z     vdW  Elec       q    Type
REMARK                         _______ _______ _______ _____ _____    ______ ____
ROOT
ATOM      1  O   UNL     1      -3.133   2.632  23.312  0.00  0.00    -0.251 OA
ATOM      2  C   UNL     1      -3.096   2.049  23.895  0.00  0.00    +0.324 C 
ATOM      3  N   UNL     1      -3.736   1.930  24.401  0.00  0.00    -0.184 NA
ATOM     11  N   UNL     1      -2.417   1.585  23.973  0.00  0.00    -0.259 N 
ATOM     12  C   UNL     1      -2.380   1.003  24.556  0.00  0.00    +0.117 C 
ATOM     13  C   UNL     1      -1.703   0.539  24.633  0.00  0.00    +0.117 C 
ATOM     14  N   UNL     1      -1.061   0.658  24.128  0.00  0.00    -0.261 N 
ATOM     15  C   UNL     1      -1.098   1.241  23.545  0.00  0.00    +0.117 C 
ATOM     16  C   UNL     1      -0.386   1.232  23.130  0.00  0.00    +0.116 C 
ATOM     17  N   UNL     1       0.092   0.644  23.456  0.00  0.00    -0.264 N 
ATOM     24  C   UNL     1      -0.326   0.290  24.072  0.00  0.00    +0.307 C 
ATOM     25  O   UNL     1      -0.055  -0.326  24.551  0.00  0.00    -0.252 OA
ATOM     26  C   UNL     1      -1.777   1.705  23.467  0.00  0.00    +0.117 C 
ENDROOT
BRANCH  17  18
ATOM     18  C   UNL     1       0.853   0.445  23.209  0.00  0.00    +0.077 C 
ATOM     19  C   UNL     1       1.502   0.874  23.485  0.00  0.00    +0.020 C 
ATOM     20  C   UNL     1       2.264   0.675  23.237  0.00  0.00    +0.002 C 
ATOM     21  C   UNL     1       2.376   0.047  22.714  0.00  0.00    +0.000 C 
ATOM     22  C   UNL     1       1.729  -0.382  22.439  0.00  0.00    +0.002 C 
ATOM     23  C   UNL     1       0.967  -0.183  22.686  0.00  0.00    +0.020 C 
ENDBRANCH  17  18
BRANCH   3   4
ATOM      4  C   UNL     1      -4.415   2.394  24.323  0.00  0.00    +0.143 C 
BRANCH   4   5
ATOM      5  C   UNL     1      -5.018   2.338  24.883  0.00  0.00    -0.001 A 
ATOM      6  C   UNL     1      -5.074   2.899  25.486  0.00  0.00    -0.003 A 
ATOM      7  C   UNL     1      -5.677   2.844  26.046  0.00  0.00    -0.000 A 
ATOM      8  C   UNL     1      -6.224   2.228  26.004  0.00  0.00    -0.000 A 
ATOM      9  C   UNL     1      -6.168   1.667  25.402  0.00  0.00    -0.000 A 
ATOM     10  C   UNL     1      -5.565   1.722  24.841  0.00  0.00    -0.003 A 
ENDBRANCH   4   5
ENDBRANCH   3   4
TORSDOF 3
ENDMDL
MODEL 6
REMARK VINA RESULT:      -7.8     14.249     15.127
REMARK  Name = 
REMARK  3 active torsions:
REMARK  status: ('A' for Active; 'I' for Inactive)
REMARK    1  A    between atoms: N_3  and  C_4
REMARK    2  A    between atoms: C_4  and  C_5
REMARK    3  A    between atoms: N_17  and  C_18
REMARK                            x       y       z     vdW  Elec       q    Type
REMARK                         _______ _______ _______ _____ _____    ______ ____
ROOT
ATOM      1  O   UNL     1      -5.230 -10.253  14.557  0.00  0.00    -0.251 OA
ATOM      2  C   UNL     1      -5.039 -10.262  15.360  0.00  0.00    +0.324 C 
ATOM      3  N   UNL     1      -4.273 -10.450  15.600  0.00  0.00    -0.184 NA
ATOM     11  N   UNL     1      -5.615 -10.081  15.924  0.00  0.00    -0.259 N 
ATOM     12  C   UNL     1      -5.423 -10.090  16.726  0.00  0.00    +0.117 C 
ATOM     13  C   UNL     1      -5.998  -9.910  17.289  0.00  0.00    +0.117 C 
ATOM     14  N   UNL     1      -6.765  -9.721  17.050  0.00  0.00    -0.261 N 
ATOM     15  C   UNL     1      -6.957  -9.713  16.248  0.00  0.00    +0.117 C 
ATOM     16  C   UNL     1      -7.752  -9.508  16.178  0.00  0.00    +0.116 C 
ATOM     17  N   UNL     1      -8.053  -9.389  16.936  0.00  0.00    -0.264 N 
ATOM     24  C   UNL     1      -7.443  -9.522  17.475  0.00  0.00    +0.307 C 
ATOM     25  O   UNL     1      -7.500  -9.464  18.296  0.00  0.00    -0.252 OA
ATOM     26  C   UNL     1      -6.381  -9.893  15.684  0.00  0.00    +0.117 C 
ENDROOT
BRANCH  17  18
ATOM     18  C   UNL     1      -8.828  -9.177  17.123  0.00  0.00    +0.077 C 
ATOM     19  C   UNL     1      -9.374  -9.756  17.342  0.00  0.00    +0.020 C 
ATOM     20  C   UNL     1     -10.149  -9.543  17.529  0.00  0.00    +0.002 C 
ATOM     21  C   UNL     1     -10.377  -8.751  17.497  0.00  0.00    +0.000 C 
ATOM     22  C   UNL     1      -9.832  -8.172  17.279  0.00  0.00    +0.002 C 
ATOM     23  C   UNL     1      -9.057  -8.385  17.092  0.00  0.00    +0.020 C 
ENDBRANCH  17  18
BRANCH   3   4
ATOM      4  C   UNL     1      -3.697 -10.630  15.036  0.00  0.00    +0.143 C 
BRANCH   4   5
ATOM      5  C   UNL     1      -2.900 -10.631  15.247  0.00  0.00    -0.001 A 
ATOM      6  C   UNL     1      -2.322 -10.482  14.676  0.00  0.00    -0.003 A 
ATOM      7  C   UNL     1      -1.525 -10.482  14.888  0.00  0.00    -0.000 A 
ATOM      8  C   UNL     1      -1.304 -10.632  15.669  0.00  0.00    -0.000 A 
ATOM      9  C   UNL     1      -1.881 -10.780  16.238  0.00  0.00    -0.000 A 
ATOM     10  C   UNL     1      -2.679 -10.780  16.028  0.00  0.00    -0.003 A 
ENDBRANCH   4   5
ENDBRANCH   3   4
TORSDOF 3
ENDMDL
