MODEL 1
REMARK VINA RESULT:      -9.5      0.000      0.000
REMARK  Name = 
REMARK  5 active torsions:
REMARK  status: ('A' for Active; 'I' for Inactive)
REMARK    1  A    between atoms: C_3  and  C_11
REMARK    2  A    between atoms: C_16  and  C_18
REMARK    3  A    between atoms: C_18  and  O_19
REMARK    4  A    between atoms: O_19  and  C_20
REMARK    5  A    between atoms: C_20  and  C_21
REMARK                            x       y       z     vdW  Elec       q    Type
REMARK                         _______ _______ _______ _____ _____    ______ ____
ROOT
ATOM     11  C   UNL     1      -3.321   0.599  24.661  0.00  0.00    +0.078 C 
ATOM     12  C   UNL     1      -3.797   1.126  25.083  0.00  0.00    +0.031 C 
ATOM     13  C   UNL     1      -3.449   1.873  25.039  0.00  0.00    +0.094 C 
ATOM     14  N   UNL     1      -2.759   1.808  24.592  0.00  0.00    -0.277 N 
ATOM     15  C   UNL     1      -2.680   1.020  24.358  0.00  0.00    +0.101 C 
ATOM     16  C   UNL     1      -2.239   2.421  24.410  0.00  0.00    +0.256 C 
ATOM     17  O   UNL     1      -1.568   2.272  23.954  0.00  0.00    -0.272 OA
ENDROOT
BRANCH  11   3
ATOM      1  C   UNL     1      -2.608  -0.726  25.638  0.00  0.00    +0.132 C 
ATOM      2  N   UNL     1      -3.135  -0.817  25.010  0.00  0.00    -0.313 N 
ATOM      3  C   UNL     1      -3.463  -0.207  24.561  0.00  0.00    +0.122 A 
ATOM      4  N   UNL     1      -3.957  -0.546  23.994  0.00  0.00    -0.231 NA
ATOM      5  C   UNL     1      -3.934  -1.366  24.093  0.00  0.00    +0.098 A 
ATOM      6  C   UNL     1      -3.426  -1.533  24.721  0.00  0.00    +0.079 A 
ATOM      7  C   UNL     1      -3.295  -2.314  24.948  0.00  0.00    +0.019 A 
ATOM      8  C   UNL     1      -3.671  -2.930  24.547  0.00  0.00    +0.002 A 
ATOM      9  C   UNL     1      -4.179  -2.762  23.919  0.00  0.00    +0.002 A 
ATOM     10  C   UNL     1      -4.311  -1.981  23.692  0.00  0.00    +0.021 A 
ENDBRANCH  11   3
BRANCH  16  18
ATOM     18  C   UNL     1      -2.391   3.185  24.684  0.00  0.00    +0.228 C 
BRANCH  18  19
ATOM     19  O   UNL     1      -1.791   3.752  24.678  0.00  0.00    -0.333 OA
BRANCH  19  20
ATOM     20  C   UNL     1      -1.815   4.382  25.210  0.00  0.00    +0.257 C 
BRANCH  20  21
ATOM     21  C   UNL     1      -1.348   5.050  25.079  0.00  0.00    +0.394 C 
ATOM     22  O   UNL     1      -0.546   4.963  24.901  0.00  0.00    -0.243 OA
ATOM     23  O   UNL     1      -1.681   5.803  25.126  0.00  0.00    -0.243 OA
ENDBRANCH  20  21
ENDBRANCH  19  20
ENDBRANCH  18  19
ENDBRANCH  16  18
TORSDOF 5
ENDMDL
MODEL 2
REMARK VINA RESULT:      -9.0      2.202      5.618
REMARK  Name = 
REMARK  5 active torsions:
REMARK  status: ('A' for Active; 'I' for Inactive)
REMARK    1  A    between atoms: C_3  and  C_11
REMARK    2  A    between atoms: C_16  and  C_18
REMARK    3  A    between atoms: C_18  and  O_19
REMARK    4  A    between atoms: O_19  and  C_20
REMARK    5  A    between atoms: C_20  and  C_21
REMARK                            x       y       z     vdW  Elec       q    Type
REMARK                         _______ _______ _______ _____ _____    ______ ____
ROOT
ATOM     11  C   UNL     1      -2.575   2.016  24.546  0.00  0.00    +0.078 C 
ATOM     12  C   UNL     1      -3.156   1.832  23.989  0.00  0.00    +0.031 C 
ATOM     13  C   UNL     1      -3.337   1.030  24.065  0.00  0.00    +0.094 C 
ATOM     14  N   UNL     1      -2.868   0.719  24.667  0.00  0.00    -0.277 N 
ATOM     15  C   UNL     1      -2.397   1.328  24.965  0.00  0.00    +0.101 C 
ATOM     16  C   UNL     1      -2.868  -0.064  24.927  0.00  0.00    +0.256 C 
ATOM     17  O   UNL     1      -2.366  -0.297  25.539  0.00  0.00    -0.272 OA
ENDROOT
BRANCH  11   3
ATOM      1  C   UNL     1      -3.368   3.434  25.307  0.00  0.00    +0.132 C 
ATOM      2  N   UNL     1      -2.598   3.410  25.013  0.00  0.00    -0.313 N 
ATOM      3  C   UNL     1      -2.233   2.757  24.663  0.00  0.00    +0.122 A 
ATOM      4  N   UNL     1      -1.467   2.976  24.451  0.00  0.00    -0.231 NA
ATOM      5  C   UNL     1      -1.358   3.765  24.670  0.00  0.00    +0.098 A 
ATOM      6  C   UNL     1      -2.056   4.032  25.017  0.00  0.00    +0.079 A 
ATOM      7  C   UNL     1      -2.110   4.808  25.292  0.00  0.00    +0.019 A 
ATOM      8  C   UNL     1      -1.464   5.317  25.219  0.00  0.00    +0.002 A 
ATOM      9  C   UNL     1      -0.765   5.049  24.872  0.00  0.00    +0.002 A 
ATOM     10  C   UNL     1      -0.712   4.273  24.597  0.00  0.00    +0.021 A 
ENDBRANCH  11   3
BRANCH  16  18
ATOM     18  C   UNL     1      -3.372  -0.615  24.575  0.00  0.00    +0.228 C 
BRANCH  18  19
ATOM     19  O   UNL     1      -3.292  -1.417  24.749  0.00  0.00    -0.333 OA
BRANCH  19  20
ATOM     20  C   UNL     1      -3.835  -1.961  24.447  0.00  0.00    +0.257 C 
BRANCH  20  21
ATOM     21  C   UNL     1      -3.668  -2.768  24.476  0.00  0.00    +0.394 C 
ATOM     22  O   UNL     1      -3.587  -3.147  25.205  0.00  0.00    -0.243 OA
ATOM     23  O   UNL     1      -3.582  -3.197  23.776  0.00  0.00    -0.243 OA
ENDBRANCH  20  21
ENDBRANCH  19  20
ENDBRANCH  18  19
ENDBRANCH  16  18
TORSDOF 5
ENDMDL
MODEL 3
REMARK VINA RESULT:      -8.4      2.647      4.196
REMARK  Name = 
REMARK  5 active torsions:
REMARK  status: ('A' for Active; 'I' for Inactive)
REMARK    1  A    between atoms: C_3  and  C_11
REMARK    2  A    between atoms: C_16  and  C_18
REMARK    3  A    between atoms: C_18  and  O_19
REMARK    4  A    between atoms: O_19  and  C_20
REMARK    5  A    between atoms: C_20  and  C_21
REMARK                            x       y       z     vdW  Elec       q    Type
REMARK                         _______ _______ _______ _____ _____    ______ ____
ROOT
ATOM     11  C   UNL     1      -2.779   1.650  24.145  0.00  0.00    +0.078 C 
ATOM     12  C   UNL     1      -2.682   1.521  23.335  0.00  0.00    +0.031 C 
ATOM     13  C   UNL     1      -1.928   1.207  23.215  0.00  0.00    +0.094 C 
ATOM     14  N   UNL     1      -1.560   1.141  23.949  0.00  0.00    -0.277 N 
ATOM     15  C   UNL     1      -2.085   1.415  24.524  0.00  0.00    +0.101 C 
ATOM     16  C   UNL     1      -0.799   0.853  24.086  0.00  0.00    +0.256 C 
ATOM     17  O   UNL     1      -0.502   0.819  24.855  0.00  0.00    -0.272 OA
ENDROOT
BRANCH  11   3
ATOM      1  C   UNL     1      -4.218   0.714  24.666  0.00  0.00    +0.132 C 
ATOM      2  N   UNL     1      -4.113   1.528  24.750  0.00  0.00    -0.313 N 
ATOM      3  C   UNL     1      -3.450   1.958  24.510  0.00  0.00    +0.122 A 
ATOM      4  N   UNL     1      -3.579   2.751  24.700  0.00  0.00    -0.231 NA
ATOM      5  C   UNL     1      -4.320   2.810  25.057  0.00  0.00    +0.098 A 
ATOM      6  C   UNL     1      -4.650   2.055  25.088  0.00  0.00    +0.079 A 
ATOM      7  C   UNL     1      -5.397   1.945  25.420  0.00  0.00    +0.019 A 
ATOM      8  C   UNL     1      -5.814   2.590  25.721  0.00  0.00    +0.002 A 
ATOM      9  C   UNL     1      -5.484   3.345  25.690  0.00  0.00    +0.002 A 
ATOM     10  C   UNL     1      -4.738   3.456  25.358  0.00  0.00    +0.021 A 
ENDBRANCH  11   3
BRANCH  16  18
ATOM     18  C   UNL     1      -0.335   0.598  23.453  0.00  0.00    +0.228 C 
BRANCH  18  19
ATOM     19  O   UNL     1       0.479   0.505  23.549  0.00  0.00    -0.333 OA
BRANCH  19  20
ATOM     20  C   UNL     1       0.883  -0.070  23.116  0.00  0.00    +0.257 C 
BRANCH  20  21
ATOM     21  C   UNL     1       1.597   0.118  22.748  0.00  0.00    +0.394 C 
ATOM     22  O   UNL     1       2.154   0.582  23.144  0.00  0.00    -0.243 OA
ATOM     23  O   UNL     1       1.755  -0.157  21.987  0.00  0.00    -0.243 OA
ENDBRANCH  20  21
ENDBRANCH  19  20
ENDBRANCH  18  19
ENDBRANCH  16  18
TORSDOF 5
ENDMDL
MODEL 4
REMARK VINA RESULT:      -7.7     17.916     19.408
REMARK  Name = 
REMARK  5 active torsions:
REMARK  status: ('A' for Active; 'I' for Inactive)
REMARK    1  A    between atoms: C_3  and  C_11
REMARK    2  A    between atoms: C_16  and  C_18
REMARK    3  A    between atoms: C_18  and  O_19
REMARK    4  A    between atoms: O_19  and  C_20
REMARK    5  A    between atoms: C_20  and  C_21
REMARK                            x       y       z     vdW  Elec       q    Type
REMARK                         _______ _______ _______ _____ _____    ______ ____
ROOT
ATOM     11  C   UNL     1      14.427   7.749  19.240  0.00  0.00    +0.078 C 
ATOM     12  C   UNL     1      14.229   8.549  19.183  0.00  0.00    +0.031 C 
ATOM     13  C   UNL     1      13.541   8.609  18.732  0.00  0.00    +0.094 C 
ATOM     14  N   UNL     1      13.313   7.848  18.511  0.00  0.00    -0.277 N 
ATOM     15  C   UNL     1      13.861   7.316  18.825  0.00  0.00    +0.101 C 
ATOM     16  C   UNL     1      12.654   7.652  18.056  0.00  0.00    +0.256 C 
ATOM     17  O   UNL     1      12.495   6.863  17.877  0.00  0.00    -0.272 OA
ENDROOT
BRANCH  11   3
ATOM      1  C   UNL     1      14.536   7.469  21.009  0.00  0.00    +0.132 C 
ATOM      2  N   UNL     1      15.127   7.309  20.456  0.00  0.00    -0.313 N 
ATOM      3  C   UNL     1      15.076   7.438  19.642  0.00  0.00    +0.122 A 
ATOM      4  N   UNL     1      15.789   7.201  19.302  0.00  0.00    -0.231 NA
ATOM      5  C   UNL     1      16.280   6.925  19.905  0.00  0.00    +0.098 A 
ATOM      6  C   UNL     1      15.871   6.992  20.618  0.00  0.00    +0.079 A 
ATOM      7  C   UNL     1      16.228   6.756  21.323  0.00  0.00    +0.019 A 
ATOM      8  C   UNL     1      16.996   6.453  21.314  0.00  0.00    +0.002 A 
ATOM      9  C   UNL     1      17.405   6.386  20.602  0.00  0.00    +0.002 A 
ATOM     10  C   UNL     1      17.048   6.622  19.897  0.00  0.00    +0.021 A 
ENDBRANCH  11   3
BRANCH  16  18
ATOM     18  C   UNL     1      12.153   8.247  17.778  0.00  0.00    +0.228 C 
BRANCH  18  19
ATOM     19  O   UNL     1      11.674   8.109  17.121  0.00  0.00    -0.333 OA
BRANCH  19  20
ATOM     20  C   UNL     1      11.095   8.659  16.910  0.00  0.00    +0.257 C 
BRANCH  20  21
ATOM     21  C   UNL     1      10.694   8.579  16.194  0.00  0.00    +0.394 C 
ATOM     22  O   UNL     1       9.965   8.190  16.171  0.00  0.00    -0.243 OA
ATOM     23  O   UNL     1      11.019   8.887  15.501  0.00  0.00    -0.243 OA
ENDBRANCH  20  21
ENDBRANCH  19  20
ENDBRANCH  18  19
ENDBRANCH  16  18
TORSDOF 5
ENDMDL
MODEL 5
REMARK VINA RESULT:      -6.5     18.272     19.835
REMARK  Name = 
REMARK  5 active torsions:
REMARK  status: ('A' for Active; 'I' for Inactive)
REMARK    1  A    between atoms: C_3  and  C_11
REMARK    2  A    between atoms: C_16  and  C_18
REMARK    3  A    between atoms: C_18  and  O_19
REMARK    4  A    between atoms: O_19  and  C_20
REMARK    5  A    between atoms: C_20  and  C_21
REMARK                            x       y       z     vdW  Elec       q    Type
REMARK                         _______ _______ _______ _____ _____    ______ ____
ROOT
ATOM     11  C   UNL     1      13.738   8.502  18.054  0.00  0.00    +0.078 C 
ATOM     12  C   UNL     1      14.184   9.094  18.419  0.00  0.00    +0.031 C 
ATOM     13  C   UNL     1      14.783   8.730  18.854  0.00  0.00    +0.094 C 
ATOM     14  N   UNL     1      14.708   7.914  18.759  0.00  0.00    -0.277 N 
ATOM     15  C   UNL     1      14.062   7.773  18.265  0.00  0.00    +0.101 C 
ATOM     16  C   UNL     1      15.192   7.340  19.098  0.00  0.00    +0.256 C 
ATOM     17  O   UNL     1      15.049   6.540  18.953  0.00  0.00    -0.272 OA
ENDROOT
BRANCH  11   3
ATOM      1  C   UNL     1      13.785   8.974  16.324  0.00  0.00    +0.132 C 
ATOM      2  N   UNL     1      13.105   8.836  16.770  0.00  0.00    -0.313 N 
ATOM      3  C   UNL     1      13.084   8.619  17.566  0.00  0.00    +0.122 A 
ATOM      4  N   UNL     1      12.293   8.540  17.788  0.00  0.00    -0.231 NA
ATOM      5  C   UNL     1      11.826   8.708  17.128  0.00  0.00    +0.098 A 
ATOM      6  C   UNL     1      12.327   8.891  16.500  0.00  0.00    +0.079 A 
ATOM      7  C   UNL     1      12.012   9.084  15.763  0.00  0.00    +0.019 A 
ATOM      8  C   UNL     1      11.194   9.094  15.654  0.00  0.00    +0.002 A 
ATOM      9  C   UNL     1      10.692   8.911  16.282  0.00  0.00    +0.002 A 
ATOM     10  C   UNL     1      11.007   8.718  17.019  0.00  0.00    +0.021 A 
ENDBRANCH  11   3
BRANCH  16  18
ATOM     18  C   UNL     1      15.821   7.565  19.583  0.00  0.00    +0.228 C 
BRANCH  18  19
ATOM     19  O   UNL     1      16.217   6.999  20.034  0.00  0.00    -0.333 OA
BRANCH  19  20
ATOM     20  C   UNL     1      17.004   7.122  20.253  0.00  0.00    +0.257 C 
BRANCH  20  21
ATOM     21  C   UNL     1      17.247   6.957  21.024  0.00  0.00    +0.394 C 
ATOM     22  O   UNL     1      17.391   7.575  21.552  0.00  0.00    -0.243 OA
ATOM     23  O   UNL     1      17.347   6.175  21.266  0.00  0.00    -0.243 OA
ENDBRANCH  20  21
ENDBRANCH  19  20
ENDBRANCH  18  19
ENDBRANCH  16  18
TORSDOF 5
ENDMDL
MODEL 6
REMARK VINA RESULT:      -6.5     16.503     18.765
REMARK  Name = 
REMARK  5 active torsions:
REMARK  status: ('A' for Active; 'I' for Inactive)
REMARK    1  A    between atoms: C_3  and  C_11
REMARK    2  A    between atoms: C_16  and  C_18
REMARK    3  A    between atoms: C_18  and  O_19
REMARK    4  A    between atoms: O_19  and  C_20
REMARK    5  A    between atoms: C_20  and  C_21
REMARK                            x       y       z     vdW  Elec       q    Type
REMARK                         _______ _______ _______ _____ _____    ______ ____
ROOT
ATOM     11  C   UNL     1      14.394   7.350  20.143  0.00  0.00    +0.078 C 
ATOM     12  C   UNL     1      14.270   8.166  20.152  0.00  0.00    +0.031 C 
ATOM     13  C   UNL     1      13.534   8.308  20.497  0.00  0.00    +0.094 C 
ATOM     14  N   UNL     1      13.203   7.581  20.699  0.00  0.00    -0.277 N 
ATOM     15  C   UNL     1      13.734   6.988  20.481  0.00  0.00    +0.101 C 
ATOM     16  C   UNL     1      12.469   7.465  21.058  0.00  0.00    +0.256 C 
ATOM     17  O   UNL     1      12.209   6.701  21.229  0.00  0.00    -0.272 OA
ENDROOT
BRANCH  11   3
ATOM      1  C   UNL     1      15.828   6.843  21.094  0.00  0.00    +0.132 C 
ATOM      2  N   UNL     1      15.720   6.731  20.284  0.00  0.00    -0.313 N 
ATOM      3  C   UNL     1      15.060   6.964  19.847  0.00  0.00    +0.122 A 
ATOM      4  N   UNL     1      15.184   6.743  19.062  0.00  0.00    -0.231 NA
ATOM      5  C   UNL     1      15.920   6.373  19.014  0.00  0.00    +0.098 A 
ATOM      6  C   UNL     1      16.251   6.366  19.769  0.00  0.00    +0.079 A 
ATOM      7  C   UNL     1      16.994   6.028  19.891  0.00  0.00    +0.019 A 
ATOM      8  C   UNL     1      17.405   5.697  19.256  0.00  0.00    +0.002 A 
ATOM      9  C   UNL     1      17.074   5.705  18.501  0.00  0.00    +0.002 A 
ATOM     10  C   UNL     1      16.332   6.043  18.379  0.00  0.00    +0.021 A 
ENDBRANCH  11   3
BRANCH  16  18
ATOM     18  C   UNL     1      11.995   8.114  21.246  0.00  0.00    +0.228 C 
BRANCH  18  19
ATOM     19  O   UNL     1      11.374   8.029  21.782  0.00  0.00    -0.333 OA
BRANCH  19  20
ATOM     20  C   UNL     1      11.030   8.698  22.123  0.00  0.00    +0.257 C 
BRANCH  20  21
ATOM     21  C   UNL     1      10.511   8.614  22.759  0.00  0.00    +0.394 C 
ATOM     22  O   UNL     1       9.887   8.076  22.714  0.00  0.00    -0.243 OA
ATOM     23  O   UNL     1      10.615   9.069  23.440  0.00  0.00    -0.243 OA
ENDBRANCH  20  21
ENDBRANCH  19  20
ENDBRANCH  18  19
ENDBRANCH  16  18
TORSDOF 5
ENDMDL
MODEL 7
REMARK VINA RESULT:      -6.2     16.588     18.287
REMARK  Name = 
REMARK  5 active torsions:
REMARK  status: ('A' for Active; 'I' for Inactive)
REMARK    1  A    between atoms: C_3  and  C_11
REMARK    2  A    between atoms: C_16  and  C_18
REMARK    3  A    between atoms: C_18  and  O_19
REMARK    4  A    between atoms: O_19  and  C_20
REMARK    5  A    between atoms: C_20  and  C_21
REMARK                            x       y       z     vdW  Elec       q    Type
REMARK                         _______ _______ _______ _____ _____    ______ ____
ROOT
ATOM     11  C   UNL     1      12.247   8.052  19.421  0.00  0.00    +0.078 C 
ATOM     12  C   UNL     1      11.995   7.589  18.785  0.00  0.00    +0.031 C 
ATOM     13  C   UNL     1      12.551   7.666  18.179  0.00  0.00    +0.094 C 
ATOM     14  N   UNL     1      13.145   8.175  18.441  0.00  0.00    -0.277 N 
ATOM     15  C   UNL     1      12.957   8.413  19.208  0.00  0.00    +0.101 C 
ATOM     16  C   UNL     1      13.810   8.405  18.011  0.00  0.00    +0.256 C 
ATOM     17  O   UNL     1      14.360   8.920  18.347  0.00  0.00    -0.272 OA
ENDROOT
BRANCH  11   3
ATOM      1  C   UNL     1      12.198   6.839  20.742  0.00  0.00    +0.132 C 
ATOM      2  N   UNL     1      11.834   7.579  20.750  0.00  0.00    -0.313 N 
ATOM      3  C   UNL     1      11.856   8.137  20.142  0.00  0.00    +0.122 A 
ATOM      4  N   UNL     1      11.420   8.794  20.383  0.00  0.00    -0.231 NA
ATOM      5  C   UNL     1      11.127   8.642  21.140  0.00  0.00    +0.098 A 
ATOM      6  C   UNL     1      11.383   7.892  21.367  0.00  0.00    +0.079 A 
ATOM      7  C   UNL     1      11.173   7.590  22.105  0.00  0.00    +0.019 A 
ATOM      8  C   UNL     1      10.707   8.039  22.617  0.00  0.00    +0.002 A 
ATOM      9  C   UNL     1      10.451   8.789  22.390  0.00  0.00    +0.002 A 
ATOM     10  C   UNL     1      10.661   9.092  21.652  0.00  0.00    +0.021 A 
ENDBRANCH  11   3
BRANCH  16  18
ATOM     18  C   UNL     1      13.925   8.120  17.245  0.00  0.00    +0.228 C 
BRANCH  18  19
ATOM     19  O   UNL     1      14.016   8.649  16.618  0.00  0.00    -0.333 OA
BRANCH  19  20
ATOM     20  C   UNL     1      14.329   8.387  15.900  0.00  0.00    +0.257 C 
BRANCH  20  21
ATOM     21  C   UNL     1      14.196   8.820  15.211  0.00  0.00    +0.394 C 
ATOM     22  O   UNL     1      13.436   9.088  15.033  0.00  0.00    -0.243 OA
ATOM     23  O   UNL     1      14.822   8.985  14.700  0.00  0.00    -0.243 OA
ENDBRANCH  20  21
ENDBRANCH  19  20
ENDBRANCH  18  19
ENDBRANCH  16  18
TORSDOF 5
ENDMDL
