MODEL 1
REMARK VINA RESULT:     -11.8      0.000      0.000
REMARK  Name = 
REMARK  8 active torsions:
REMARK  status: ('A' for Active; 'I' for Inactive)
REMARK    1  A    between atoms: O_2  and  C_3
REMARK    2  A    between atoms: C_6  and  C_7
REMARK    3  A    between atoms: C_7  and  N_8
REMARK    4  A    between atoms: N_8  and  C_9
REMARK    5  A    between atoms: C_9  and  C_10
REMARK    6  A    between atoms: C_12  and  C_13
REMARK    7  A    between atoms: C_13  and  C_14
REMARK    8  A    between atoms: C_17  and  C_19
REMARK                            x       y       z     vdW  Elec       q    Type
REMARK                         _______ _______ _______ _____ _____    ______ ____
ROOT
ATOM     10  C   UNL     1      -1.156  -0.588  25.033  0.00  0.00    +0.163 C 
ATOM     11  O   UNL     1      -1.933  -0.544  25.308  0.00  0.00    -0.354 OA
ATOM     12  C   UNL     1      -2.450  -1.175  25.188  0.00  0.00    +0.121 C 
ATOM     26  C   UNL     1      -2.191  -1.851  24.791  0.00  0.00    +0.033 C 
ATOM     27  C   UNL     1      -1.415  -1.896  24.516  0.00  0.00    +0.038 C 
ATOM     28  C   UNL     1      -0.897  -1.264  24.637  0.00  0.00    +0.180 C 
ATOM     29  O   UNL     1      -0.121  -1.309  24.361  0.00  0.00    -0.220 OA
ENDROOT
BRANCH  10   9
ATOM      9  C   UNL     1      -0.639   0.042  25.153  0.00  0.00    +0.121 C 
BRANCH   9   8
ATOM      8  N   UNL     1      -0.921   0.818  25.131  0.00  0.00    -0.211 NA
BRANCH   8   7
ATOM      7  C   UNL     1      -0.414   1.446  25.300  0.00  0.00    +0.115 C 
BRANCH   7   6
ATOM      3  C   UNL     1      -1.281   3.764  25.327  0.00  0.00    +0.139 A 
ATOM      4  C   UNL     1      -0.971   3.448  24.631  0.00  0.00    +0.037 A 
ATOM      5  C   UNL     1      -0.683   2.675  24.622  0.00  0.00    +0.000 A 
ATOM      6  C   UNL     1      -0.703   2.219  25.309  0.00  0.00    -0.005 A 
ATOM     30  C   UNL     1      -1.013   2.535  26.005  0.00  0.00    +0.000 A 
ATOM     31  C   UNL     1      -1.302   3.308  26.015  0.00  0.00    +0.037 A 
BRANCH   3   2
ATOM      1  C   UNL     1      -1.139   5.143  24.982  0.00  0.00    +0.252 C 
ATOM      2  O   UNL     1      -1.570   4.537  25.337  0.00  0.00    -0.471 OA
ENDBRANCH   3   2
ENDBRANCH   7   6
ENDBRANCH   8   7
ENDBRANCH   9   8
ENDBRANCH  10   9
BRANCH  12  13
ATOM     13  C   UNL     1      -3.226  -1.131  25.463  0.00  0.00    +0.079 C 
BRANCH  13  14
ATOM     14  C   UNL     1      -3.756  -0.597  25.121  0.00  0.00    +0.103 A 
ATOM     15  N   UNL     1      -4.224  -0.737  24.458  0.00  0.00    -0.081 NA
ATOM     16  O   UNL     1      -4.667  -0.057  24.310  0.00  0.00    -0.354 OA
ATOM     17  C   UNL     1      -4.471   0.504  24.882  0.00  0.00    +0.177 A 
ATOM     18  C   UNL     1      -3.907   0.170  25.384  0.00  0.00    +0.058 A 
BRANCH  17  19
ATOM     19  C   UNL     1      -4.784   1.266  24.942  0.00  0.00    +0.040 A 
ATOM     20  C   UNL     1      -4.448   1.884  24.512  0.00  0.00    +0.045 A 
ATOM     21  C   UNL     1      -4.761   2.646  24.572  0.00  0.00    +0.196 A 
ATOM     22  O   UNL     1      -4.426   3.264  24.143  0.00  0.00    -0.287 OA
ATOM     23  C   UNL     1      -5.410   2.787  25.063  0.00  0.00    +0.042 A 
ATOM     24  C   UNL     1      -5.745   2.168  25.492  0.00  0.00    +0.003 A 
ATOM     25  C   UNL     1      -5.432   1.407  25.432  0.00  0.00    +0.003 A 
ENDBRANCH  17  19
ENDBRANCH  13  14
ENDBRANCH  12  13
TORSDOF 8
ENDMDL
MODEL 2
REMARK VINA RESULT:     -11.6      1.254      3.982
REMARK  Name = 
REMARK  8 active torsions:
REMARK  status: ('A' for Active; 'I' for Inactive)
REMARK    1  A    between atoms: O_2  and  C_3
REMARK    2  A    between atoms: C_6  and  C_7
REMARK    3  A    between atoms: C_7  and  N_8
REMARK    4  A    between atoms: N_8  and  C_9
REMARK    5  A    between atoms: C_9  and  C_10
REMARK    6  A    between atoms: C_12  and  C_13
REMARK    7  A    between atoms: C_13  and  C_14
REMARK    8  A    between atoms: C_17  and  C_19
REMARK                            x       y       z     vdW  Elec       q    Type
REMARK                         _______ _______ _______ _____ _____    ______ ____
ROOT
ATOM     10  C   UNL     1      -2.790   3.327  25.200  0.00  0.00    +0.163 C 
ATOM     11  O   UNL     1      -3.298   2.800  24.820  0.00  0.00    -0.354 OA
ATOM     12  C   UNL     1      -4.114   2.878  24.906  0.00  0.00    +0.121 C 
ATOM     26  C   UNL     1      -4.423   3.484  25.372  0.00  0.00    +0.033 C 
ATOM     27  C   UNL     1      -3.917   4.012  25.753  0.00  0.00    +0.038 C 
ATOM     28  C   UNL     1      -3.099   3.933  25.667  0.00  0.00    +0.180 C 
ATOM     29  O   UNL     1      -2.592   4.461  26.048  0.00  0.00    -0.220 OA
ENDROOT
BRANCH  10   9
ATOM      9  C   UNL     1      -1.974   3.249  25.114  0.00  0.00    +0.121 C 
BRANCH   9   8
ATOM      8  N   UNL     1      -1.662   2.609  24.697  0.00  0.00    -0.211 NA
BRANCH   8   7
ATOM      7  C   UNL     1      -0.925   2.301  24.903  0.00  0.00    +0.115 C 
BRANCH   7   6
ATOM      3  C   UNL     1      -0.366  -0.047  24.355  0.00  0.00    +0.139 A 
ATOM      4  C   UNL     1      -0.370   0.525  23.761  0.00  0.00    +0.037 A 
ATOM      5  C   UNL     1      -0.556   1.308  23.944  0.00  0.00    +0.000 A 
ATOM      6  C   UNL     1      -0.739   1.518  24.720  0.00  0.00    -0.005 A 
ATOM     30  C   UNL     1      -0.735   0.946  25.314  0.00  0.00    +0.000 A 
ATOM     31  C   UNL     1      -0.549   0.163  25.133  0.00  0.00    +0.037 A 
BRANCH   3   2
ATOM      1  C   UNL     1      -0.175  -1.401  24.767  0.00  0.00    +0.252 C 
ATOM      2  O   UNL     1      -0.180  -0.830  24.174  0.00  0.00    -0.471 OA
ENDBRANCH   3   2
ENDBRANCH   7   6
ENDBRANCH   8   7
ENDBRANCH   9   8
ENDBRANCH  10   9
BRANCH  12  13
ATOM     13  C   UNL     1      -4.621   2.352  24.525  0.00  0.00    +0.079 C 
BRANCH  13  14
ATOM     14  C   UNL     1      -4.664   1.566  24.776  0.00  0.00    +0.103 A 
ATOM     15  N   UNL     1      -5.085   1.287  25.427  0.00  0.00    -0.081 NA
ATOM     16  O   UNL     1      -4.974   0.471  25.472  0.00  0.00    -0.354 OA
ATOM     17  C   UNL     1      -4.484   0.245  24.848  0.00  0.00    +0.177 A 
ATOM     18  C   UNL     1      -4.292   0.923  24.417  0.00  0.00    +0.058 A 
BRANCH  17  19
ATOM     19  C   UNL     1      -4.230  -0.523  24.683  0.00  0.00    +0.040 A 
ATOM     20  C   UNL     1      -3.939  -1.000  25.290  0.00  0.00    +0.045 A 
ATOM     21  C   UNL     1      -3.686  -1.768  25.126  0.00  0.00    +0.196 A 
ATOM     22  O   UNL     1      -3.395  -2.245  25.732  0.00  0.00    -0.287 OA
ATOM     23  C   UNL     1      -3.723  -2.057  24.354  0.00  0.00    +0.042 A 
ATOM     24  C   UNL     1      -4.013  -1.580  23.748  0.00  0.00    +0.003 A 
ATOM     25  C   UNL     1      -4.267  -0.812  23.912  0.00  0.00    +0.003 A 
ENDBRANCH  17  19
ENDBRANCH  13  14
ENDBRANCH  12  13
TORSDOF 8
ENDMDL
MODEL 3
REMARK VINA RESULT:     -11.5      1.042      3.614
REMARK  Name = 
REMARK  8 active torsions:
REMARK  status: ('A' for Active; 'I' for Inactive)
REMARK    1  A    between atoms: O_2  and  C_3
REMARK    2  A    between atoms: C_6  and  C_7
REMARK    3  A    between atoms: C_7  and  N_8
REMARK    4  A    between atoms: N_8  and  C_9
REMARK    5  A    between atoms: C_9  and  C_10
REMARK    6  A    between atoms: C_12  and  C_13
REMARK    7  A    between atoms: C_13  and  C_14
REMARK    8  A    between atoms: C_17  and  C_19
REMARK                            x       y       z     vdW  Elec       q    Type
REMARK                         _______ _______ _______ _____ _____    ______ ____
ROOT
ATOM     10  C   UNL     1      -3.602  -1.242  24.629  0.00  0.00    +0.163 C 
ATOM     11  O   UNL     1      -2.927  -0.992  25.032  0.00  0.00    -0.354 OA
ATOM     12  C   UNL     1      -2.267  -1.485  25.080  0.00  0.00    +0.121 C 
ATOM     26  C   UNL     1      -2.283  -2.229  24.724  0.00  0.00    +0.033 C 
ATOM     27  C   UNL     1      -2.957  -2.480  24.321  0.00  0.00    +0.038 C 
ATOM     28  C   UNL     1      -3.617  -1.987  24.274  0.00  0.00    +0.180 C 
ATOM     29  O   UNL     1      -4.291  -2.238  23.870  0.00  0.00    -0.220 OA
ENDROOT
BRANCH  10   9
ATOM      9  C   UNL     1      -4.261  -0.750  24.582  0.00  0.00    +0.121 C 
BRANCH   9   8
ATOM      8  N   UNL     1      -4.189   0.055  24.752  0.00  0.00    -0.211 NA
BRANCH   8   7
ATOM      7  C   UNL     1      -4.814   0.568  24.594  0.00  0.00    +0.115 C 
BRANCH   7   6
ATOM      3  C   UNL     1      -4.582   2.987  25.064  0.00  0.00    +0.139 A 
ATOM      4  C   UNL     1      -5.038   2.512  25.561  0.00  0.00    +0.037 A 
ATOM      5  C   UNL     1      -5.115   1.706  25.404  0.00  0.00    +0.000 A 
ATOM      6  C   UNL     1      -4.737   1.374  24.751  0.00  0.00    -0.005 A 
ATOM     30  C   UNL     1      -4.282   1.849  24.253  0.00  0.00    +0.000 A 
ATOM     31  C   UNL     1      -4.204   2.656  24.409  0.00  0.00    +0.037 A 
BRANCH   3   2
ATOM      1  C   UNL     1      -3.884   4.065  25.688  0.00  0.00    +0.252 C 
ATOM      2  O   UNL     1      -4.505   3.793  25.220  0.00  0.00    -0.471 OA
ENDBRANCH   3   2
ENDBRANCH   7   6
ENDBRANCH   8   7
ENDBRANCH   9   8
ENDBRANCH  10   9
BRANCH  12  13
ATOM     13  C   UNL     1      -1.593  -1.234  25.483  0.00  0.00    +0.079 C 
BRANCH  13  14
ATOM     14  C   UNL     1      -1.175  -0.574  25.216  0.00  0.00    +0.103 A 
ATOM     15  N   UNL     1      -0.629  -0.563  24.599  0.00  0.00    -0.081 NA
ATOM     16  O   UNL     1      -0.346   0.208  24.522  0.00  0.00    -0.354 OA
ATOM     17  C   UNL     1      -0.718   0.674  25.093  0.00  0.00    +0.177 A 
ATOM     18  C   UNL     1      -1.230   0.190  25.522  0.00  0.00    +0.058 A 
BRANCH  17  19
ATOM     19  C   UNL     1      -0.598   1.482  25.213  0.00  0.00    +0.040 A 
ATOM     20  C   UNL     1      -0.608   2.000  24.571  0.00  0.00    +0.045 A 
ATOM     21  C   UNL     1      -0.488   2.807  24.691  0.00  0.00    +0.196 A 
ATOM     22  O   UNL     1      -0.498   3.326  24.050  0.00  0.00    -0.287 OA
ATOM     23  C   UNL     1      -0.358   3.096  25.454  0.00  0.00    +0.042 A 
ATOM     24  C   UNL     1      -0.348   2.578  26.094  0.00  0.00    +0.003 A 
ATOM     25  C   UNL     1      -0.468   1.770  25.974  0.00  0.00    +0.003 A 
ENDBRANCH  17  19
ENDBRANCH  13  14
ENDBRANCH  12  13
TORSDOF 8
ENDMDL
MODEL 4
REMARK VINA RESULT:     -11.5      1.255      3.945
REMARK  Name = 
REMARK  8 active torsions:
REMARK  status: ('A' for Active; 'I' for Inactive)
REMARK    1  A    between atoms: O_2  and  C_3
REMARK    2  A    between atoms: C_6  and  C_7
REMARK    3  A    between atoms: C_7  and  N_8
REMARK    4  A    between atoms: N_8  and  C_9
REMARK    5  A    between atoms: C_9  and  C_10
REMARK    6  A    between atoms: C_12  and  C_13
REMARK    7  A    between atoms: C_13  and  C_14
REMARK    8  A    between atoms: C_17  and  C_19
REMARK                            x       y       z     vdW  Elec       q    Type
REMARK                         _______ _______ _______ _____ _____    ______ ____
ROOT
ATOM     10  C   UNL     1      -4.425   2.943  25.351  0.00  0.00    +0.163 C 
ATOM     11  O   UNL     1      -4.299   2.223  24.968  0.00  0.00    -0.354 OA
ATOM     12  C   UNL     1      -4.922   1.693  24.868  0.00  0.00    +0.121 C 
ATOM     26  C   UNL     1      -5.674   1.883  25.151  0.00  0.00    +0.033 C 
ATOM     27  C   UNL     1      -5.801   2.602  25.535  0.00  0.00    +0.038 C 
ATOM     28  C   UNL     1      -5.176   3.132  25.635  0.00  0.00    +0.180 C 
ATOM     29  O   UNL     1      -5.304   3.851  26.018  0.00  0.00    -0.220 OA
ENDROOT
BRANCH  10   9
ATOM      9  C   UNL     1      -3.801   3.472  25.451  0.00  0.00    +0.121 C 
BRANCH   9   8
ATOM      8  N   UNL     1      -3.055   3.295  25.146  0.00  0.00    -0.211 NA
BRANCH   8   7
ATOM      7  C   UNL     1      -2.382   3.641  25.472  0.00  0.00    +0.115 C 
BRANCH   7   6
ATOM      3  C   UNL     1      -0.158   2.620  25.103  0.00  0.00    +0.139 A 
ATOM      4  C   UNL     1      -0.609   2.871  24.459  0.00  0.00    +0.037 A 
ATOM      5  C   UNL     1      -1.350   3.211  24.583  0.00  0.00    +0.000 A 
ATOM      6  C   UNL     1      -1.641   3.301  25.349  0.00  0.00    -0.005 A 
ATOM     30  C   UNL     1      -1.190   3.051  25.993  0.00  0.00    +0.000 A 
ATOM     31  C   UNL     1      -0.449   2.711  25.870  0.00  0.00    +0.037 A 
BRANCH   3   2
ATOM      1  C   UNL     1       0.714   1.802  24.322  0.00  0.00    +0.252 C 
ATOM      2  O   UNL     1       0.583   2.280  24.981  0.00  0.00    -0.471 OA
ENDBRANCH   3   2
ENDBRANCH   7   6
ENDBRANCH   8   7
ENDBRANCH   9   8
ENDBRANCH  10   9
BRANCH  12  13
ATOM     13  C   UNL     1      -4.796   0.975  24.484  0.00  0.00    +0.079 C 
BRANCH  13  14
ATOM     14  C   UNL     1      -4.346   0.386  24.849  0.00  0.00    +0.103 A 
ATOM     15  N   UNL     1      -4.571  -0.057  25.508  0.00  0.00    -0.081 NA
ATOM     16  O   UNL     1      -3.957  -0.579  25.685  0.00  0.00    -0.354 OA
ATOM     17  C   UNL     1      -3.353  -0.459  25.135  0.00  0.00    +0.177 A 
ATOM     18  C   UNL     1      -3.594   0.138  24.618  0.00  0.00    +0.058 A 
BRANCH  17  19
ATOM     19  C   UNL     1      -2.635  -0.864  25.107  0.00  0.00    +0.040 A 
ATOM     20  C   UNL     1      -2.572  -1.562  24.672  0.00  0.00    +0.045 A 
ATOM     21  C   UNL     1      -1.854  -1.968  24.644  0.00  0.00    +0.196 A 
ATOM     22  O   UNL     1      -1.790  -2.665  24.209  0.00  0.00    -0.287 OA
ATOM     23  C   UNL     1      -1.199  -1.674  25.052  0.00  0.00    +0.042 A 
ATOM     24  C   UNL     1      -1.262  -0.977  25.487  0.00  0.00    +0.003 A 
ATOM     25  C   UNL     1      -1.981  -0.571  25.515  0.00  0.00    +0.003 A 
ENDBRANCH  17  19
ENDBRANCH  13  14
ENDBRANCH  12  13
TORSDOF 8
ENDMDL
MODEL 5
REMARK VINA RESULT:     -11.4      1.024      3.759
REMARK  Name = 
REMARK  8 active torsions:
REMARK  status: ('A' for Active; 'I' for Inactive)
REMARK    1  A    between atoms: O_2  and  C_3
REMARK    2  A    between atoms: C_6  and  C_7
REMARK    3  A    between atoms: C_7  and  N_8
REMARK    4  A    between atoms: N_8  and  C_9
REMARK    5  A    between atoms: C_9  and  C_10
REMARK    6  A    between atoms: C_12  and  C_13
REMARK    7  A    between atoms: C_13  and  C_14
REMARK    8  A    between atoms: C_17  and  C_19
REMARK                            x       y       z     vdW  Elec       q    Type
REMARK                         _______ _______ _______ _____ _____    ______ ____
ROOT
ATOM     10  C   UNL     1      -2.215  -0.549  24.686  0.00  0.00    +0.163 C 
ATOM     11  O   UNL     1      -1.733   0.102  24.528  0.00  0.00    -0.354 OA
ATOM     12  C   UNL     1      -0.923   0.062  24.676  0.00  0.00    +0.121 C 
ATOM     26  C   UNL     1      -0.594  -0.630  24.983  0.00  0.00    +0.033 C 
ATOM     27  C   UNL     1      -1.075  -1.281  25.141  0.00  0.00    +0.038 C 
ATOM     28  C   UNL     1      -1.886  -1.240  24.992  0.00  0.00    +0.180 C 
ATOM     29  O   UNL     1      -2.367  -1.892  25.150  0.00  0.00    -0.220 OA
ENDROOT
BRANCH  10   9
ATOM      9  C   UNL     1      -3.025  -0.508  24.537  0.00  0.00    +0.121 C 
BRANCH   9   8
ATOM      8  N   UNL     1      -3.459   0.146  24.790  0.00  0.00    -0.211 NA
BRANCH   8   7
ATOM      7  C   UNL     1      -4.211   0.288  24.482  0.00  0.00    +0.115 C 
BRANCH   7   6
ATOM      3  C   UNL     1      -5.454   2.327  25.131  0.00  0.00    +0.139 A 
ATOM      4  C   UNL     1      -4.958   2.339  24.472  0.00  0.00    +0.037 A 
ATOM      5  C   UNL     1      -4.544   1.659  24.256  0.00  0.00    +0.000 A 
ATOM      6  C   UNL     1      -4.625   0.968  24.698  0.00  0.00    -0.005 A 
ATOM     30  C   UNL     1      -5.121   0.956  25.357  0.00  0.00    +0.000 A 
ATOM     31  C   UNL     1      -5.535   1.635  25.574  0.00  0.00    +0.037 A 
BRANCH   3   2
ATOM      1  C   UNL     1      -5.464   3.660  25.645  0.00  0.00    +0.252 C 
ATOM      2  O   UNL     1      -5.869   3.006  25.348  0.00  0.00    -0.471 OA
ENDBRANCH   3   2
ENDBRANCH   7   6
ENDBRANCH   8   7
ENDBRANCH   9   8
ENDBRANCH  10   9
BRANCH  12  13
ATOM     13  C   UNL     1      -0.442   0.712  24.519  0.00  0.00    +0.079 C 
BRANCH  13  14
ATOM     14  C   UNL     1      -0.516   1.400  24.970  0.00  0.00    +0.103 A 
ATOM     15  N   UNL     1      -0.242   1.505  25.740  0.00  0.00    -0.081 NA
ATOM     16  O   UNL     1      -0.434   2.273  25.976  0.00  0.00    -0.354 OA
ATOM     17  C   UNL     1      -0.827   2.641  25.350  0.00  0.00    +0.177 A 
ATOM     18  C   UNL     1      -0.878   2.101  24.728  0.00  0.00    +0.058 A 
BRANCH  17  19
ATOM     19  C   UNL     1      -1.118   3.413  25.348  0.00  0.00    +0.040 A 
ATOM     20  C   UNL     1      -0.682   4.016  24.994  0.00  0.00    +0.045 A 
ATOM     21  C   UNL     1      -0.973   4.789  24.991  0.00  0.00    +0.196 A 
ATOM     22  O   UNL     1      -0.537   5.393  24.638  0.00  0.00    -0.287 OA
ATOM     23  C   UNL     1      -1.701   4.956  25.343  0.00  0.00    +0.042 A 
ATOM     24  C   UNL     1      -2.137   4.352  25.696  0.00  0.00    +0.003 A 
ATOM     25  C   UNL     1      -1.845   3.580  25.699  0.00  0.00    +0.003 A 
ENDBRANCH  17  19
ENDBRANCH  13  14
ENDBRANCH  12  13
TORSDOF 8
ENDMDL
MODEL 6
REMARK VINA RESULT:     -11.4      1.369      5.147
REMARK  Name = 
REMARK  8 active torsions:
REMARK  status: ('A' for Active; 'I' for Inactive)
REMARK    1  A    between atoms: O_2  and  C_3
REMARK    2  A    between atoms: C_6  and  C_7
REMARK    3  A    between atoms: C_7  and  N_8
REMARK    4  A    between atoms: N_8  and  C_9
REMARK    5  A    between atoms: C_9  and  C_10
REMARK    6  A    between atoms: C_12  and  C_13
REMARK    7  A    between atoms: C_13  and  C_14
REMARK    8  A    between atoms: C_17  and  C_19
REMARK                            x       y       z     vdW  Elec       q    Type
REMARK                         _______ _______ _______ _____ _____    ______ ____
ROOT
ATOM     10  C   UNL     1      -5.094   2.015  25.096  0.00  0.00    +0.163 C 
ATOM     11  O   UNL     1      -4.484   2.412  24.706  0.00  0.00    -0.354 OA
ATOM     12  C   UNL     1      -4.389   3.225  24.808  0.00  0.00    +0.121 C 
ATOM     26  C   UNL     1      -4.904   3.642  25.300  0.00  0.00    +0.033 C 
ATOM     27  C   UNL     1      -5.513   3.246  25.690  0.00  0.00    +0.038 C 
ATOM     28  C   UNL     1      -5.608   2.432  25.588  0.00  0.00    +0.180 C 
ATOM     29  O   UNL     1      -6.218   2.037  25.979  0.00  0.00    -0.220 OA
ENDROOT
BRANCH  10   9
ATOM      9  C   UNL     1      -5.189   1.203  24.995  0.00  0.00    +0.121 C 
BRANCH   9   8
ATOM      8  N   UNL     1      -4.529   0.706  24.997  0.00  0.00    -0.211 NA
BRANCH   8   7
ATOM      7  C   UNL     1      -4.625  -0.107  24.897  0.00  0.00    +0.115 C 
BRANCH   7   6
ATOM      3  C   UNL     1      -2.643  -1.589  24.846  0.00  0.00    +0.139 A 
ATOM      4  C   UNL     1      -3.201  -1.625  24.239  0.00  0.00    +0.037 A 
ATOM      5  C   UNL     1      -3.861  -1.131  24.257  0.00  0.00    +0.000 A 
ATOM      6  C   UNL     1      -3.964  -0.601  24.880  0.00  0.00    -0.005 A 
ATOM     30  C   UNL     1      -3.406  -0.565  25.487  0.00  0.00    +0.000 A 
ATOM     31  C   UNL     1      -2.746  -1.058  25.470  0.00  0.00    +0.037 A 
BRANCH   3   2
ATOM      1  C   UNL     1      -1.225  -1.760  24.860  0.00  0.00    +0.252 C 
ATOM      2  O   UNL     1      -1.982  -2.083  24.830  0.00  0.00    -0.471 OA
ENDBRANCH   3   2
ENDBRANCH   7   6
ENDBRANCH   8   7
ENDBRANCH   9   8
ENDBRANCH  10   9
BRANCH  12  13
ATOM     13  C   UNL     1      -3.781   3.621  24.418  0.00  0.00    +0.079 C 
BRANCH  13  14
ATOM     14  C   UNL     1      -3.019   3.625  24.738  0.00  0.00    +0.103 A 
ATOM     15  N   UNL     1      -2.698   4.216  25.215  0.00  0.00    -0.081 NA
ATOM     16  O   UNL     1      -1.927   3.995  25.409  0.00  0.00    -0.354 OA
ATOM     17  C   UNL     1      -1.772   3.268  25.051  0.00  0.00    +0.177 A 
ATOM     18  C   UNL     1      -2.448   3.039  24.636  0.00  0.00    +0.058 A 
BRANCH  17  19
ATOM     19  C   UNL     1      -1.066   2.844  25.100  0.00  0.00    +0.040 A 
ATOM     20  C   UNL     1      -0.607   2.885  25.784  0.00  0.00    +0.045 A 
ATOM     21  C   UNL     1       0.100   2.461  25.833  0.00  0.00    +0.196 A 
ATOM     22  O   UNL     1       0.558   2.501  26.517  0.00  0.00    -0.287 OA
ATOM     23  C   UNL     1       0.346   1.997  25.197  0.00  0.00    +0.042 A 
ATOM     24  C   UNL     1      -0.112   1.957  24.513  0.00  0.00    +0.003 A 
ATOM     25  C   UNL     1      -0.819   2.380  24.464  0.00  0.00    +0.003 A 
ENDBRANCH  17  19
ENDBRANCH  13  14
ENDBRANCH  12  13
TORSDOF 8
ENDMDL
MODEL 7
REMARK VINA RESULT:     -11.4      1.353      3.912
REMARK  Name = 
REMARK  8 active torsions:
REMARK  status: ('A' for Active; 'I' for Inactive)
REMARK    1  A    between atoms: O_2  and  C_3
REMARK    2  A    between atoms: C_6  and  C_7
REMARK    3  A    between atoms: C_7  and  N_8
REMARK    4  A    between atoms: N_8  and  C_9
REMARK    5  A    between atoms: C_9  and  C_10
REMARK    6  A    between atoms: C_12  and  C_13
REMARK    7  A    between atoms: C_13  and  C_14
REMARK    8  A    between atoms: C_17  and  C_19
REMARK                            x       y       z     vdW  Elec       q    Type
REMARK                         _______ _______ _______ _____ _____    ______ ____
ROOT
ATOM     10  C   UNL     1      -0.596   1.813  25.215  0.00  0.00    +0.163 C 
ATOM     11  O   UNL     1      -1.190   2.290  25.534  0.00  0.00    -0.354 OA
ATOM     12  C   UNL     1      -1.214   3.095  25.355  0.00  0.00    +0.121 C 
ATOM     26  C   UNL     1      -0.644   3.423  24.857  0.00  0.00    +0.033 C 
ATOM     27  C   UNL     1      -0.051   2.948  24.538  0.00  0.00    +0.038 C 
ATOM     28  C   UNL     1      -0.027   2.142  24.717  0.00  0.00    +0.180 C 
ATOM     29  O   UNL     1       0.567   1.667  24.398  0.00  0.00    -0.220 OA
ENDROOT
BRANCH  10   9
ATOM      9  C   UNL     1      -0.572   1.009  25.394  0.00  0.00    +0.121 C 
BRANCH   9   8
ATOM      8  N   UNL     1      -1.243   0.541  25.285  0.00  0.00    -0.211 NA
BRANCH   8   7
ATOM      7  C   UNL     1      -1.277  -0.215  25.612  0.00  0.00    +0.115 C 
BRANCH   7   6
ATOM      3  C   UNL     1      -3.127  -1.745  25.010  0.00  0.00    +0.139 A 
ATOM      4  C   UNL     1      -2.413  -1.780  24.599  0.00  0.00    +0.037 A 
ATOM      5  C   UNL     1      -1.796  -1.270  24.800  0.00  0.00    +0.000 A 
ATOM      6  C   UNL     1      -1.893  -0.725  25.411  0.00  0.00    -0.005 A 
ATOM     30  C   UNL     1      -2.608  -0.690  25.822  0.00  0.00    +0.000 A 
ATOM     31  C   UNL     1      -3.225  -1.199  25.622  0.00  0.00    +0.037 A 
BRANCH   3   2
ATOM      1  C   UNL     1      -4.109  -2.192  24.074  0.00  0.00    +0.252 C 
ATOM      2  O   UNL     1      -3.744  -2.254  24.810  0.00  0.00    -0.471 OA
ENDBRANCH   3   2
ENDBRANCH   7   6
ENDBRANCH   8   7
ENDBRANCH   9   8
ENDBRANCH  10   9
BRANCH  12  13
ATOM     13  C   UNL     1      -1.807   3.570  25.673  0.00  0.00    +0.079 C 
BRANCH  13  14
ATOM     14  C   UNL     1      -2.570   3.546  25.358  0.00  0.00    +0.103 A 
ATOM     15  N   UNL     1      -2.845   3.992  24.722  0.00  0.00    -0.081 NA
ATOM     16  O   UNL     1      -3.636   3.793  24.595  0.00  0.00    -0.354 OA
ATOM     17  C   UNL     1      -3.848   3.223  25.152  0.00  0.00    +0.177 A 
ATOM     18  C   UNL     1      -3.189   3.070  25.624  0.00  0.00    +0.058 A 
BRANCH  17  19
ATOM     19  C   UNL     1      -4.590   2.868  25.225  0.00  0.00    +0.040 A 
ATOM     20  C   UNL     1      -4.732   2.135  24.875  0.00  0.00    +0.045 A 
ATOM     21  C   UNL     1      -5.474   1.780  24.947  0.00  0.00    +0.196 A 
ATOM     22  O   UNL     1      -5.617   1.047  24.598  0.00  0.00    -0.287 OA
ATOM     23  C   UNL     1      -6.072   2.159  25.371  0.00  0.00    +0.042 A 
ATOM     24  C   UNL     1      -5.930   2.892  25.720  0.00  0.00    +0.003 A 
ATOM     25  C   UNL     1      -5.188   3.247  25.648  0.00  0.00    +0.003 A 
ENDBRANCH  17  19
ENDBRANCH  13  14
ENDBRANCH  12  13
TORSDOF 8
ENDMDL
MODEL 8
REMARK VINA RESULT:     -11.3      1.403      4.034
REMARK  Name = 
REMARK  8 active torsions:
REMARK  status: ('A' for Active; 'I' for Inactive)
REMARK    1  A    between atoms: O_2  and  C_3
REMARK    2  A    between atoms: C_6  and  C_7
REMARK    3  A    between atoms: C_7  and  N_8
REMARK    4  A    between atoms: N_8  and  C_9
REMARK    5  A    between atoms: C_9  and  C_10
REMARK    6  A    between atoms: C_12  and  C_13
REMARK    7  A    between atoms: C_13  and  C_14
REMARK    8  A    between atoms: C_17  and  C_19
REMARK                            x       y       z     vdW  Elec       q    Type
REMARK                         _______ _______ _______ _____ _____    ______ ____
ROOT
ATOM     10  C   UNL     1      -1.166   2.742  24.859  0.00  0.00    +0.163 C 
ATOM     11  O   UNL     1      -1.290   2.013  25.225  0.00  0.00    -0.354 OA
ATOM     12  C   UNL     1      -0.675   1.467  25.276  0.00  0.00    +0.121 C 
ATOM     26  C   UNL     1       0.066   1.649  24.962  0.00  0.00    +0.033 C 
ATOM     27  C   UNL     1       0.192   2.378  24.596  0.00  0.00    +0.038 C 
ATOM     28  C   UNL     1      -0.425   2.925  24.545  0.00  0.00    +0.180 C 
ATOM     29  O   UNL     1      -0.299   3.653  24.179  0.00  0.00    -0.220 OA
ENDROOT
BRANCH  10   9
ATOM      9  C   UNL     1      -1.781   3.289  24.807  0.00  0.00    +0.121 C 
BRANCH   9   8
ATOM      8  N   UNL     1      -2.533   3.091  25.082  0.00  0.00    -0.211 NA
BRANCH   8   7
ATOM      7  C   UNL     1      -3.192   3.514  24.823  0.00  0.00    +0.115 C 
BRANCH   7   6
ATOM      3  C   UNL     1      -5.469   2.628  25.219  0.00  0.00    +0.139 A 
ATOM      4  C   UNL     1      -5.122   3.134  25.771  0.00  0.00    +0.037 A 
ATOM      5  C   UNL     1      -4.362   3.429  25.638  0.00  0.00    +0.000 A 
ATOM      6  C   UNL     1      -3.951   3.219  24.955  0.00  0.00    -0.005 A 
ATOM     30  C   UNL     1      -4.298   2.713  24.404  0.00  0.00    +0.000 A 
ATOM     31  C   UNL     1      -5.057   2.418  24.535  0.00  0.00    +0.037 A 
BRANCH   3   2
ATOM      1  C   UNL     1      -6.463   1.627  24.996  0.00  0.00    +0.252 C 
ATOM      2  O   UNL     1      -6.228   2.333  25.350  0.00  0.00    -0.471 OA
ENDBRANCH   3   2
ENDBRANCH   7   6
ENDBRANCH   8   7
ENDBRANCH   9   8
ENDBRANCH  10   9
BRANCH  12  13
ATOM     13  C   UNL     1      -0.799   0.739  25.642  0.00  0.00    +0.079 C 
BRANCH  13  14
ATOM     14  C   UNL     1      -1.136   0.116  25.217  0.00  0.00    +0.103 A 
ATOM     15  N   UNL     1      -0.740  -0.383  24.693  0.00  0.00    -0.081 NA
ATOM     16  O   UNL     1      -1.286  -0.924  24.394  0.00  0.00    -0.354 OA
ATOM     17  C   UNL     1      -2.020  -0.759  24.733  0.00  0.00    +0.177 A 
ATOM     18  C   UNL     1      -1.927  -0.116  25.242  0.00  0.00    +0.058 A 
BRANCH  17  19
ATOM     19  C   UNL     1      -2.723  -1.166  24.589  0.00  0.00    +0.040 A 
ATOM     20  C   UNL     1      -2.784  -1.966  24.781  0.00  0.00    +0.045 A 
ATOM     21  C   UNL     1      -3.487  -2.373  24.637  0.00  0.00    +0.196 A 
ATOM     22  O   UNL     1      -3.549  -3.172  24.829  0.00  0.00    -0.287 OA
ATOM     23  C   UNL     1      -4.130  -1.978  24.299  0.00  0.00    +0.042 A 
ATOM     24  C   UNL     1      -4.068  -1.179  24.107  0.00  0.00    +0.003 A 
ATOM     25  C   UNL     1      -3.365  -0.772  24.252  0.00  0.00    +0.003 A 
ENDBRANCH  17  19
ENDBRANCH  13  14
ENDBRANCH  12  13
TORSDOF 8
ENDMDL
MODEL 9
REMARK VINA RESULT:     -11.2      1.454      5.308
REMARK  Name = 
REMARK  8 active torsions:
REMARK  status: ('A' for Active; 'I' for Inactive)
REMARK    1  A    between atoms: O_2  and  C_3
REMARK    2  A    between atoms: C_6  and  C_7
REMARK    3  A    between atoms: C_7  and  N_8
REMARK    4  A    between atoms: N_8  and  C_9
REMARK    5  A    between atoms: C_9  and  C_10
REMARK    6  A    between atoms: C_12  and  C_13
REMARK    7  A    between atoms: C_13  and  C_14
REMARK    8  A    between atoms: C_17  and  C_19
REMARK                            x       y       z     vdW  Elec       q    Type
REMARK                         _______ _______ _______ _____ _____    ______ ____
ROOT
ATOM     10  C   UNL     1      -3.499   2.969  25.181  0.00  0.00    +0.163 C 
ATOM     11  O   UNL     1      -2.750   2.915  24.840  0.00  0.00    -0.354 OA
ATOM     12  C   UNL     1      -2.170   3.471  25.025  0.00  0.00    +0.121 C 
ATOM     26  C   UNL     1      -2.339   4.082  25.553  0.00  0.00    +0.033 C 
ATOM     27  C   UNL     1      -3.087   4.138  25.895  0.00  0.00    +0.038 C 
ATOM     28  C   UNL     1      -3.668   3.581  25.708  0.00  0.00    +0.180 C 
ATOM     29  O   UNL     1      -4.417   3.637  26.050  0.00  0.00    -0.220 OA
ENDROOT
BRANCH  10   9
ATOM      9  C   UNL     1      -4.079   2.414  24.995  0.00  0.00    +0.121 C 
BRANCH   9   8
ATOM      8  N   UNL     1      -3.906   1.608  25.034  0.00  0.00    -0.211 NA
BRANCH   8   7
ATOM      7  C   UNL     1      -4.444   1.056  24.740  0.00  0.00    +0.115 C 
BRANCH   7   6
ATOM      3  C   UNL     1      -3.834  -1.342  24.650  0.00  0.00    +0.139 A 
ATOM      4  C   UNL     1      -3.946  -0.918  23.951  0.00  0.00    +0.037 A 
ATOM      5  C   UNL     1      -4.149  -0.119  23.982  0.00  0.00    +0.000 A 
ATOM      6  C   UNL     1      -4.241   0.257  24.710  0.00  0.00    -0.005 A 
ATOM     30  C   UNL     1      -4.129  -0.167  25.409  0.00  0.00    +0.000 A 
ATOM     31  C   UNL     1      -3.926  -0.966  25.380  0.00  0.00    +0.037 A 
BRANCH   3   2
ATOM      1  C   UNL     1      -3.943  -2.624  24.031  0.00  0.00    +0.252 C 
ATOM      2  O   UNL     1      -3.631  -2.140  24.621  0.00  0.00    -0.471 OA
ENDBRANCH   3   2
ENDBRANCH   7   6
ENDBRANCH   8   7
ENDBRANCH   9   8
ENDBRANCH  10   9
BRANCH  12  13
ATOM     13  C   UNL     1      -1.421   3.415  24.684  0.00  0.00    +0.079 C 
BRANCH  13  14
ATOM     14  C   UNL     1      -0.957   2.745  24.814  0.00  0.00    +0.103 A 
ATOM     15  N   UNL     1      -0.417   2.642  25.429  0.00  0.00    -0.081 NA
ATOM     16  O   UNL     1      -0.078   1.894  25.347  0.00  0.00    -0.354 OA
ATOM     17  C   UNL     1      -0.408   1.536  24.681  0.00  0.00    +0.177 A 
ATOM     18  C   UNL     1      -0.952   2.062  24.352  0.00  0.00    +0.058 A 
BRANCH  17  19
ATOM     19  C   UNL     1      -0.227   0.783  24.395  0.00  0.00    +0.040 A 
ATOM     20  C   UNL     1      -0.432   0.115  24.833  0.00  0.00    +0.045 A 
ATOM     21  C   UNL     1      -0.251  -0.637  24.546  0.00  0.00    +0.196 A 
ATOM     22  O   UNL     1      -0.456  -1.305  24.983  0.00  0.00    -0.287 OA
ATOM     23  C   UNL     1       0.137  -0.720  23.822  0.00  0.00    +0.042 A 
ATOM     24  C   UNL     1       0.342  -0.052  23.385  0.00  0.00    +0.003 A 
ATOM     25  C   UNL     1       0.160   0.700  23.671  0.00  0.00    +0.003 A 
ENDBRANCH  17  19
ENDBRANCH  13  14
ENDBRANCH  12  13
TORSDOF 8
ENDMDL
