MODEL 1
REMARK VINA RESULT:     -11.2      0.000      0.000
REMARK  Name = 
REMARK  6 active torsions:
REMARK  status: ('A' for Active; 'I' for Inactive)
REMARK    1  A    between atoms: S_2  and  C_3
REMARK    2  A    between atoms: C_6  and  C_9
REMARK    3  A    between atoms: C_17  and  C_19
REMARK    4  A    between atoms: C_19  and  O_20
REMARK    5  A    between atoms: O_20  and  C_21
REMARK    6  A    between atoms: C_21  and  C_22
REMARK                            x       y       z     vdW  Elec       q    Type
REMARK                         _______ _______ _______ _____ _____    ______ ____
ROOT
ATOM      9  C   UNL     1      -3.907   0.255  24.655  0.00  0.00    +0.012 A 
ATOM     10  C   UNL     1      -3.260   0.710  24.422  0.00  0.00    +0.041 A 
ATOM     11  C   UNL     1      -2.394   0.621  24.127  0.00  0.00    +0.058 C 
ATOM     12  C   UNL     1      -1.912   0.134  23.974  0.00  0.00    +0.011 C 
ATOM     13  C   UNL     1      -1.968   0.947  23.974  0.00  0.00    +0.043 C 
ATOM     14  C   UNL     1      -1.842   1.924  23.907  0.00  0.00    +0.095 C 
ATOM     15  N   UNL     1      -2.596   2.181  24.159  0.00  0.00    -0.277 N 
ATOM     16  C   UNL     1      -2.256   1.563  24.057  0.00  0.00    +0.099 C 
ATOM     17  C   UNL     1      -3.206   2.701  24.355  0.00  0.00    +0.256 C 
ATOM     18  O   UNL     1      -3.933   2.405  24.611  0.00  0.00    -0.272 OA
ATOM     25  C   UNL     1      -2.872   1.050  24.281  0.00  0.00    +0.110 C 
ATOM     26  N   UNL     1      -3.313   1.533  24.420  0.00  0.00    -0.299 N 
ATOM     27  C   UNL     1      -4.014   1.902  24.651  0.00  0.00    +0.261 A 
ATOM     28  O   UNL     1      -4.306   2.669  24.732  0.00  0.00    -0.267 OA
ATOM     29  C   UNL     1      -4.662   1.447  24.884  0.00  0.00    +0.061 A 
ATOM     30  C   UNL     1      -4.608   0.623  24.886  0.00  0.00    +0.006 A 
ENDROOT
BRANCH   9   6
ATOM      3  C   UNL     1      -3.746  -2.215  24.660  0.00  0.00    +0.025 A 
ATOM      4  C   UNL     1      -3.529  -1.786  25.330  0.00  0.00    +0.006 A 
ATOM      5  C   UNL     1      -3.583  -0.963  25.328  0.00  0.00    +0.001 A 
ATOM      6  C   UNL     1      -3.854  -0.568  24.656  0.00  0.00    +0.001 A 
ATOM      7  C   UNL     1      -4.071  -0.997  23.986  0.00  0.00    +0.001 A 
ATOM      8  C   UNL     1      -4.017  -1.821  23.988  0.00  0.00    +0.006 A 
BRANCH   3   2
ATOM      1  C   UNL     1      -3.026  -3.409  24.347  0.00  0.00    +0.074 C 
ATOM      2  S   UNL     1      -3.693  -3.038  24.662  0.00  0.00    -0.113 S 
ENDBRANCH   3   2
ENDBRANCH   9   6
BRANCH  17  19
ATOM     19  C   UNL     1      -3.089   3.515  24.295  0.00  0.00    +0.228 C 
BRANCH  19  20
ATOM     20  O   UNL     1      -2.704   3.922  24.901  0.00  0.00    -0.333 OA
BRANCH  20  21
ATOM     21  C   UNL     1      -2.451   4.698  24.780  0.00  0.00    +0.257 C 
BRANCH  21  22
ATOM     22  C   UNL     1      -1.955   5.060  25.332  0.00  0.00    +0.394 C 
ATOM     23  O   UNL     1      -1.296   5.486  25.076  0.00  0.00    -0.243 OA
ATOM     24  O   UNL     1      -2.118   4.995  26.139  0.00  0.00    -0.243 OA
ENDBRANCH  21  22
ENDBRANCH  20  21
ENDBRANCH  19  20
ENDBRANCH  17  19
TORSDOF 6
ENDMDL
MODEL 2
REMARK VINA RESULT:     -10.5      2.675      5.120
REMARK  Name = 
REMARK  6 active torsions:
REMARK  status: ('A' for Active; 'I' for Inactive)
REMARK    1  A    between atoms: S_2  and  C_3
REMARK    2  A    between atoms: C_6  and  C_9
REMARK    3  A    between atoms: C_17  and  C_19
REMARK    4  A    between atoms: C_19  and  O_20
REMARK    5  A    between atoms: O_20  and  C_21
REMARK    6  A    between atoms: C_21  and  C_22
REMARK                            x       y       z     vdW  Elec       q    Type
REMARK                         _______ _______ _______ _____ _____    ______ ____
ROOT
ATOM      9  C   UNL     1      -1.525   1.734  25.230  0.00  0.00    +0.012 A 
ATOM     10  C   UNL     1      -2.289   1.468  25.066  0.00  0.00    +0.041 A 
ATOM     11  C   UNL     1      -3.100   1.772  24.759  0.00  0.00    +0.058 C 
ATOM     12  C   UNL     1      -3.419   2.355  24.533  0.00  0.00    +0.011 C 
ATOM     13  C   UNL     1      -3.610   1.572  24.654  0.00  0.00    +0.043 C 
ATOM     14  C   UNL     1      -4.027   0.680  24.734  0.00  0.00    +0.095 C 
ATOM     15  N   UNL     1      -3.374   0.246  25.024  0.00  0.00    -0.277 N 
ATOM     16  C   UNL     1      -3.517   0.916  24.830  0.00  0.00    +0.099 C 
ATOM     17  C   UNL     1      -2.940  -0.400  25.298  0.00  0.00    +0.256 C 
ATOM     18  O   UNL     1      -2.148  -0.306  25.509  0.00  0.00    -0.272 OA
ATOM     25  C   UNL     1      -2.766   1.245  24.976  0.00  0.00    +0.110 C 
ATOM     26  N   UNL     1      -2.485   0.676  25.188  0.00  0.00    -0.299 N 
ATOM     27  C   UNL     1      -1.918   0.150  25.474  0.00  0.00    +0.261 A 
ATOM     28  O   UNL     1      -1.867  -0.650  25.670  0.00  0.00    -0.267 OA
ATOM     29  C   UNL     1      -1.154   0.415  25.638  0.00  0.00    +0.061 A 
ATOM     30  C   UNL     1      -0.958   1.208  25.516  0.00  0.00    +0.006 A 
ENDROOT
BRANCH   9   6
ATOM      3  C   UNL     1      -0.937   4.111  24.865  0.00  0.00    +0.025 A 
ATOM      4  C   UNL     1      -1.274   3.874  25.579  0.00  0.00    +0.006 A 
ATOM      5  C   UNL     1      -1.471   3.082  25.701  0.00  0.00    +0.001 A 
ATOM      6  C   UNL     1      -1.329   2.526  25.108  0.00  0.00    +0.001 A 
ATOM      7  C   UNL     1      -0.992   2.762  24.394  0.00  0.00    +0.001 A 
ATOM      8  C   UNL     1      -0.796   3.554  24.272  0.00  0.00    +0.006 A 
BRANCH   3   2
ATOM      1  C   UNL     1      -1.268   5.497  24.966  0.00  0.00    +0.074 C 
ATOM      2  S   UNL     1      -0.741   4.902  24.743  0.00  0.00    -0.113 S 
ENDBRANCH   3   2
ENDBRANCH   9   6
BRANCH  17  19
ATOM     19  C   UNL     1      -3.298  -1.141  25.360  0.00  0.00    +0.228 C 
BRANCH  19  20
ATOM     20  O   UNL     1      -3.289  -1.659  24.718  0.00  0.00    -0.333 OA
BRANCH  20  21
ATOM     21  C   UNL     1      -3.649  -2.399  24.780  0.00  0.00    +0.257 C 
BRANCH  21  22
ATOM     22  C   UNL     1      -3.748  -2.867  24.108  0.00  0.00    +0.394 C 
ATOM     23  O   UNL     1      -3.177  -3.430  23.911  0.00  0.00    -0.243 OA
ATOM     24  O   UNL     1      -4.415  -2.771  23.632  0.00  0.00    -0.243 OA
ENDBRANCH  21  22
ENDBRANCH  20  21
ENDBRANCH  19  20
ENDBRANCH  17  19
TORSDOF 6
ENDMDL
MODEL 3
REMARK VINA RESULT:     -10.0      2.945      4.513
REMARK  Name = 
REMARK  6 active torsions:
REMARK  status: ('A' for Active; 'I' for Inactive)
REMARK    1  A    between atoms: S_2  and  C_3
REMARK    2  A    between atoms: C_6  and  C_9
REMARK    3  A    between atoms: C_17  and  C_19
REMARK    4  A    between atoms: C_19  and  O_20
REMARK    5  A    between atoms: O_20  and  C_21
REMARK    6  A    between atoms: C_21  and  C_22
REMARK                            x       y       z     vdW  Elec       q    Type
REMARK                         _______ _______ _______ _____ _____    ______ ____
ROOT
ATOM      9  C   UNL     1      -2.071   2.599  24.640  0.00  0.00    +0.012 A 
ATOM     10  C   UNL     1      -1.938   1.787  24.578  0.00  0.00    +0.041 A 
ATOM     11  C   UNL     1      -2.383   0.985  24.633  0.00  0.00    +0.058 C 
ATOM     12  C   UNL     1      -3.021   0.716  24.750  0.00  0.00    +0.011 C 
ATOM     13  C   UNL     1      -2.272   0.440  24.587  0.00  0.00    +0.043 C 
ATOM     14  C   UNL     1      -1.453  -0.080  24.400  0.00  0.00    +0.095 C 
ATOM     15  N   UNL     1      -0.906   0.546  24.317  0.00  0.00    -0.277 N 
ATOM     16  C   UNL     1      -1.600   0.468  24.453  0.00  0.00    +0.099 C 
ATOM     17  C   UNL     1      -0.184   0.926  24.188  0.00  0.00    +0.256 C 
ATOM     18  O   UNL     1      -0.141   1.750  24.215  0.00  0.00    -0.272 OA
ATOM     25  C   UNL     1      -1.798   1.273  24.528  0.00  0.00    +0.110 C 
ATOM     26  N   UNL     1      -1.180   1.504  24.414  0.00  0.00    -0.299 N 
ATOM     27  C   UNL     1      -0.556   2.033  24.311  0.00  0.00    +0.261 A 
ATOM     28  O   UNL     1       0.252   2.003  24.147  0.00  0.00    -0.267 OA
ATOM     29  C   UNL     1      -0.688   2.845  24.373  0.00  0.00    +0.061 A 
ATOM     30  C   UNL     1      -1.446   3.127  24.537  0.00  0.00    +0.006 A 
ENDROOT
BRANCH   9   6
ATOM      3  C   UNL     1      -4.343   3.447  25.134  0.00  0.00    +0.025 A 
ATOM      4  C   UNL     1      -3.808   3.317  25.749  0.00  0.00    +0.006 A 
ATOM      5  C   UNL     1      -3.051   3.034  25.584  0.00  0.00    +0.001 A 
ATOM      6  C   UNL     1      -2.828   2.881  24.805  0.00  0.00    +0.001 A 
ATOM      7  C   UNL     1      -3.362   3.011  24.190  0.00  0.00    +0.001 A 
ATOM      8  C   UNL     1      -4.120   3.294  24.355  0.00  0.00    +0.006 A 
BRANCH   3   2
ATOM      1  C   UNL     1      -5.649   3.243  25.676  0.00  0.00    +0.074 C 
ATOM      2  S   UNL     1      -5.099   3.730  25.299  0.00  0.00    -0.113 S 
ENDBRANCH   3   2
ENDBRANCH   9   6
BRANCH  17  19
ATOM     19  C   UNL     1       0.493   0.482  24.032  0.00  0.00    +0.228 C 
BRANCH  19  20
ATOM     20  O   UNL     1       0.741   0.366  23.254  0.00  0.00    -0.333 OA
BRANCH  20  21
ATOM     21  C   UNL     1       1.370  -0.144  23.092  0.00  0.00    +0.257 C 
BRANCH  21  22
ATOM     22  C   UNL     1       1.744  -0.116  22.357  0.00  0.00    +0.394 C 
ATOM     23  O   UNL     1       2.518   0.165  22.299  0.00  0.00    -0.243 OA
ATOM     24  O   UNL     1       1.345  -0.369  21.680  0.00  0.00    -0.243 OA
ENDBRANCH  21  22
ENDBRANCH  20  21
ENDBRANCH  19  20
ENDBRANCH  17  19
TORSDOF 6
ENDMDL
MODEL 4
REMARK VINA RESULT:      -8.5     17.739     19.138
REMARK  Name = 
REMARK  6 active torsions:
REMARK  status: ('A' for Active; 'I' for Inactive)
REMARK    1  A    between atoms: S_2  and  C_3
REMARK    2  A    between atoms: C_6  and  C_9
REMARK    3  A    between atoms: C_17  and  C_19
REMARK    4  A    between atoms: C_19  and  O_20
REMARK    5  A    between atoms: O_20  and  C_21
REMARK    6  A    between atoms: C_21  and  C_22
REMARK                            x       y       z     vdW  Elec       q    Type
REMARK                         _______ _______ _______ _____ _____    ______ ____
ROOT
ATOM      9  C   UNL     1      14.152   7.108  19.816  0.00  0.00    +0.012 A 
ATOM     10  C   UNL     1      13.998   7.715  19.279  0.00  0.00    +0.041 A 
ATOM     11  C   UNL     1      14.428   8.375  18.805  0.00  0.00    +0.058 C 
ATOM     12  C   UNL     1      15.066   8.645  18.694  0.00  0.00    +0.011 C 
ATOM     13  C   UNL     1      14.303   8.780  18.443  0.00  0.00    +0.043 C 
ATOM     14  C   UNL     1      13.463   9.094  18.028  0.00  0.00    +0.095 C 
ATOM     15  N   UNL     1      12.925   8.559  18.378  0.00  0.00    -0.277 N 
ATOM     16  C   UNL     1      13.625   8.690  18.396  0.00  0.00    +0.099 C 
ATOM     17  C   UNL     1      12.205   8.195  18.553  0.00  0.00    +0.256 C 
ATOM     18  O   UNL     1      12.181   7.560  19.080  0.00  0.00    -0.272 OA
ATOM     25  C   UNL     1      13.844   8.094  18.934  0.00  0.00    +0.110 C 
ATOM     26  N   UNL     1      13.226   7.854  19.023  0.00  0.00    -0.299 N 
ATOM     27  C   UNL     1      12.608   7.386  19.304  0.00  0.00    +0.261 A 
ATOM     28  O   UNL     1      11.791   7.326  19.206  0.00  0.00    -0.267 OA
ATOM     29  C   UNL     1      12.761   6.778  19.840  0.00  0.00    +0.061 A 
ATOM     30  C   UNL     1      13.533   6.640  20.096  0.00  0.00    +0.006 A 
ENDROOT
BRANCH   9   6
ATOM      3  C   UNL     1      16.468   6.692  20.584  0.00  0.00    +0.025 A 
ATOM      4  C   UNL     1      15.974   7.192  21.015  0.00  0.00    +0.006 A 
ATOM      5  C   UNL     1      15.202   7.331  20.759  0.00  0.00    +0.001 A 
ATOM      6  C   UNL     1      14.924   6.969  20.072  0.00  0.00    +0.001 A 
ATOM      7  C   UNL     1      15.417   6.469  19.640  0.00  0.00    +0.001 A 
ATOM      8  C   UNL     1      16.189   6.330  19.896  0.00  0.00    +0.006 A 
BRANCH   3   2
ATOM      1  C   UNL     1      17.405   6.513  21.647  0.00  0.00    +0.074 C 
ATOM      2  S   UNL     1      17.239   6.553  20.840  0.00  0.00    -0.113 S 
ENDBRANCH   3   2
ENDBRANCH   9   6
BRANCH  17  19
ATOM     19  C   UNL     1      11.510   8.465  18.201  0.00  0.00    +0.228 C 
BRANCH  19  20
ATOM     20  O   UNL     1      11.360   8.302  17.406  0.00  0.00    -0.333 OA
BRANCH  20  21
ATOM     21  C   UNL     1      10.720   8.658  17.025  0.00  0.00    +0.257 C 
BRANCH  21  22
ATOM     22  C   UNL     1      10.503   8.413  16.268  0.00  0.00    +0.394 C 
ATOM     23  O   UNL     1       9.940   7.817  16.174  0.00  0.00    -0.243 OA
ATOM     24  O   UNL     1      10.848   8.763  15.605  0.00  0.00    -0.243 OA
ENDBRANCH  21  22
ENDBRANCH  20  21
ENDBRANCH  19  20
ENDBRANCH  17  19
TORSDOF 6
ENDMDL
