MODEL 1
REMARK VINA RESULT:     -11.2      0.000      0.000
REMARK  Name = 
REMARK  3 active torsions:
REMARK  status: ('A' for Active; 'I' for Inactive)
REMARK    1  A    between atoms: C_2  and  C_3
REMARK    2  A    between atoms: C_3  and  N_4
REMARK    3  A    between atoms: N_7  and  C_8
REMARK                            x       y       z     vdW  Elec       q    Type
REMARK                         _______ _______ _______ _____ _____    ______ ____
ROOT
ATOM      8  C   UNL     1      -3.387   1.314  24.022  0.00  0.00    +0.119 C 
ATOM      9  C   UNL     1      -3.845   1.893  24.393  0.00  0.00    +0.053 C 
ATOM     10  C   UNL     1      -3.352   2.528  24.576  0.00  0.00    +0.156 C 
ATOM     11  N   UNL     1      -2.590   2.343  24.320  0.00  0.00    -0.268 N 
ATOM     12  C   UNL     1      -2.612   1.593  23.978  0.00  0.00    +0.116 C 
ATOM     13  C   UNL     1      -1.904   2.798  24.376  0.00  0.00    +0.251 C 
ATOM     14  O   UNL     1      -1.221   2.455  24.065  0.00  0.00    -0.270 OA
ATOM     15  C   UNL     1      -1.810   3.549  24.703  0.00  0.00    +0.069 A 
ATOM     16  C   UNL     1      -1.028   3.806  24.647  0.00  0.00    +0.006 A 
ATOM     17  C   UNL     1      -0.815   4.547  24.942  0.00  0.00    +0.000 A 
ATOM     18  C   UNL     1      -1.383   5.030  25.293  0.00  0.00    +0.001 A 
ATOM     19  C   UNL     1      -2.166   4.772  25.349  0.00  0.00    +0.017 A 
ATOM     20  C   UNL     1      -2.379   4.032  25.054  0.00  0.00    +0.078 A 
ATOM     21  N   UNL     1      -3.182   3.883  25.165  0.00  0.00    -0.178 NA
ATOM     22  C   UNL     1      -3.615   3.214  24.953  0.00  0.00    +0.264 C 
ATOM     23  O   UNL     1      -4.419   3.232  25.141  0.00  0.00    -0.271 OA
ENDROOT
BRANCH   8   7
ATOM      4  N   UNL     1      -3.870  -0.812  23.945  0.00  0.00    -0.182 NA
ATOM      5  C   UNL     1      -3.599  -0.085  24.222  0.00  0.00    +0.340 C 
ATOM      6  O   UNL     1      -3.269  -0.027  24.975  0.00  0.00    -0.249 OA
ATOM      7  N   UNL     1      -3.659   0.586  23.746  0.00  0.00    -0.187 NA
BRANCH   4   3
ATOM      3  C   UNL     1      -3.811  -1.484  24.421  0.00  0.00    +0.143 C 
BRANCH   3   2
ATOM      1  C   UNL     1      -3.670  -2.906  24.413  0.00  0.00    -0.003 C 
ATOM      2  C   UNL     1      -4.029  -2.221  24.124  0.00  0.00    -0.003 C 
ENDBRANCH   3   2
ENDBRANCH   4   3
ENDBRANCH   8   7
TORSDOF 3
ENDMDL
MODEL 2
REMARK VINA RESULT:     -11.0      1.350      5.181
REMARK  Name = 
REMARK  3 active torsions:
REMARK  status: ('A' for Active; 'I' for Inactive)
REMARK    1  A    between atoms: C_2  and  C_3
REMARK    2  A    between atoms: C_3  and  N_4
REMARK    3  A    between atoms: N_7  and  C_8
REMARK                            x       y       z     vdW  Elec       q    Type
REMARK                         _______ _______ _______ _____ _____    ______ ____
ROOT
ATOM      8  C   UNL     1      -1.602   1.182  24.265  0.00  0.00    +0.119 C 
ATOM      9  C   UNL     1      -1.208   0.554  24.629  0.00  0.00    +0.053 C 
ATOM     10  C   UNL     1      -1.708  -0.103  24.612  0.00  0.00    +0.156 C 
ATOM     11  N   UNL     1      -2.409   0.119  24.239  0.00  0.00    -0.268 N 
ATOM     12  C   UNL     1      -2.344   0.913  24.025  0.00  0.00    +0.116 C 
ATOM     13  C   UNL     1      -3.079  -0.339  24.088  0.00  0.00    +0.251 C 
ATOM     14  O   UNL     1      -3.697   0.048  23.701  0.00  0.00    -0.270 OA
ATOM     15  C   UNL     1      -3.212  -1.131  24.272  0.00  0.00    +0.069 A 
ATOM     16  C   UNL     1      -3.960  -1.377  24.023  0.00  0.00    +0.006 A 
ATOM     17  C   UNL     1      -4.203  -2.154  24.154  0.00  0.00    +0.000 A 
ATOM     18  C   UNL     1      -3.700  -2.685  24.535  0.00  0.00    +0.001 A 
ATOM     19  C   UNL     1      -2.953  -2.439  24.785  0.00  0.00    +0.017 A 
ATOM     20  C   UNL     1      -2.709  -1.663  24.654  0.00  0.00    +0.078 A 
ATOM     21  N   UNL     1      -1.948  -1.532  24.944  0.00  0.00    -0.178 NA
ATOM     22  C   UNL     1      -1.503  -0.838  24.926  0.00  0.00    +0.264 C 
ATOM     23  O   UNL     1      -0.752  -0.885  25.267  0.00  0.00    -0.271 OA
ENDROOT
BRANCH   8   7
ATOM      4  N   UNL     1      -1.192   3.299  24.599  0.00  0.00    -0.182 NA
ATOM      5  C   UNL     1      -1.489   2.537  24.704  0.00  0.00    +0.340 C 
ATOM      6  O   UNL     1      -1.973   2.368  25.350  0.00  0.00    -0.249 OA
ATOM      7  N   UNL     1      -1.304   1.945  24.162  0.00  0.00    -0.187 NA
BRANCH   4   3
ATOM      3  C   UNL     1      -1.377   3.893  25.142  0.00  0.00    +0.143 C 
BRANCH   3   2
ATOM      1  C   UNL     1      -1.465   5.319  25.141  0.00  0.00    -0.003 C 
ATOM      2  C   UNL     1      -1.013   4.631  25.087  0.00  0.00    -0.003 C 
ENDBRANCH   3   2
ENDBRANCH   4   3
ENDBRANCH   8   7
TORSDOF 3
ENDMDL
MODEL 3
REMARK VINA RESULT:      -9.6      2.143      3.501
REMARK  Name = 
REMARK  3 active torsions:
REMARK  status: ('A' for Active; 'I' for Inactive)
REMARK    1  A    between atoms: C_2  and  C_3
REMARK    2  A    between atoms: C_3  and  N_4
REMARK    3  A    between atoms: N_7  and  C_8
REMARK                            x       y       z     vdW  Elec       q    Type
REMARK                         _______ _______ _______ _____ _____    ______ ____
ROOT
ATOM      8  C   UNL     1      -1.677   1.192  24.830  0.00  0.00    +0.119 C 
ATOM      9  C   UNL     1      -1.779   1.995  24.993  0.00  0.00    +0.053 C 
ATOM     10  C   UNL     1      -2.588   2.145  25.042  0.00  0.00    +0.156 C 
ATOM     11  N   UNL     1      -2.988   1.435  24.909  0.00  0.00    -0.268 N 
ATOM     12  C   UNL     1      -2.425   0.847  24.778  0.00  0.00    +0.116 C 
ATOM     13  C   UNL     1      -3.801   1.296  24.901  0.00  0.00    +0.251 C 
ATOM     14  O   UNL     1      -4.030   0.518  24.750  0.00  0.00    -0.270 OA
ATOM     15  C   UNL     1      -4.415   1.833  25.022  0.00  0.00    +0.069 A 
ATOM     16  C   UNL     1      -5.153   1.465  24.966  0.00  0.00    +0.006 A 
ATOM     17  C   UNL     1      -5.842   1.905  25.071  0.00  0.00    +0.000 A 
ATOM     18  C   UNL     1      -5.796   2.713  25.231  0.00  0.00    +0.001 A 
ATOM     19  C   UNL     1      -5.059   3.080  25.287  0.00  0.00    +0.017 A 
ATOM     20  C   UNL     1      -4.370   2.641  25.183  0.00  0.00    +0.078 A 
ATOM     21  N   UNL     1      -3.696   3.111  25.261  0.00  0.00    -0.178 NA
ATOM     22  C   UNL     1      -2.904   2.891  25.199  0.00  0.00    +0.264 C 
ATOM     23  O   UNL     1      -2.354   3.496  25.307  0.00  0.00    -0.271 OA
ENDROOT
BRANCH   8   7
ATOM      4  N   UNL     1       0.108   0.357  23.893  0.00  0.00    -0.182 NA
ATOM      5  C   UNL     1      -0.613   0.745  23.987  0.00  0.00    +0.340 C 
ATOM      6  O   UNL     1      -0.994   1.073  23.333  0.00  0.00    -0.249 OA
ATOM      7  N   UNL     1      -0.955   0.805  24.735  0.00  0.00    -0.187 NA
BRANCH   4   3
ATOM      3  C   UNL     1       0.451   0.297  23.145  0.00  0.00    +0.143 C 
BRANCH   3   2
ATOM      1  C   UNL     1       1.725  -0.001  22.572  0.00  0.00    -0.003 C 
ATOM      2  C   UNL     1       1.069  -0.232  23.015  0.00  0.00    -0.003 C 
ENDBRANCH   3   2
ENDBRANCH   4   3
ENDBRANCH   8   7
TORSDOF 3
ENDMDL
MODEL 4
REMARK VINA RESULT:      -9.5      2.163      3.569
REMARK  Name = 
REMARK  3 active torsions:
REMARK  status: ('A' for Active; 'I' for Inactive)
REMARK    1  A    between atoms: C_2  and  C_3
REMARK    2  A    between atoms: C_3  and  N_4
REMARK    3  A    between atoms: N_7  and  C_8
REMARK                            x       y       z     vdW  Elec       q    Type
REMARK                         _______ _______ _______ _____ _____    ______ ____
ROOT
ATOM      8  C   UNL     1      -1.928   0.579  24.754  0.00  0.00    +0.119 C 
ATOM      9  C   UNL     1      -2.612   0.123  24.666  0.00  0.00    +0.053 C 
ATOM     10  C   UNL     1      -3.262   0.618  24.779  0.00  0.00    +0.156 C 
ATOM     11  N   UNL     1      -2.983   1.378  24.936  0.00  0.00    -0.268 N 
ATOM     12  C   UNL     1      -2.158   1.353  24.921  0.00  0.00    +0.116 C 
ATOM     13  C   UNL     1      -3.414   2.065  25.087  0.00  0.00    +0.251 C 
ATOM     14  O   UNL     1      -2.968   2.744  25.225  0.00  0.00    -0.270 OA
ATOM     15  C   UNL     1      -4.232   2.161  25.118  0.00  0.00    +0.069 A 
ATOM     16  C   UNL     1      -4.438   2.942  25.286  0.00  0.00    +0.006 A 
ATOM     17  C   UNL     1      -5.232   3.157  25.342  0.00  0.00    +0.000 A 
ATOM     18  C   UNL     1      -5.822   2.591  25.230  0.00  0.00    +0.001 A 
ATOM     19  C   UNL     1      -5.616   1.809  25.062  0.00  0.00    +0.017 A 
ATOM     20  C   UNL     1      -4.822   1.594  25.006  0.00  0.00    +0.078 A 
ATOM     21  N   UNL     1      -4.738   0.792  24.836  0.00  0.00    -0.178 NA
ATOM     22  C   UNL     1      -4.044   0.357  24.735  0.00  0.00    +0.264 C 
ATOM     23  O   UNL     1      -4.145  -0.445  24.566  0.00  0.00    -0.271 OA
ENDROOT
BRANCH   8   7
ATOM      4  N   UNL     1       0.041   0.148  23.918  0.00  0.00    -0.182 NA
ATOM      5  C   UNL     1      -0.734   0.421  23.985  0.00  0.00    +0.340 C 
ATOM      6  O   UNL     1      -1.091   0.810  23.351  0.00  0.00    -0.249 OA
ATOM      7  N   UNL     1      -1.153   0.305  24.686  0.00  0.00    -0.187 NA
BRANCH   4   3
ATOM      3  C   UNL     1       0.460   0.263  23.217  0.00  0.00    +0.143 C 
BRANCH   3   2
ATOM      1  C   UNL     1       1.768   0.092  22.666  0.00  0.00    -0.003 C 
ATOM      2  C   UNL     1       1.100  -0.224  23.033  0.00  0.00    -0.003 C 
ENDBRANCH   3   2
ENDBRANCH   4   3
ENDBRANCH   8   7
TORSDOF 3
ENDMDL
MODEL 5
REMARK VINA RESULT:      -9.5      2.016      5.008
REMARK  Name = 
REMARK  3 active torsions:
REMARK  status: ('A' for Active; 'I' for Inactive)
REMARK    1  A    between atoms: C_2  and  C_3
REMARK    2  A    between atoms: C_3  and  N_4
REMARK    3  A    between atoms: N_7  and  C_8
REMARK                            x       y       z     vdW  Elec       q    Type
REMARK                         _______ _______ _______ _____ _____    ______ ____
ROOT
ATOM      8  C   UNL     1      -3.569   1.271  24.426  0.00  0.00    +0.119 C 
ATOM      9  C   UNL     1      -2.843   0.999  24.711  0.00  0.00    +0.053 C 
ATOM     10  C   UNL     1      -2.853   0.175  24.683  0.00  0.00    +0.156 C 
ATOM     11  N   UNL     1      -3.583  -0.063  24.382  0.00  0.00    -0.268 N 
ATOM     12  C   UNL     1      -4.025   0.615  24.223  0.00  0.00    +0.116 C 
ATOM     13  C   UNL     1      -3.860  -0.829  24.247  0.00  0.00    +0.251 C 
ATOM     14  O   UNL     1      -4.622  -0.884  23.938  0.00  0.00    -0.270 OA
ATOM     15  C   UNL     1      -3.475  -1.545  24.382  0.00  0.00    +0.069 A 
ATOM     16  C   UNL     1      -3.950  -2.187  24.171  0.00  0.00    +0.006 A 
ATOM     17  C   UNL     1      -3.668  -2.956  24.263  0.00  0.00    +0.000 A 
ATOM     18  C   UNL     1      -2.912  -3.086  24.564  0.00  0.00    +0.001 A 
ATOM     19  C   UNL     1      -2.437  -2.444  24.775  0.00  0.00    +0.017 A 
ATOM     20  C   UNL     1      -2.718  -1.675  24.684  0.00  0.00    +0.078 A 
ATOM     21  N   UNL     1      -2.160  -1.118  24.926  0.00  0.00    -0.178 NA
ATOM     22  C   UNL     1      -2.219  -0.296  24.926  0.00  0.00    +0.264 C 
ATOM     23  O   UNL     1      -1.558   0.112  25.205  0.00  0.00    -0.271 OA
ENDROOT
BRANCH   8   7
ATOM      4  N   UNL     1      -4.537   3.183  24.841  0.00  0.00    -0.182 NA
ATOM      5  C   UNL     1      -4.310   2.393  24.910  0.00  0.00    +0.340 C 
ATOM      6  O   UNL     1      -4.597   1.934  25.533  0.00  0.00    -0.249 OA
ATOM      7  N   UNL     1      -3.796   2.062  24.357  0.00  0.00    -0.187 NA
BRANCH   4   3
ATOM      3  C   UNL     1      -5.051   3.515  25.394  0.00  0.00    +0.143 C 
BRANCH   3   2
ATOM      1  C   UNL     1      -5.971   4.575  25.661  0.00  0.00    -0.003 C 
ATOM      2  C   UNL     1      -5.259   4.311  25.339  0.00  0.00    -0.003 C 
ENDBRANCH   3   2
ENDBRANCH   4   3
ENDBRANCH   8   7
TORSDOF 3
ENDMDL
MODEL 6
REMARK VINA RESULT:      -8.8      1.598      2.469
REMARK  Name = 
REMARK  3 active torsions:
REMARK  status: ('A' for Active; 'I' for Inactive)
REMARK    1  A    between atoms: C_2  and  C_3
REMARK    2  A    between atoms: C_3  and  N_4
REMARK    3  A    between atoms: N_7  and  C_8
REMARK                            x       y       z     vdW  Elec       q    Type
REMARK                         _______ _______ _______ _____ _____    ______ ____
ROOT
ATOM      8  C   UNL     1      -4.055   0.303  24.186  0.00  0.00    +0.119 C 
ATOM      9  C   UNL     1      -3.493   0.881  24.010  0.00  0.00    +0.053 C 
ATOM     10  C   UNL     1      -3.770   1.601  24.303  0.00  0.00    +0.156 C 
ATOM     11  N   UNL     1      -4.502   1.468  24.659  0.00  0.00    -0.268 N 
ATOM     12  C   UNL     1      -4.678   0.666  24.587  0.00  0.00    +0.116 C 
ATOM     13  C   UNL     1      -4.999   2.011  25.032  0.00  0.00    +0.251 C 
ATOM     14  O   UNL     1      -5.701   1.704  25.336  0.00  0.00    -0.270 OA
ATOM     15  C   UNL     1      -4.887   2.821  25.140  0.00  0.00    +0.069 A 
ATOM     16  C   UNL     1      -5.522   3.162  25.542  0.00  0.00    +0.006 A 
ATOM     17  C   UNL     1      -5.518   3.970  25.707  0.00  0.00    +0.000 A 
ATOM     18  C   UNL     1      -4.882   4.438  25.470  0.00  0.00    +0.001 A 
ATOM     19  C   UNL     1      -4.247   4.096  25.067  0.00  0.00    +0.017 A 
ATOM     20  C   UNL     1      -4.250   3.289  24.902  0.00  0.00    +0.078 A 
ATOM     21  N   UNL     1      -3.568   3.061  24.498  0.00  0.00    -0.178 NA
ATOM     22  C   UNL     1      -3.354   2.310  24.232  0.00  0.00    +0.264 C 
ATOM     23  O   UNL     1      -2.628   2.262  23.841  0.00  0.00    -0.271 OA
ENDROOT
BRANCH   8   7
ATOM      4  N   UNL     1      -3.682  -1.840  24.360  0.00  0.00    -0.182 NA
ATOM      5  C   UNL     1      -3.735  -1.041  24.553  0.00  0.00    +0.340 C 
ATOM      6  O   UNL     1      -3.519  -0.783  25.307  0.00  0.00    -0.249 OA
ATOM      7  N   UNL     1      -4.003  -0.498  23.993  0.00  0.00    -0.187 NA
BRANCH   4   3
ATOM      3  C   UNL     1      -3.414  -2.384  24.920  0.00  0.00    +0.143 C 
BRANCH   3   2
ATOM      1  C   UNL     1      -2.669  -3.477  24.381  0.00  0.00    -0.003 C 
ATOM      2  C   UNL     1      -3.358  -3.183  24.726  0.00  0.00    -0.003 C 
ENDBRANCH   3   2
ENDBRANCH   4   3
ENDBRANCH   8   7
TORSDOF 3
ENDMDL
MODEL 7
REMARK VINA RESULT:      -8.5      2.864      4.844
REMARK  Name = 
REMARK  3 active torsions:
REMARK  status: ('A' for Active; 'I' for Inactive)
REMARK    1  A    between atoms: C_2  and  C_3
REMARK    2  A    between atoms: C_3  and  N_4
REMARK    3  A    between atoms: N_7  and  C_8
REMARK                            x       y       z     vdW  Elec       q    Type
REMARK                         _______ _______ _______ _____ _____    ______ ____
ROOT
ATOM      8  C   UNL     1      -0.207   0.929  24.104  0.00  0.00    +0.119 C 
ATOM      9  C   UNL     1      -0.842   1.318  23.748  0.00  0.00    +0.053 C 
ATOM     10  C   UNL     1      -1.531   0.904  23.935  0.00  0.00    +0.156 C 
ATOM     11  N   UNL     1      -1.322   0.260  24.407  0.00  0.00    -0.268 N 
ATOM     12  C   UNL     1      -0.504   0.276  24.511  0.00  0.00    +0.116 C 
ATOM     13  C   UNL     1      -1.812  -0.317  24.735  0.00  0.00    +0.251 C 
ATOM     14  O   UNL     1      -1.432  -0.894  25.185  0.00  0.00    -0.270 OA
ATOM     15  C   UNL     1      -2.630  -0.393  24.673  0.00  0.00    +0.069 A 
ATOM     16  C   UNL     1      -2.904  -1.052  25.088  0.00  0.00    +0.006 A 
ATOM     17  C   UNL     1      -3.710  -1.228  25.096  0.00  0.00    +0.000 A 
ATOM     18  C   UNL     1      -4.242  -0.747  24.690  0.00  0.00    +0.001 A 
ATOM     19  C   UNL     1      -3.968  -0.087  24.276  0.00  0.00    +0.017 A 
ATOM     20  C   UNL     1      -3.163   0.089  24.267  0.00  0.00    +0.078 A 
ATOM     21  N   UNL     1      -3.007   0.767  23.823  0.00  0.00    -0.178 NA
ATOM     22  C   UNL     1      -2.281   1.129  23.676  0.00  0.00    +0.264 C 
ATOM     23  O   UNL     1      -2.308   1.808  23.206  0.00  0.00    -0.271 OA
ENDROOT
BRANCH   8   7
ATOM      4  N   UNL     1       1.888   0.995  23.496  0.00  0.00    -0.182 NA
ATOM      5  C   UNL     1       1.096   0.769  23.540  0.00  0.00    +0.340 C 
ATOM      6  O   UNL     1       0.815   0.157  23.063  0.00  0.00    -0.249 OA
ATOM      7  N   UNL     1       0.585   1.155  24.059  0.00  0.00    -0.187 NA
BRANCH   4   3
ATOM      3  C   UNL     1       2.399   0.610  22.975  0.00  0.00    +0.143 C 
BRANCH   3   2
ATOM      1  C   UNL     1       3.809   0.502  22.766  0.00  0.00    -0.003 C 
ATOM      2  C   UNL     1       3.120   0.956  22.772  0.00  0.00    -0.003 C 
ENDBRANCH   3   2
ENDBRANCH   4   3
ENDBRANCH   8   7
TORSDOF 3
ENDMDL
MODEL 8
REMARK VINA RESULT:      -8.4      2.124      5.067
REMARK  Name = 
REMARK  3 active torsions:
REMARK  status: ('A' for Active; 'I' for Inactive)
REMARK    1  A    between atoms: C_2  and  C_3
REMARK    2  A    between atoms: C_3  and  N_4
REMARK    3  A    between atoms: N_7  and  C_8
REMARK                            x       y       z     vdW  Elec       q    Type
REMARK                         _______ _______ _______ _____ _____    ______ ____
ROOT
ATOM      8  C   UNL     1      -1.503   0.682  24.605  0.00  0.00    +0.119 C 
ATOM      9  C   UNL     1      -2.261   0.865  24.336  0.00  0.00    +0.053 C 
ATOM     10  C   UNL     1      -2.684   0.159  24.270  0.00  0.00    +0.156 C 
ATOM     11  N   UNL     1      -2.188  -0.459  24.497  0.00  0.00    -0.268 N 
ATOM     12  C   UNL     1      -1.458  -0.136  24.704  0.00  0.00    +0.116 C 
ATOM     13  C   UNL     1      -2.352  -1.267  24.526  0.00  0.00    +0.251 C 
ATOM     14  O   UNL     1      -1.733  -1.749  24.780  0.00  0.00    -0.270 OA
ATOM     15  C   UNL     1      -3.054  -1.656  24.335  0.00  0.00    +0.069 A 
ATOM     16  C   UNL     1      -2.985  -2.472  24.442  0.00  0.00    +0.006 A 
ATOM     17  C   UNL     1      -3.627  -2.964  24.282  0.00  0.00    +0.000 A 
ATOM     18  C   UNL     1      -4.337  -2.642  24.015  0.00  0.00    +0.001 A 
ATOM     19  C   UNL     1      -4.406  -1.826  23.908  0.00  0.00    +0.017 A 
ATOM     20  C   UNL     1      -3.765  -1.334  24.068  0.00  0.00    +0.078 A 
ATOM     21  N   UNL     1      -3.949  -0.543  23.926  0.00  0.00    -0.178 NA
ATOM     22  C   UNL     1      -3.468   0.122  24.015  0.00  0.00    +0.264 C 
ATOM     23  O   UNL     1      -3.818   0.845  23.826  0.00  0.00    -0.271 OA
ENDROOT
BRANCH   8   7
ATOM      4  N   UNL     1      -0.196   2.088  25.644  0.00  0.00    -0.182 NA
ATOM      5  C   UNL     1      -0.802   1.547  25.500  0.00  0.00    +0.340 C 
ATOM      6  O   UNL     1      -1.313   1.330  26.110  0.00  0.00    -0.249 OA
ATOM      7  N   UNL     1      -0.896   1.223  24.748  0.00  0.00    -0.187 NA
BRANCH   4   3
ATOM      3  C   UNL     1      -0.101   2.412  26.396  0.00  0.00    +0.143 C 
BRANCH   3   2
ATOM      1  C   UNL     1       0.890   2.756  27.367  0.00  0.00    -0.003 C 
ATOM      2  C   UNL     1       0.601   2.796  26.595  0.00  0.00    -0.003 C 
ENDBRANCH   3   2
ENDBRANCH   4   3
ENDBRANCH   8   7
TORSDOF 3
ENDMDL
MODEL 9
REMARK VINA RESULT:      -7.3      2.429      3.730
REMARK  Name = 
REMARK  3 active torsions:
REMARK  status: ('A' for Active; 'I' for Inactive)
REMARK    1  A    between atoms: C_2  and  C_3
REMARK    2  A    between atoms: C_3  and  N_4
REMARK    3  A    between atoms: N_7  and  C_8
REMARK                            x       y       z     vdW  Elec       q    Type
REMARK                         _______ _______ _______ _____ _____    ______ ____
ROOT
ATOM      8  C   UNL     1      -2.262   1.580  25.034  0.00  0.00    +0.119 C 
ATOM      9  C   UNL     1      -1.662   2.142  24.962  0.00  0.00    +0.053 C 
ATOM     10  C   UNL     1      -1.018   1.780  24.594  0.00  0.00    +0.156 C 
ATOM     11  N   UNL     1      -1.220   0.996  24.439  0.00  0.00    -0.268 N 
ATOM     12  C   UNL     1      -1.989   0.872  24.710  0.00  0.00    +0.116 C 
ATOM     13  C   UNL     1      -0.765   0.408  24.079  0.00  0.00    +0.251 C 
ATOM     14  O   UNL     1      -1.127  -0.328  24.002  0.00  0.00    -0.270 OA
ATOM     15  C   UNL     1       0.004   0.461  23.786  0.00  0.00    +0.069 A 
ATOM     16  C   UNL     1       0.256  -0.258  23.468  0.00  0.00    +0.006 A 
ATOM     17  C   UNL     1       1.012  -0.323  23.145  0.00  0.00    +0.000 A 
ATOM     18  C   UNL     1       1.516   0.328  23.139  0.00  0.00    +0.001 A 
ATOM     19  C   UNL     1       1.265   1.048  23.457  0.00  0.00    +0.017 A 
ATOM     20  C   UNL     1       0.509   1.114  23.780  0.00  0.00    +0.078 A 
ATOM     21  N   UNL     1       0.369   1.875  24.066  0.00  0.00    -0.178 NA
ATOM     22  C   UNL     1      -0.310   2.171  24.428  0.00  0.00    +0.264 C 
ATOM     23  O   UNL     1      -0.279   2.964  24.655  0.00  0.00    -0.271 OA
ENDROOT
BRANCH   8   7
ATOM      4  N   UNL     1      -4.398   1.987  25.224  0.00  0.00    -0.182 NA
ATOM      5  C   UNL     1      -3.656   1.862  24.888  0.00  0.00    +0.340 C 
ATOM      6  O   UNL     1      -3.564   1.892  24.069  0.00  0.00    -0.249 OA
ATOM      7  N   UNL     1      -3.005   1.706  25.370  0.00  0.00    -0.187 NA
BRANCH   4   3
ATOM      3  C   UNL     1      -5.049   2.143  24.742  0.00  0.00    +0.143 C 
BRANCH   3   2
ATOM      1  C   UNL     1      -6.406   1.808  25.039  0.00  0.00    -0.003 C 
ATOM      2  C   UNL     1      -5.775   2.339  25.080  0.00  0.00    -0.003 C 
ENDBRANCH   3   2
ENDBRANCH   4   3
ENDBRANCH   8   7
TORSDOF 3
ENDMDL
MODEL 10
REMARK VINA RESULT:      -7.3      2.348      3.145
REMARK  Name = 
REMARK  3 active torsions:
REMARK  status: ('A' for Active; 'I' for Inactive)
REMARK    1  A    between atoms: C_2  and  C_3
REMARK    2  A    between atoms: C_3  and  N_4
REMARK    3  A    between atoms: N_7  and  C_8
REMARK                            x       y       z     vdW  Elec       q    Type
REMARK                         _______ _______ _______ _____ _____    ______ ____
ROOT
ATOM      8  C   UNL     1      -1.162   1.391  23.674  0.00  0.00    +0.119 C 
ATOM      9  C   UNL     1      -1.883   1.172  24.011  0.00  0.00    +0.053 C 
ATOM     10  C   UNL     1      -2.168   1.815  24.442  0.00  0.00    +0.156 C 
ATOM     11  N   UNL     1      -1.624   2.431  24.373  0.00  0.00    -0.268 N 
ATOM     12  C   UNL     1      -1.002   2.169  23.898  0.00  0.00    +0.116 C 
ATOM     13  C   UNL     1      -1.658   3.187  24.702  0.00  0.00    +0.251 C 
ATOM     14  O   UNL     1      -1.021   3.681  24.529  0.00  0.00    -0.270 OA
ATOM     15  C   UNL     1      -2.244   3.513  25.182  0.00  0.00    +0.069 A 
ATOM     16  C   UNL     1      -2.063   4.290  25.393  0.00  0.00    +0.006 A 
ATOM     17  C   UNL     1      -2.579   4.718  25.873  0.00  0.00    +0.000 A 
ATOM     18  C   UNL     1      -3.276   4.370  26.143  0.00  0.00    +0.001 A 
ATOM     19  C   UNL     1      -3.457   3.593  25.931  0.00  0.00    +0.017 A 
ATOM     20  C   UNL     1      -2.942   3.165  25.452  0.00  0.00    +0.078 A 
ATOM     21  N   UNL     1      -3.225   2.404  25.307  0.00  0.00    -0.178 NA
ATOM     22  C   UNL     1      -2.881   1.803  24.858  0.00  0.00    +0.264 C 
ATOM     23  O   UNL     1      -3.306   1.096  24.820  0.00  0.00    -0.271 OA
ENDROOT
BRANCH   8   7
ATOM      4  N   UNL     1       0.559   0.258  22.957  0.00  0.00    -0.182 NA
ATOM      5  C   UNL     1       0.083   0.733  23.433  0.00  0.00    +0.340 C 
ATOM      6  O   UNL     1       0.377   1.028  24.146  0.00  0.00    -0.249 OA
ATOM      7  N   UNL     1      -0.685   0.915  23.198  0.00  0.00    -0.187 NA
BRANCH   4   3
ATOM      3  C   UNL     1       1.329   0.075  23.192  0.00  0.00    +0.143 C 
BRANCH   3   2
ATOM      1  C   UNL     1       2.623   0.050  22.586  0.00  0.00    -0.003 C 
ATOM      2  C   UNL     1       1.858  -0.254  22.654  0.00  0.00    -0.003 C 
ENDBRANCH   3   2
ENDBRANCH   4   3
ENDBRANCH   8   7
TORSDOF 3
ENDMDL
