REMARK  Name = 
REMARK  8 active torsions:
REMARK  status: ('A' for Active; 'I' for Inactive)
REMARK    1  A    between atoms: C_2  and  C_3
REMARK    2  A    between atoms: C_5  and  C_6
REMARK    3  A    between atoms: C_6  and  N_7
REMARK    4  A    between atoms: N_7  and  C_8
REMARK    5  A    between atoms: N_7  and  C_16
REMARK    6  A    between atoms: C_8  and  C_9
REMARK    7  A    between atoms: C_16  and  C_17
REMARK    8  A    between atoms: C_24  and  N_27
REMARK                            x       y       z     vdW  Elec       q    Type
REMARK                         _______ _______ _______ _____ _____    ______ ____
ROOT
ATOM      3  C   UNL     1      -2.735   0.278   0.000  0.00  0.00    +0.180 C 
ATOM      4  O   UNL     1      -2.322   0.992   0.000  0.00  0.00    -0.350 OA
ATOM      5  C   UNL     1      -1.515   0.821   0.000  0.00  0.00    +0.148 C 
ATOM     24  C   UNL     1      -1.429   0.000   0.000  0.00  0.00    +0.120 C 
ATOM     25  C   UNL     1      -2.183  -0.336   0.000  0.00  0.00    +0.198 C 
ATOM     26  O   UNL     1      -2.354  -1.143   0.000  0.00  0.00    -0.219 OA
ENDROOT
BRANCH  24  27
ATOM     27  N   UNL     1      -0.715  -0.412   0.000  0.00  0.00    -0.266 NA
ATOM     28  C   UNL     1      -0.715  -1.238   0.000  0.00  0.00    +0.077 C 
ATOM     29  C   UNL     1       0.000  -1.650   0.000  0.00  0.00    +0.043 C 
ATOM     30  C   UNL     1       0.715  -1.238   0.000  0.00  0.00    -0.023 A 
ATOM     31  C   UNL     1       0.715  -0.412   0.000  0.00  0.00    -0.010 A 
ATOM     32  C   UNL     1       0.000   0.000   0.000  0.00  0.00    +0.099 C 
ATOM     33  C   UNL     1       1.429   0.000   0.000  0.00  0.00    -0.003 A 
ATOM     34  C   UNL     1       2.143  -0.412   0.000  0.00  0.00    -0.000 A 
ATOM     35  C   UNL     1       2.143  -1.238   0.000  0.00  0.00    -0.000 A 
ATOM     36  C   UNL     1       1.429  -1.650   0.000  0.00  0.00    -0.004 A 
ENDBRANCH  24  27
BRANCH   3   2
ATOM      1  O   UNL     1      -3.891  -0.562   0.000  0.00  0.00    -0.218 OA
ATOM      2  C   UNL     1      -3.555   0.191   0.000  0.00  0.00    +0.214 C 
ENDBRANCH   3   2
BRANCH   5   6
ATOM      6  C   UNL     1      -0.902   1.373   0.000  0.00  0.00    +0.104 C 
BRANCH   6   7
ATOM      7  N   UNL     1      -1.074   2.179   0.000  0.00  0.00    -0.263 NA
BRANCH   7   8
ATOM      8  C   UNL     1      -0.461   2.732   0.000  0.00  0.00    +0.099 C 
BRANCH   8   9
ATOM      9  C   UNL     1       0.324   2.477   0.000  0.00  0.00    -0.006 A 
ATOM     10  C   UNL     1       0.937   3.029   0.000  0.00  0.00    -0.001 A 
ATOM     11  C   UNL     1       1.722   2.774   0.000  0.00  0.00    +0.029 A 
ATOM     12  C   UNL     1       1.893   1.967   0.000  0.00  0.00    +0.140 A 
ATOM     13  F   UNL     1       2.678   1.712   0.000  0.00  0.00    -0.204 F 
ATOM     14  C   UNL     1       1.280   1.415   0.000  0.00  0.00    +0.029 A 
ATOM     15  C   UNL     1       0.496   1.670   0.000  0.00  0.00    -0.001 A 
ENDBRANCH   8   9
ENDBRANCH   7   8
BRANCH   7  16
ATOM     16  C   UNL     1      -1.858   2.434   0.000  0.00  0.00    +0.099 C 
BRANCH  16  17
ATOM     17  C   UNL     1      -2.030   3.241   0.000  0.00  0.00    -0.006 A 
ATOM     18  C   UNL     1      -2.814   3.496   0.000  0.00  0.00    -0.001 A 
ATOM     19  C   UNL     1      -2.986   4.303   0.000  0.00  0.00    +0.029 A 
ATOM     20  C   UNL     1      -2.373   4.855   0.000  0.00  0.00    +0.140 A 
ATOM     21  F   UNL     1      -2.544   5.662   0.000  0.00  0.00    -0.204 F 
ATOM     22  C   UNL     1      -1.588   4.600   0.000  0.00  0.00    +0.029 A 
ATOM     23  C   UNL     1      -1.417   3.793   0.000  0.00  0.00    -0.001 A 
ENDBRANCH  16  17
ENDBRANCH   7  16
ENDBRANCH   6   7
ENDBRANCH   5   6
TORSDOF 8
