MODEL 1
REMARK VINA RESULT:     -13.7      0.000      0.000
REMARK  Name = 
REMARK  3 active torsions:
REMARK  status: ('A' for Active; 'I' for Inactive)
REMARK    1  A    between atoms: C_7  and  C_8
REMARK    2  A    between atoms: C_11  and  C_13
REMARK    3  A    between atoms: C_22  and  C_24
REMARK                            x       y       z     vdW  Elec       q    Type
REMARK                         _______ _______ _______ _____ _____    ______ ____
ROOT
ATOM     13  C   UNL     1      -3.722   1.759  24.728  0.00  0.00    +0.100 C 
ATOM     14  C   UNL     1      -4.101   2.445  24.469  0.00  0.00    +0.033 C 
ATOM     15  C   UNL     1      -3.574   3.074  24.548  0.00  0.00    +0.094 C 
ATOM     16  N   UNL     1      -2.868   2.777  24.856  0.00  0.00    -0.278 N 
ATOM     17  C   UNL     1      -2.960   1.965  24.967  0.00  0.00    +0.103 C 
ATOM     18  C   UNL     1      -2.189   3.216  25.024  0.00  0.00    +0.220 A 
ATOM     19  N   UNL     1      -2.179   4.029  24.884  0.00  0.00    -0.212 NA
ATOM     20  C   UNL     1      -1.500   4.468  25.051  0.00  0.00    +0.103 A 
ATOM     21  C   UNL     1      -0.833   4.094  25.359  0.00  0.00    +0.044 A 
ATOM     22  C   UNL     1      -0.844   3.281  25.500  0.00  0.00    +0.157 A 
ATOM     23  N   UNL     1      -1.522   2.842  25.332  0.00  0.00    -0.210 NA
ENDROOT
BRANCH  13  11
ATOM      8  C   UNL     1      -4.178  -0.325  24.687  0.00  0.00    +0.252 A 
ATOM      9  N   UNL     1      -4.920  -0.003  24.852  0.00  0.00    -0.107 NA
ATOM     10  N   UNL     1      -4.839   0.817  24.887  0.00  0.00    -0.111 NA
ATOM     11  C   UNL     1      -4.048   1.002  24.744  0.00  0.00    +0.228 A 
ATOM     12  O   UNL     1      -3.639   0.295  24.621  0.00  0.00    -0.419 OA
BRANCH   8   7
ATOM      1  F   UNL     1      -3.519  -1.162  25.945  0.00  0.00    -0.204 F 
ATOM      2  C   UNL     1      -3.676  -1.547  25.233  0.00  0.00    +0.145 A 
ATOM      3  C   UNL     1      -3.504  -2.349  25.149  0.00  0.00    +0.030 A 
ATOM      4  C   UNL     1      -3.662  -2.732  24.436  0.00  0.00    +0.002 A 
ATOM      5  C   UNL     1      -3.992  -2.314  23.806  0.00  0.00    +0.000 A 
ATOM      6  C   UNL     1      -4.164  -1.511  23.890  0.00  0.00    +0.007 A 
ATOM      7  C   UNL     1      -4.006  -1.127  24.604  0.00  0.00    +0.083 A 
ENDBRANCH   8   7
ENDBRANCH  13  11
BRANCH  22  24
ATOM     24  C   UNL     1      -0.176   2.906  25.808  0.00  0.00    +0.435 C 
ATOM     25  F   UNL     1       0.491   2.532  26.116  0.00  0.00    -0.164 F 
ATOM     26  F   UNL     1      -0.501   2.951  26.565  0.00  0.00    -0.164 F 
ATOM     27  F   UNL     1       0.148   2.862  25.050  0.00  0.00    -0.164 F 
ENDBRANCH  22  24
TORSDOF 3
ENDMDL
MODEL 2
REMARK VINA RESULT:     -12.8      2.030      2.526
REMARK  Name = 
REMARK  3 active torsions:
REMARK  status: ('A' for Active; 'I' for Inactive)
REMARK    1  A    between atoms: C_7  and  C_8
REMARK    2  A    between atoms: C_11  and  C_13
REMARK    3  A    between atoms: C_22  and  C_24
REMARK                            x       y       z     vdW  Elec       q    Type
REMARK                         _______ _______ _______ _____ _____    ______ ____
ROOT
ATOM     13  C   UNL     1      -1.010   0.929  25.158  0.00  0.00    +0.100 C 
ATOM     14  C   UNL     1      -0.293   1.177  24.833  0.00  0.00    +0.033 C 
ATOM     15  C   UNL     1      -0.297   2.002  24.806  0.00  0.00    +0.094 C 
ATOM     16  N   UNL     1      -1.016   2.264  25.113  0.00  0.00    -0.278 N 
ATOM     17  C   UNL     1      -1.457   1.600  25.331  0.00  0.00    +0.103 C 
ATOM     18  C   UNL     1      -1.254   3.050  25.190  0.00  0.00    +0.220 A 
ATOM     19  N   UNL     1      -0.751   3.658  24.948  0.00  0.00    -0.212 NA
ATOM     20  C   UNL     1      -0.989   4.445  25.025  0.00  0.00    +0.103 A 
ATOM     21  C   UNL     1      -1.728   4.623  25.344  0.00  0.00    +0.044 A 
ATOM     22  C   UNL     1      -2.230   4.015  25.586  0.00  0.00    +0.157 A 
ATOM     23  N   UNL     1      -1.993   3.229  25.510  0.00  0.00    -0.210 NA
ENDROOT
BRANCH  13  11
ATOM      8  C   UNL     1      -1.894  -1.012  25.206  0.00  0.00    +0.252 A 
ATOM      9  N   UNL     1      -1.289  -1.100  25.760  0.00  0.00    -0.107 NA
ATOM     10  N   UNL     1      -0.884  -0.382  25.809  0.00  0.00    -0.111 NA
ATOM     11  C   UNL     1      -1.239   0.147  25.286  0.00  0.00    +0.228 A 
ATOM     12  O   UNL     1      -1.864  -0.242  24.913  0.00  0.00    -0.419 OA
BRANCH   8   7
ATOM      1  F   UNL     1      -1.417  -2.255  24.234  0.00  0.00    -0.204 F 
ATOM      2  C   UNL     1      -2.197  -2.216  24.498  0.00  0.00    +0.145 A 
ATOM      3  C   UNL     1      -2.738  -2.797  24.276  0.00  0.00    +0.030 A 
ATOM      4  C   UNL     1      -3.518  -2.757  24.541  0.00  0.00    +0.002 A 
ATOM      5  C   UNL     1      -3.758  -2.135  25.028  0.00  0.00    +0.000 A 
ATOM      6  C   UNL     1      -3.216  -1.554  25.249  0.00  0.00    +0.007 A 
ATOM      7  C   UNL     1      -2.435  -1.594  24.984  0.00  0.00    +0.083 A 
ENDBRANCH   8   7
ENDBRANCH  13  11
BRANCH  22  24
ATOM     24  C   UNL     1      -2.970   4.193  25.906  0.00  0.00    +0.435 C 
ATOM     25  F   UNL     1      -3.709   4.371  26.225  0.00  0.00    -0.164 F 
ATOM     26  F   UNL     1      -2.643   4.190  26.663  0.00  0.00    -0.164 F 
ATOM     27  F   UNL     1      -3.296   4.196  25.148  0.00  0.00    -0.164 F 
ENDBRANCH  22  24
TORSDOF 3
ENDMDL
MODEL 3
REMARK VINA RESULT:     -12.8      1.913      5.499
REMARK  Name = 
REMARK  3 active torsions:
REMARK  status: ('A' for Active; 'I' for Inactive)
REMARK    1  A    between atoms: C_7  and  C_8
REMARK    2  A    between atoms: C_11  and  C_13
REMARK    3  A    between atoms: C_22  and  C_24
REMARK                            x       y       z     vdW  Elec       q    Type
REMARK                         _______ _______ _______ _____ _____    ______ ____
ROOT
ATOM     13  C   UNL     1      -0.996   0.702  25.357  0.00  0.00    +0.100 C 
ATOM     14  C   UNL     1      -0.405   0.127  25.318  0.00  0.00    +0.033 C 
ATOM     15  C   UNL     1      -0.754  -0.580  25.076  0.00  0.00    +0.094 C 
ATOM     16  N   UNL     1      -1.560  -0.442  24.964  0.00  0.00    -0.278 N 
ATOM     17  C   UNL     1      -1.709   0.351  25.138  0.00  0.00    +0.103 C 
ATOM     18  C   UNL     1      -2.118  -0.999  24.721  0.00  0.00    +0.220 A 
ATOM     19  N   UNL     1      -1.886  -1.776  24.566  0.00  0.00    -0.212 NA
ATOM     20  C   UNL     1      -2.445  -2.332  24.324  0.00  0.00    +0.103 A 
ATOM     21  C   UNL     1      -3.235  -2.113  24.235  0.00  0.00    +0.044 A 
ATOM     22  C   UNL     1      -3.466  -1.336  24.390  0.00  0.00    +0.157 A 
ATOM     23  N   UNL     1      -2.909  -0.779  24.633  0.00  0.00    -0.210 NA
ENDROOT
BRANCH  13  11
ATOM      8  C   UNL     1      -0.974   2.822  25.602  0.00  0.00    +0.252 A 
ATOM      9  N   UNL     1      -0.483   2.585  26.222  0.00  0.00    -0.107 NA
ATOM     10  N   UNL     1      -0.432   1.762  26.205  0.00  0.00    -0.111 NA
ATOM     11  C   UNL     1      -0.890   1.490  25.575  0.00  0.00    +0.228 A 
ATOM     12  O   UNL     1      -1.226   2.146  25.203  0.00  0.00    -0.419 OA
BRANCH   8   7
ATOM      1  F   UNL     1      -2.396   3.456  26.148  0.00  0.00    -0.204 F 
ATOM      2  C   UNL     1      -1.889   3.917  25.688  0.00  0.00    +0.145 A 
ATOM      3  C   UNL     1      -2.092   4.694  25.501  0.00  0.00    +0.030 A 
ATOM      4  C   UNL     1      -1.585   5.154  25.041  0.00  0.00    +0.002 A 
ATOM      5  C   UNL     1      -0.874   4.837  24.768  0.00  0.00    +0.000 A 
ATOM      6  C   UNL     1      -0.670   4.060  24.955  0.00  0.00    +0.007 A 
ATOM      7  C   UNL     1      -1.178   3.599  25.415  0.00  0.00    +0.083 A 
ENDBRANCH   8   7
ENDBRANCH  13  11
BRANCH  22  24
ATOM     24  C   UNL     1      -4.257  -1.116  24.302  0.00  0.00    +0.435 C 
ATOM     25  F   UNL     1      -5.047  -0.896  24.214  0.00  0.00    -0.164 F 
ATOM     26  F   UNL     1      -4.141  -1.026  23.490  0.00  0.00    -0.164 F 
ATOM     27  F   UNL     1      -4.372  -1.206  25.114  0.00  0.00    -0.164 F 
ENDBRANCH  22  24
TORSDOF 3
ENDMDL
MODEL 4
REMARK VINA RESULT:     -12.5      1.689      5.016
REMARK  Name = 
REMARK  3 active torsions:
REMARK  status: ('A' for Active; 'I' for Inactive)
REMARK    1  A    between atoms: C_7  and  C_8
REMARK    2  A    between atoms: C_11  and  C_13
REMARK    3  A    between atoms: C_22  and  C_24
REMARK                            x       y       z     vdW  Elec       q    Type
REMARK                         _______ _______ _______ _____ _____    ______ ____
ROOT
ATOM     13  C   UNL     1      -3.662   1.041  24.521  0.00  0.00    +0.100 C 
ATOM     14  C   UNL     1      -4.438   0.794  24.656  0.00  0.00    +0.033 C 
ATOM     15  C   UNL     1      -4.432  -0.026  24.747  0.00  0.00    +0.094 C 
ATOM     16  N   UNL     1      -3.652  -0.286  24.668  0.00  0.00    -0.278 N 
ATOM     17  C   UNL     1      -3.177   0.374  24.528  0.00  0.00    +0.103 C 
ATOM     18  C   UNL     1      -3.394  -1.068  24.719  0.00  0.00    +0.220 A 
ATOM     19  N   UNL     1      -3.936  -1.673  24.862  0.00  0.00    -0.212 NA
ATOM     20  C   UNL     1      -3.678  -2.455  24.913  0.00  0.00    +0.103 A 
ATOM     21  C   UNL     1      -2.877  -2.631  24.822  0.00  0.00    +0.044 A 
ATOM     22  C   UNL     1      -2.335  -2.026  24.679  0.00  0.00    +0.157 A 
ATOM     23  N   UNL     1      -2.593  -1.244  24.628  0.00  0.00    -0.210 NA
ENDROOT
BRANCH  13  11
ATOM      8  C   UNL     1      -2.758   2.974  24.515  0.00  0.00    +0.252 A 
ATOM      9  N   UNL     1      -3.315   3.058  23.912  0.00  0.00    -0.107 NA
ATOM     10  N   UNL     1      -3.721   2.343  23.841  0.00  0.00    -0.111 NA
ATOM     11  C   UNL     1      -3.416   1.819  24.400  0.00  0.00    +0.228 A 
ATOM     12  O   UNL     1      -2.820   2.210  24.817  0.00  0.00    -0.419 OA
BRANCH   8   7
ATOM      1  F   UNL     1      -3.280   4.177  25.516  0.00  0.00    -0.204 F 
ATOM      2  C   UNL     1      -2.492   4.157  25.273  0.00  0.00    +0.145 A 
ATOM      3  C   UNL     1      -1.966   4.737  25.530  0.00  0.00    +0.030 A 
ATOM      4  C   UNL     1      -1.179   4.717  25.286  0.00  0.00    +0.002 A 
ATOM      5  C   UNL     1      -0.917   4.115  24.785  0.00  0.00    +0.000 A 
ATOM      6  C   UNL     1      -1.443   3.535  24.528  0.00  0.00    +0.007 A 
ATOM      7  C   UNL     1      -2.232   3.555  24.772  0.00  0.00    +0.083 A 
ENDBRANCH   8   7
ENDBRANCH  13  11
BRANCH  22  24
ATOM     24  C   UNL     1      -1.534  -2.202  24.588  0.00  0.00    +0.435 C 
ATOM     25  F   UNL     1      -0.734  -2.379  24.496  0.00  0.00    -0.164 F 
ATOM     26  F   UNL     1      -1.679  -2.458  23.817  0.00  0.00    -0.164 F 
ATOM     27  F   UNL     1      -1.390  -1.946  25.358  0.00  0.00    -0.164 F 
ENDBRANCH  22  24
TORSDOF 3
ENDMDL
MODEL 5
REMARK VINA RESULT:     -12.0      0.798      1.034
REMARK  Name = 
REMARK  3 active torsions:
REMARK  status: ('A' for Active; 'I' for Inactive)
REMARK    1  A    between atoms: C_7  and  C_8
REMARK    2  A    between atoms: C_11  and  C_13
REMARK    3  A    between atoms: C_22  and  C_24
REMARK                            x       y       z     vdW  Elec       q    Type
REMARK                         _______ _______ _______ _____ _____    ______ ____
ROOT
ATOM     13  C   UNL     1      -3.976   1.340  24.749  0.00  0.00    +0.100 C 
ATOM     14  C   UNL     1      -4.558   1.820  24.414  0.00  0.00    +0.033 C 
ATOM     15  C   UNL     1      -4.258   2.586  24.362  0.00  0.00    +0.094 C 
ATOM     16  N   UNL     1      -3.491   2.581  24.665  0.00  0.00    -0.278 N 
ATOM     17  C   UNL     1      -3.316   1.811  24.905  0.00  0.00    +0.103 C 
ATOM     18  C   UNL     1      -2.986   3.232  24.720  0.00  0.00    +0.220 A 
ATOM     19  N   UNL     1      -3.238   3.972  24.457  0.00  0.00    -0.212 NA
ATOM     20  C   UNL     1      -2.733   4.623  24.511  0.00  0.00    +0.103 A 
ATOM     21  C   UNL     1      -1.977   4.533  24.829  0.00  0.00    +0.044 A 
ATOM     22  C   UNL     1      -1.726   3.793  25.092  0.00  0.00    +0.157 A 
ATOM     23  N   UNL     1      -2.230   3.143  25.037  0.00  0.00    -0.210 NA
ENDROOT
BRANCH  13  11
ATOM      8  C   UNL     1      -3.933  -0.793  24.792  0.00  0.00    +0.252 A 
ATOM      9  N   UNL     1      -4.355  -0.629  25.481  0.00  0.00    -0.107 NA
ATOM     10  N   UNL     1      -4.422   0.191  25.550  0.00  0.00    -0.111 NA
ATOM     11  C   UNL     1      -4.042   0.533  24.902  0.00  0.00    +0.228 A 
ATOM     12  O   UNL     1      -3.740  -0.076  24.433  0.00  0.00    -0.419 OA
BRANCH   8   7
ATOM      1  F   UNL     1      -2.477  -1.466  25.175  0.00  0.00    -0.204 F 
ATOM      2  C   UNL     1      -3.010  -1.880  24.701  0.00  0.00    +0.145 A 
ATOM      3  C   UNL     1      -2.816  -2.631  24.419  0.00  0.00    +0.030 A 
ATOM      4  C   UNL     1      -3.350  -3.044  23.946  0.00  0.00    +0.002 A 
ATOM      5  C   UNL     1      -4.078  -2.708  23.754  0.00  0.00    +0.000 A 
ATOM      6  C   UNL     1      -4.273  -1.957  24.036  0.00  0.00    +0.007 A 
ATOM      7  C   UNL     1      -3.738  -1.543  24.510  0.00  0.00    +0.083 A 
ENDBRANCH   8   7
ENDBRANCH  13  11
BRANCH  22  24
ATOM     24  C   UNL     1      -0.970   3.703  25.409  0.00  0.00    +0.435 C 
ATOM     25  F   UNL     1      -0.214   3.613  25.727  0.00  0.00    -0.164 F 
ATOM     26  F   UNL     1      -0.667   3.578  24.652  0.00  0.00    -0.164 F 
ATOM     27  F   UNL     1      -1.273   3.828  26.166  0.00  0.00    -0.164 F 
ENDBRANCH  22  24
TORSDOF 3
ENDMDL
MODEL 6
REMARK VINA RESULT:     -11.9      2.605      5.011
REMARK  Name = 
REMARK  3 active torsions:
REMARK  status: ('A' for Active; 'I' for Inactive)
REMARK    1  A    between atoms: C_7  and  C_8
REMARK    2  A    between atoms: C_11  and  C_13
REMARK    3  A    between atoms: C_22  and  C_24
REMARK                            x       y       z     vdW  Elec       q    Type
REMARK                         _______ _______ _______ _____ _____    ______ ____
ROOT
ATOM     13  C   UNL     1      -2.388   0.908  24.364  0.00  0.00    +0.100 C 
ATOM     14  C   UNL     1      -1.564   0.930  24.404  0.00  0.00    +0.033 C 
ATOM     15  C   UNL     1      -1.291   0.155  24.476  0.00  0.00    +0.094 C 
ATOM     16  N   UNL     1      -1.947  -0.347  24.479  0.00  0.00    -0.278 N 
ATOM     17  C   UNL     1      -2.625   0.119  24.410  0.00  0.00    +0.103 C 
ATOM     18  C   UNL     1      -1.928  -1.170  24.541  0.00  0.00    +0.220 A 
ATOM     19  N   UNL     1      -1.206  -1.561  24.607  0.00  0.00    -0.212 NA
ATOM     20  C   UNL     1      -1.187  -2.384  24.669  0.00  0.00    +0.103 A 
ATOM     21  C   UNL     1      -1.891  -2.814  24.665  0.00  0.00    +0.044 A 
ATOM     22  C   UNL     1      -2.613  -2.421  24.599  0.00  0.00    +0.157 A 
ATOM     23  N   UNL     1      -2.632  -1.600  24.537  0.00  0.00    -0.210 NA
ENDROOT
BRANCH  13  11
ATOM      8  C   UNL     1      -3.810   2.488  24.551  0.00  0.00    +0.252 A 
ATOM      9  N   UNL     1      -3.500   2.642  23.802  0.00  0.00    -0.107 NA
ATOM     10  N   UNL     1      -2.929   2.068  23.641  0.00  0.00    -0.111 NA
ATOM     11  C   UNL     1      -2.887   1.561  24.290  0.00  0.00    +0.228 A 
ATOM     12  O   UNL     1      -3.432   1.821  24.853  0.00  0.00    -0.419 OA
BRANCH   8   7
ATOM      1  F   UNL     1      -5.359   1.923  24.603  0.00  0.00    -0.204 F 
ATOM      2  C   UNL     1      -5.171   2.644  24.958  0.00  0.00    +0.145 A 
ATOM      3  C   UNL     1      -5.758   3.082  25.338  0.00  0.00    +0.030 A 
ATOM      4  C   UNL     1      -5.569   3.802  25.693  0.00  0.00    +0.002 A 
ATOM      5  C   UNL     1      -4.795   4.085  25.668  0.00  0.00    +0.000 A 
ATOM      6  C   UNL     1      -4.208   3.647  25.287  0.00  0.00    +0.007 A 
ATOM      7  C   UNL     1      -4.396   2.926  24.932  0.00  0.00    +0.083 A 
ENDBRANCH   8   7
ENDBRANCH  13  11
BRANCH  22  24
ATOM     24  C   UNL     1      -3.317  -2.852  24.595  0.00  0.00    +0.435 C 
ATOM     25  F   UNL     1      -4.021  -3.282  24.591  0.00  0.00    -0.164 F 
ATOM     26  F   UNL     1      -3.287  -2.894  23.772  0.00  0.00    -0.164 F 
ATOM     27  F   UNL     1      -3.348  -2.809  25.419  0.00  0.00    -0.164 F 
ENDBRANCH  22  24
TORSDOF 3
ENDMDL
MODEL 7
REMARK VINA RESULT:     -11.1      2.487      3.935
REMARK  Name = 
REMARK  3 active torsions:
REMARK  status: ('A' for Active; 'I' for Inactive)
REMARK    1  A    between atoms: C_7  and  C_8
REMARK    2  A    between atoms: C_11  and  C_13
REMARK    3  A    between atoms: C_22  and  C_24
REMARK                            x       y       z     vdW  Elec       q    Type
REMARK                         _______ _______ _______ _____ _____    ______ ____
ROOT
ATOM     13  C   UNL     1      -2.075   2.608  25.341  0.00  0.00    +0.100 C 
ATOM     14  C   UNL     1      -1.978   3.417  25.472  0.00  0.00    +0.033 C 
ATOM     15  C   UNL     1      -2.726   3.760  25.520  0.00  0.00    +0.094 C 
ATOM     16  N   UNL     1      -3.287   3.163  25.417  0.00  0.00    -0.278 N 
ATOM     17  C   UNL     1      -2.884   2.451  25.307  0.00  0.00    +0.103 C 
ATOM     18  C   UNL     1      -4.106   3.260  25.424  0.00  0.00    +0.220 A 
ATOM     19  N   UNL     1      -4.431   4.009  25.541  0.00  0.00    -0.212 NA
ATOM     20  C   UNL     1      -5.251   4.106  25.548  0.00  0.00    +0.103 A 
ATOM     21  C   UNL     1      -5.745   3.455  25.438  0.00  0.00    +0.044 A 
ATOM     22  C   UNL     1      -5.419   2.706  25.321  0.00  0.00    +0.157 A 
ATOM     23  N   UNL     1      -4.600   2.608  25.314  0.00  0.00    -0.210 NA
ENDROOT
BRANCH  13  11
ATOM      8  C   UNL     1      -0.816   0.911  25.044  0.00  0.00    +0.252 A 
ATOM      9  N   UNL     1      -0.258   1.493  25.219  0.00  0.00    -0.107 NA
ATOM     10  N   UNL     1      -0.662   2.201  25.352  0.00  0.00    -0.111 NA
ATOM     11  C   UNL     1      -1.469   2.055  25.259  0.00  0.00    +0.228 A 
ATOM     12  O   UNL     1      -1.563   1.257  25.068  0.00  0.00    -0.419 OA
BRANCH   8   7
ATOM      1  F   UNL     1      -0.155   0.499  23.590  0.00  0.00    -0.204 F 
ATOM      2  C   UNL     1      -0.323  -0.086  24.147  0.00  0.00    +0.145 A 
ATOM      3  C   UNL     1      -0.160  -0.877  23.977  0.00  0.00    +0.030 A 
ATOM      4  C   UNL     1      -0.328  -1.461  24.534  0.00  0.00    +0.002 A 
ATOM      5  C   UNL     1      -0.659  -1.255  25.261  0.00  0.00    +0.000 A 
ATOM      6  C   UNL     1      -0.821  -0.465  25.431  0.00  0.00    +0.007 A 
ATOM      7  C   UNL     1      -0.653   0.121  24.874  0.00  0.00    +0.083 A 
ENDBRANCH   8   7
ENDBRANCH  13  11
BRANCH  22  24
ATOM     24  C   UNL     1      -5.912   2.054  25.211  0.00  0.00    +0.435 C 
ATOM     25  F   UNL     1      -6.406   1.402  25.100  0.00  0.00    -0.164 F 
ATOM     26  F   UNL     1      -5.972   1.961  26.028  0.00  0.00    -0.164 F 
ATOM     27  F   UNL     1      -5.853   2.147  24.393  0.00  0.00    -0.164 F 
ENDBRANCH  22  24
TORSDOF 3
ENDMDL
