REMARK  Name = 
REMARK  1 active torsions:
REMARK  status: ('A' for Active; 'I' for Inactive)
REMARK    1  A    between atoms: N_10  and  C_13
REMARK                            x       y       z     vdW  Elec       q    Type
REMARK                         _______ _______ _______ _____ _____    ______ ____
ROOT
ATOM      1  C   UNL     1       4.781   1.935   0.000  0.00  0.00    +0.095 C 
ATOM      2  C   UNL     1       4.067   2.348   0.000  0.00  0.00    +0.226 C 
ATOM      3  O   UNL     1       4.067   3.173   0.000  0.00  0.00    -0.275 OA
ATOM      4  N   UNL     1       3.352   1.935   0.000  0.00  0.00    -0.276 N 
ATOM      5  C   UNL     1       3.352   1.110   0.000  0.00  0.00    +0.115 C 
ATOM      6  C   UNL     1       2.638   0.698   0.000  0.00  0.00    +0.116 C 
ATOM      7  N   UNL     1       1.923   1.110   0.000  0.00  0.00    -0.260 N 
ATOM      8  C   UNL     1       1.923   1.935   0.000  0.00  0.00    +0.117 C 
ATOM      9  C   UNL     1       1.139   2.190   0.000  0.00  0.00    +0.121 C 
ATOM     10  N   UNL     1       0.654   1.523   0.000  0.00  0.00    -0.241 N 
ATOM     11  C   UNL     1       1.139   0.856   0.000  0.00  0.00    +0.311 C 
ATOM     12  O   UNL     1       0.884   0.071   0.000  0.00  0.00    -0.252 OA
ATOM     19  C   UNL     1       2.638   2.348   0.000  0.00  0.00    +0.115 C 
ENDROOT
BRANCH  10  13
ATOM     13  C   UNL     1      -0.171   1.523   0.000  0.00  0.00    +0.055 A 
ATOM     14  C   UNL     1      -0.584   0.808   0.000  0.00  0.00    +0.015 A 
ATOM     15  C   UNL     1      -1.409   0.808   0.000  0.00  0.00    +0.001 A 
ATOM     16  C   UNL     1      -1.821   1.523   0.000  0.00  0.00    +0.000 A 
ATOM     17  C   UNL     1      -1.409   2.237   0.000  0.00  0.00    +0.001 A 
ATOM     18  C   UNL     1      -0.584   2.237   0.000  0.00  0.00    +0.015 A 
ENDBRANCH  10  13
TORSDOF 1
