MODEL 1
REMARK VINA RESULT:      -8.5      0.000      0.000
REMARK  Name = 
REMARK  5 active torsions:
REMARK  status: ('A' for Active; 'I' for Inactive)
REMARK    1  A    between atoms: N_6  and  C_7
REMARK    2  A    between atoms: C_7  and  C_8
REMARK    3  A    between atoms: C_18  and  C_19
REMARK    4  A    between atoms: C_19  and  C_20
REMARK    5  A    between atoms: C_20  and  C_21
REMARK                            x       y       z     vdW  Elec       q    Type
REMARK                         _______ _______ _______ _____ _____    ______ ____
ROOT
ATOM      1  C   UNL     1      -4.233   1.775  24.284  0.00  0.00    +0.090 C 
ATOM      2  N   UNL     1      -3.474   1.701  24.603  0.00  0.00    -0.271 NA
ATOM      3  C   UNL     1      -3.083   2.409  24.762  0.00  0.00    +0.083 C 
ATOM      4  C   UNL     1      -3.412   3.153  24.619  0.00  0.00    +0.035 C 
ATOM      5  C   UNL     1      -2.862   3.723  24.846  0.00  0.00    +0.074 C 
ATOM      6  N   UNL     1      -2.192   3.333  25.130  0.00  0.00    -0.259 NA
ATOM     13  C   UNL     1      -2.329   2.520  25.078  0.00  0.00    +0.152 C 
ATOM     14  C   UNL     1      -1.781   1.951  25.311  0.00  0.00    +0.257 C 
ATOM     15  O   UNL     1      -1.067   2.241  25.609  0.00  0.00    -0.272 OA
ATOM     16  N   UNL     1      -1.850   1.129  25.288  0.00  0.00    -0.203 NA
ATOM     17  C   UNL     1      -2.486   0.674  25.024  0.00  0.00    +0.131 C 
ATOM     18  C   UNL     1      -3.209   0.929  24.719  0.00  0.00    +0.080 C 
ENDROOT
BRANCH   6   7
ATOM      7  C   UNL     1      -1.505   3.691  25.415  0.00  0.00    +0.139 C 
BRANCH   7   8
ATOM      8  C   UNL     1      -1.310   4.456  25.176  0.00  0.00    +0.155 A 
ATOM      9  N   UNL     1      -1.701   5.148  25.396  0.00  0.00    -0.226 NA
ATOM     10  C   UNL     1      -1.321   5.782  25.030  0.00  0.00    +0.121 A 
ATOM     11  C   UNL     1      -0.695   5.482  24.584  0.00  0.00    +0.121 A 
ATOM     12  N   UNL     1      -0.688   4.662  24.674  0.00  0.00    -0.226 NA
ENDBRANCH   7   8
ENDBRANCH   6   7
BRANCH  18  19
ATOM     19  C   UNL     1      -3.736   0.332  24.502  0.00  0.00    +0.027 C 
BRANCH  19  20
ATOM     20  C   UNL     1      -3.508  -0.460  24.561  0.00  0.00    +0.087 C 
BRANCH  20  21
ATOM     21  C   UNL     1      -4.009  -1.054  24.283  0.00  0.00    +0.226 C 
ATOM     22  O   UNL     1      -4.765  -0.864  24.012  0.00  0.00    -0.275 OA
ATOM     23  N   UNL     1      -3.752  -1.838  24.276  0.00  0.00    -0.274 N 
ATOM     24  C   UNL     1      -4.253  -2.433  23.998  0.00  0.00    +0.125 C 
ATOM     25  C   UNL     1      -3.997  -3.217  23.991  0.00  0.00    +0.164 C 
ATOM     26  O   UNL     1      -3.241  -3.407  24.262  0.00  0.00    -0.350 OA
ATOM     27  C   UNL     1      -2.741  -2.813  24.540  0.00  0.00    +0.164 C 
ATOM     28  C   UNL     1      -2.997  -2.028  24.547  0.00  0.00    +0.125 C 
ENDBRANCH  20  21
ENDBRANCH  19  20
ENDBRANCH  18  19
TORSDOF 5
ENDMDL
MODEL 2
REMARK VINA RESULT:      -8.2      1.238      5.749
REMARK  Name = 
REMARK  5 active torsions:
REMARK  status: ('A' for Active; 'I' for Inactive)
REMARK    1  A    between atoms: N_6  and  C_7
REMARK    2  A    between atoms: C_7  and  C_8
REMARK    3  A    between atoms: C_18  and  C_19
REMARK    4  A    between atoms: C_19  and  C_20
REMARK    5  A    between atoms: C_20  and  C_21
REMARK                            x       y       z     vdW  Elec       q    Type
REMARK                         _______ _______ _______ _____ _____    ______ ____
ROOT
ATOM      1  C   UNL     1      -3.992   1.736  24.677  0.00  0.00    +0.090 C 
ATOM      2  N   UNL     1      -3.298   1.318  24.837  0.00  0.00    -0.271 NA
ATOM      3  C   UNL     1      -3.337   0.502  24.723  0.00  0.00    +0.083 C 
ATOM      4  C   UNL     1      -4.017   0.111  24.466  0.00  0.00    +0.035 C 
ATOM      5  C   UNL     1      -3.846  -0.694  24.417  0.00  0.00    +0.074 C 
ATOM      6  N   UNL     1      -3.060  -0.801  24.644  0.00  0.00    -0.259 NA
ATOM     13  C   UNL     1      -2.746  -0.062  24.833  0.00  0.00    +0.152 C 
ATOM     14  C   UNL     1      -1.968   0.051  25.085  0.00  0.00    +0.257 C 
ATOM     15  O   UNL     1      -1.507  -0.631  25.141  0.00  0.00    -0.272 OA
ATOM     16  N   UNL     1      -1.591   0.756  25.289  0.00  0.00    -0.203 NA
ATOM     17  C   UNL     1      -1.898   1.522  25.291  0.00  0.00    +0.131 C 
ATOM     18  C   UNL     1      -2.658   1.772  25.090  0.00  0.00    +0.080 C 
ENDROOT
BRANCH   6   7
ATOM      7  C   UNL     1      -2.658  -1.521  24.677  0.00  0.00    +0.139 C 
BRANCH   7   8
ATOM      8  C   UNL     1      -3.075  -2.230  24.607  0.00  0.00    +0.155 A 
ATOM      9  N   UNL     1      -3.373  -2.681  25.230  0.00  0.00    -0.226 NA
ATOM     10  C   UNL     1      -3.750  -3.341  24.909  0.00  0.00    +0.121 A 
ATOM     11  C   UNL     1      -3.685  -3.298  24.088  0.00  0.00    +0.121 A 
ATOM     12  N   UNL     1      -3.268  -2.610  23.901  0.00  0.00    -0.226 NA
ENDBRANCH   7   8
ENDBRANCH   6   7
BRANCH  18  19
ATOM     19  C   UNL     1      -2.794   2.584  25.150  0.00  0.00    +0.027 C 
BRANCH  19  20
ATOM     20  C   UNL     1      -2.164   3.099  25.286  0.00  0.00    +0.087 C 
BRANCH  20  21
ATOM     21  C   UNL     1      -2.304   3.907  25.372  0.00  0.00    +0.226 C 
ATOM     22  O   UNL     1      -3.024   4.172  25.675  0.00  0.00    -0.275 OA
ATOM     23  N   UNL     1      -1.723   4.451  25.154  0.00  0.00    -0.274 N 
ATOM     24  C   UNL     1      -1.863   5.260  25.240  0.00  0.00    +0.125 C 
ATOM     25  C   UNL     1      -1.281   5.804  25.022  0.00  0.00    +0.164 C 
ATOM     26  O   UNL     1      -0.561   5.539  24.718  0.00  0.00    -0.350 OA
ATOM     27  C   UNL     1      -0.422   4.731  24.633  0.00  0.00    +0.164 C 
ATOM     28  C   UNL     1      -1.003   4.187  24.851  0.00  0.00    +0.125 C 
ENDBRANCH  20  21
ENDBRANCH  19  20
ENDBRANCH  18  19
TORSDOF 5
ENDMDL
MODEL 3
REMARK VINA RESULT:      -8.2      2.780      4.560
REMARK  Name = 
REMARK  5 active torsions:
REMARK  status: ('A' for Active; 'I' for Inactive)
REMARK    1  A    between atoms: N_6  and  C_7
REMARK    2  A    between atoms: C_7  and  C_8
REMARK    3  A    between atoms: C_18  and  C_19
REMARK    4  A    between atoms: C_19  and  C_20
REMARK    5  A    between atoms: C_20  and  C_21
REMARK                            x       y       z     vdW  Elec       q    Type
REMARK                         _______ _______ _______ _____ _____    ______ ____
ROOT
ATOM      1  C   UNL     1      -1.029   2.966  24.622  0.00  0.00    +0.090 C 
ATOM      2  N   UNL     1      -1.137   2.150  24.553  0.00  0.00    -0.271 NA
ATOM      3  C   UNL     1      -0.501   1.731  24.237  0.00  0.00    +0.083 C 
ATOM      4  C   UNL     1       0.205   2.087  23.999  0.00  0.00    +0.035 C 
ATOM      5  C   UNL     1       0.705   1.496  23.714  0.00  0.00    +0.074 C 
ATOM      6  N   UNL     1       0.308   0.774  23.775  0.00  0.00    -0.259 NA
ATOM     13  C   UNL     1      -0.437   0.920  24.099  0.00  0.00    +0.152 C 
ATOM     14  C   UNL     1      -0.994   0.329  24.243  0.00  0.00    +0.257 C 
ATOM     15  O   UNL     1      -0.762  -0.437  24.043  0.00  0.00    -0.272 OA
ATOM     16  N   UNL     1      -1.751   0.402  24.561  0.00  0.00    -0.203 NA
ATOM     17  C   UNL     1      -2.139   1.085  24.814  0.00  0.00    +0.131 C 
ATOM     18  C   UNL     1      -1.866   1.863  24.810  0.00  0.00    +0.080 C 
ENDROOT
BRANCH   6   7
ATOM      7  C   UNL     1       0.604   0.037  23.553  0.00  0.00    +0.139 C 
BRANCH   7   8
ATOM      8  C   UNL     1       1.251  -0.010  23.042  0.00  0.00    +0.155 A 
ATOM      9  N   UNL     1       2.042   0.088  23.251  0.00  0.00    -0.226 NA
ATOM     10  C   UNL     1       2.499  -0.006  22.571  0.00  0.00    +0.121 A 
ATOM     11  C   UNL     1       1.990  -0.162  21.941  0.00  0.00    +0.121 A 
ATOM     12  N   UNL     1       1.217  -0.165  22.232  0.00  0.00    -0.226 NA
ENDBRANCH   7   8
ENDBRANCH   6   7
BRANCH  18  19
ATOM     19  C   UNL     1      -2.391   2.429  25.102  0.00  0.00    +0.027 C 
BRANCH  19  20
ATOM     20  C   UNL     1      -3.205   2.297  25.056  0.00  0.00    +0.087 C 
BRANCH  20  21
ATOM     21  C   UNL     1      -3.730   2.846  25.379  0.00  0.00    +0.226 C 
ATOM     22  O   UNL     1      -3.442   3.531  25.739  0.00  0.00    -0.275 OA
ATOM     23  N   UNL     1      -4.543   2.709  25.342  0.00  0.00    -0.274 N 
ATOM     24  C   UNL     1      -5.068   3.258  25.666  0.00  0.00    +0.125 C 
ATOM     25  C   UNL     1      -5.881   3.121  25.629  0.00  0.00    +0.164 C 
ATOM     26  O   UNL     1      -6.169   2.437  25.269  0.00  0.00    -0.350 OA
ATOM     27  C   UNL     1      -5.643   1.889  24.947  0.00  0.00    +0.164 C 
ATOM     28  C   UNL     1      -4.830   2.025  24.983  0.00  0.00    +0.125 C 
ENDBRANCH  20  21
ENDBRANCH  19  20
ENDBRANCH  18  19
TORSDOF 5
ENDMDL
MODEL 4
REMARK VINA RESULT:      -8.1      2.663      4.474
REMARK  Name = 
REMARK  5 active torsions:
REMARK  status: ('A' for Active; 'I' for Inactive)
REMARK    1  A    between atoms: N_6  and  C_7
REMARK    2  A    between atoms: C_7  and  C_8
REMARK    3  A    between atoms: C_18  and  C_19
REMARK    4  A    between atoms: C_19  and  C_20
REMARK    5  A    between atoms: C_20  and  C_21
REMARK                            x       y       z     vdW  Elec       q    Type
REMARK                         _______ _______ _______ _____ _____    ______ ____
ROOT
ATOM      1  C   UNL     1      -1.408   2.723  24.097  0.00  0.00    +0.090 C 
ATOM      2  N   UNL     1      -1.727   2.001  24.338  0.00  0.00    -0.271 NA
ATOM      3  C   UNL     1      -2.541   1.998  24.474  0.00  0.00    +0.083 C 
ATOM      4  C   UNL     1      -3.020   2.663  24.382  0.00  0.00    +0.035 C 
ATOM      5  C   UNL     1      -3.794   2.448  24.567  0.00  0.00    +0.074 C 
ATOM      6  N   UNL     1      -3.794   1.649  24.774  0.00  0.00    -0.259 NA
ATOM     13  C   UNL     1      -3.019   1.371  24.717  0.00  0.00    +0.152 C 
ATOM     14  C   UNL     1      -2.801   0.593  24.882  0.00  0.00    +0.257 C 
ATOM     15  O   UNL     1      -3.415   0.091  25.115  0.00  0.00    -0.272 OA
ATOM     16  N   UNL     1      -2.053   0.249  24.846  0.00  0.00    -0.203 NA
ATOM     17  C   UNL     1      -1.336   0.599  24.635  0.00  0.00    +0.131 C 
ATOM     18  C   UNL     1      -1.191   1.379  24.409  0.00  0.00    +0.080 C 
ENDROOT
BRANCH   6   7
ATOM      7  C   UNL     1      -4.453   1.205  24.999  0.00  0.00    +0.139 C 
BRANCH   7   8
ATOM      8  C   UNL     1      -5.170   1.582  25.154  0.00  0.00    +0.155 A 
ATOM      9  N   UNL     1      -5.379   1.957  25.858  0.00  0.00    -0.226 NA
ATOM     10  C   UNL     1      -6.142   2.257  25.770  0.00  0.00    +0.121 A 
ATOM     11  C   UNL     1      -6.405   2.068  25.011  0.00  0.00    +0.121 A 
ATOM     12  N   UNL     1      -5.804   1.650  24.630  0.00  0.00    -0.226 NA
ENDBRANCH   7   8
ENDBRANCH   6   7
BRANCH  18  19
ATOM     19  C   UNL     1      -0.406   1.560  24.231  0.00  0.00    +0.027 C 
BRANCH  19  20
ATOM     20  C   UNL     1       0.080   0.989  23.884  0.00  0.00    +0.087 C 
BRANCH  20  21
ATOM     21  C   UNL     1       0.888   1.133  23.798  0.00  0.00    +0.226 C 
ATOM     22  O   UNL     1       1.250   1.732  24.237  0.00  0.00    -0.275 OA
ATOM     23  N   UNL     1       1.334   0.678  23.274  0.00  0.00    -0.274 N 
ATOM     24  C   UNL     1       2.142   0.822  23.188  0.00  0.00    +0.125 C 
ATOM     25  C   UNL     1       2.588   0.367  22.664  0.00  0.00    +0.164 C 
ATOM     26  O   UNL     1       2.226  -0.231  22.226  0.00  0.00    -0.350 OA
ATOM     27  C   UNL     1       1.419  -0.375  22.312  0.00  0.00    +0.164 C 
ATOM     28  C   UNL     1       0.973   0.080  22.836  0.00  0.00    +0.125 C 
ENDBRANCH  20  21
ENDBRANCH  19  20
ENDBRANCH  18  19
TORSDOF 5
ENDMDL
MODEL 5
REMARK VINA RESULT:      -7.4     17.377     19.058
REMARK  Name = 
REMARK  5 active torsions:
REMARK  status: ('A' for Active; 'I' for Inactive)
REMARK    1  A    between atoms: N_6  and  C_7
REMARK    2  A    between atoms: C_7  and  C_8
REMARK    3  A    between atoms: C_18  and  C_19
REMARK    4  A    between atoms: C_19  and  C_20
REMARK    5  A    between atoms: C_20  and  C_21
REMARK                            x       y       z     vdW  Elec       q    Type
REMARK                         _______ _______ _______ _____ _____    ______ ____
ROOT
ATOM      1  C   UNL     1      12.591   7.074  19.653  0.00  0.00    +0.090 C 
ATOM      2  N   UNL     1      13.210   7.599  19.500  0.00  0.00    -0.271 NA
ATOM      3  C   UNL     1      13.935   7.407  19.843  0.00  0.00    +0.083 C 
ATOM      4  C   UNL     1      14.053   6.738  20.312  0.00  0.00    +0.035 C 
ATOM      5  C   UNL     1      14.842   6.732  20.554  0.00  0.00    +0.074 C 
ATOM      6  N   UNL     1      15.212   7.397  20.234  0.00  0.00    -0.259 NA
ATOM     13  C   UNL     1      14.651   7.814  19.795  0.00  0.00    +0.152 C 
ATOM     14  C   UNL     1      14.818   8.513  19.391  0.00  0.00    +0.257 C 
ATOM     15  O   UNL     1      15.596   8.783  19.450  0.00  0.00    -0.272 OA
ATOM     16  N   UNL     1      14.312   8.979  18.936  0.00  0.00    -0.203 NA
ATOM     17  C   UNL     1      13.512   8.859  18.772  0.00  0.00    +0.131 C 
ATOM     18  C   UNL     1      13.022   8.245  19.023  0.00  0.00    +0.080 C 
ENDROOT
BRANCH   6   7
ATOM      7  C   UNL     1      16.003   7.608  20.336  0.00  0.00    +0.139 C 
BRANCH   7   8
ATOM      8  C   UNL     1      16.525   7.085  20.702  0.00  0.00    +0.155 A 
ATOM      9  N   UNL     1      16.710   7.067  21.506  0.00  0.00    -0.226 NA
ATOM     10  C   UNL     1      17.254   6.458  21.628  0.00  0.00    +0.121 A 
ATOM     11  C   UNL     1      17.405   6.100  20.900  0.00  0.00    +0.121 A 
ATOM     12  N   UNL     1      16.955   6.488  20.327  0.00  0.00    -0.226 NA
ENDBRANCH   7   8
ENDBRANCH   6   7
BRANCH  18  19
ATOM     19  C   UNL     1      12.239   8.282  18.763  0.00  0.00    +0.027 C 
BRANCH  19  20
ATOM     20  C   UNL     1      12.049   8.728  18.095  0.00  0.00    +0.087 C 
BRANCH  20  21
ATOM     21  C   UNL     1      11.294   8.673  17.765  0.00  0.00    +0.226 C 
ATOM     22  O   UNL     1      10.646   8.496  18.244  0.00  0.00    -0.275 OA
ATOM     23  N   UNL     1      11.189   8.795  16.956  0.00  0.00    -0.274 N 
ATOM     24  C   UNL     1      10.434   8.740  16.626  0.00  0.00    +0.125 C 
ATOM     25  C   UNL     1      10.329   8.862  15.816  0.00  0.00    +0.164 C 
ATOM     26  O   UNL     1      10.977   9.039  15.337  0.00  0.00    -0.350 OA
ATOM     27  C   UNL     1      11.731   9.093  15.668  0.00  0.00    +0.164 C 
ATOM     28  C   UNL     1      11.836   8.971  16.477  0.00  0.00    +0.125 C 
ENDBRANCH  20  21
ENDBRANCH  19  20
ENDBRANCH  18  19
TORSDOF 5
ENDMDL
MODEL 6
REMARK VINA RESULT:      -6.3     15.253     18.231
REMARK  Name = 
REMARK  5 active torsions:
REMARK  status: ('A' for Active; 'I' for Inactive)
REMARK    1  A    between atoms: N_6  and  C_7
REMARK    2  A    between atoms: C_7  and  C_8
REMARK    3  A    between atoms: C_18  and  C_19
REMARK    4  A    between atoms: C_19  and  C_20
REMARK    5  A    between atoms: C_20  and  C_21
REMARK                            x       y       z     vdW  Elec       q    Type
REMARK                         _______ _______ _______ _____ _____    ______ ____
ROOT
ATOM      1  C   UNL     1      13.558   7.021  19.256  0.00  0.00    +0.090 C 
ATOM      2  N   UNL     1      13.052   7.475  18.787  0.00  0.00    -0.271 NA
ATOM      3  C   UNL     1      13.379   7.767  18.088  0.00  0.00    +0.083 C 
ATOM      4  C   UNL     1      14.158   7.624  17.855  0.00  0.00    +0.035 C 
ATOM      5  C   UNL     1      14.281   8.002  17.133  0.00  0.00    +0.074 C 
ATOM      6  N   UNL     1      13.578   8.378  16.918  0.00  0.00    -0.259 NA
ATOM     13  C   UNL     1      13.021   8.232  17.509  0.00  0.00    +0.152 C 
ATOM     14  C   UNL     1      12.249   8.521  17.486  0.00  0.00    +0.257 C 
ATOM     15  O   UNL     1      12.056   8.976  16.824  0.00  0.00    -0.272 OA
ATOM     16  N   UNL     1      11.643   8.417  18.036  0.00  0.00    -0.203 NA
ATOM     17  C   UNL     1      11.661   7.996  18.747  0.00  0.00    +0.131 C 
ATOM     18  C   UNL     1      12.289   7.577  19.080  0.00  0.00    +0.080 C 
ENDROOT
BRANCH   6   7
ATOM      7  C   UNL     1      13.455   8.822  16.233  0.00  0.00    +0.139 C 
BRANCH   7   8
ATOM      8  C   UNL     1      14.022   8.821  15.634  0.00  0.00    +0.155 A 
ATOM      9  N   UNL     1      14.799   9.091  15.702  0.00  0.00    -0.226 NA
ATOM     10  C   UNL     1      15.168   8.987  14.971  0.00  0.00    +0.121 A 
ATOM     11  C   UNL     1      14.621   8.654  14.452  0.00  0.00    +0.121 A 
ATOM     12  N   UNL     1      13.912   8.551  14.862  0.00  0.00    -0.226 NA
ENDBRANCH   7   8
ENDBRANCH   6   7
BRANCH  18  19
ATOM     19  C   UNL     1      12.130   7.212  19.804  0.00  0.00    +0.027 C 
BRANCH  19  20
ATOM     20  C   UNL     1      11.840   7.657  20.435  0.00  0.00    +0.087 C 
BRANCH  20  21
ATOM     21  C   UNL     1      11.354   7.303  21.000  0.00  0.00    +0.226 C 
ATOM     22  O   UNL     1      11.161   6.503  20.935  0.00  0.00    -0.275 OA
ATOM     23  N   UNL     1      11.061   7.749  21.630  0.00  0.00    -0.274 N 
ATOM     24  C   UNL     1      10.575   7.394  22.195  0.00  0.00    +0.125 C 
ATOM     25  C   UNL     1      10.283   7.840  22.824  0.00  0.00    +0.164 C 
ATOM     26  O   UNL     1      10.476   8.640  22.889  0.00  0.00    -0.350 OA
ATOM     27  C   UNL     1      10.961   8.993  22.324  0.00  0.00    +0.164 C 
ATOM     28  C   UNL     1      11.254   8.547  21.694  0.00  0.00    +0.125 C 
ENDBRANCH  20  21
ENDBRANCH  19  20
ENDBRANCH  18  19
TORSDOF 5
ENDMDL
MODEL 7
REMARK VINA RESULT:      -6.2     15.312     18.069
REMARK  Name = 
REMARK  5 active torsions:
REMARK  status: ('A' for Active; 'I' for Inactive)
REMARK    1  A    between atoms: N_6  and  C_7
REMARK    2  A    between atoms: C_7  and  C_8
REMARK    3  A    between atoms: C_18  and  C_19
REMARK    4  A    between atoms: C_19  and  C_20
REMARK    5  A    between atoms: C_20  and  C_21
REMARK                            x       y       z     vdW  Elec       q    Type
REMARK                         _______ _______ _______ _____ _____    ______ ____
ROOT
ATOM      1  C   UNL     1      13.470   6.826  19.516  0.00  0.00    +0.090 C 
ATOM      2  N   UNL     1      12.810   7.309  19.401  0.00  0.00    -0.271 NA
ATOM      3  C   UNL     1      12.305   7.383  20.048  0.00  0.00    +0.083 C 
ATOM      4  C   UNL     1      12.433   7.008  20.772  0.00  0.00    +0.035 C 
ATOM      5  C   UNL     1      11.816   7.212  21.279  0.00  0.00    +0.074 C 
ATOM      6  N   UNL     1      11.305   7.714  20.869  0.00  0.00    -0.259 NA
ATOM     13  C   UNL     1      11.607   7.820  20.108  0.00  0.00    +0.152 C 
ATOM     14  C   UNL     1      11.244   8.290  19.535  0.00  0.00    +0.257 C 
ATOM     15  O   UNL     1      10.544   8.660  19.768  0.00  0.00    -0.272 OA
ATOM     16  N   UNL     1      11.488   8.439  18.762  0.00  0.00    -0.203 NA
ATOM     17  C   UNL     1      12.156   8.155  18.369  0.00  0.00    +0.131 C 
ATOM     18  C   UNL     1      12.745   7.652  18.654  0.00  0.00    +0.080 C 
ENDROOT
BRANCH   6   7
ATOM      7  C   UNL     1      10.613   8.052  21.167  0.00  0.00    +0.139 C 
BRANCH   7   8
ATOM      8  C   UNL     1      10.586   8.312  21.949  0.00  0.00    +0.155 A 
ATOM      9  N   UNL     1      10.836   9.049  22.225  0.00  0.00    -0.226 NA
ATOM     10  C   UNL     1      10.708   9.072  23.039  0.00  0.00    +0.121 A 
ATOM     11  C   UNL     1      10.379   8.351  23.268  0.00  0.00    +0.121 A 
ATOM     12  N   UNL     1      10.304   7.881  22.593  0.00  0.00    -0.226 NA
ENDBRANCH   7   8
ENDBRANCH   6   7
BRANCH  18  19
ATOM     19  C   UNL     1      13.347   7.468  18.120  0.00  0.00    +0.027 C 
BRANCH  19  20
ATOM     20  C   UNL     1      13.430   7.907  17.426  0.00  0.00    +0.087 C 
BRANCH  20  21
ATOM     21  C   UNL     1      14.083   7.783  16.936  0.00  0.00    +0.226 C 
ATOM     22  O   UNL     1      14.680   7.263  17.168  0.00  0.00    -0.275 OA
ATOM     23  N   UNL     1      14.136   8.179  16.214  0.00  0.00    -0.274 N 
ATOM     24  C   UNL     1      14.789   8.054  15.724  0.00  0.00    +0.125 C 
ATOM     25  C   UNL     1      14.842   8.450  15.002  0.00  0.00    +0.164 C 
ATOM     26  O   UNL     1      14.245   8.970  14.770  0.00  0.00    -0.350 OA
ATOM     27  C   UNL     1      13.593   9.094  15.260  0.00  0.00    +0.164 C 
ATOM     28  C   UNL     1      13.540   8.698  15.983  0.00  0.00    +0.125 C 
ENDBRANCH  20  21
ENDBRANCH  19  20
ENDBRANCH  18  19
TORSDOF 5
ENDMDL
MODEL 8
REMARK VINA RESULT:      -5.8     17.556     19.497
REMARK  Name = 
REMARK  5 active torsions:
REMARK  status: ('A' for Active; 'I' for Inactive)
REMARK    1  A    between atoms: N_6  and  C_7
REMARK    2  A    between atoms: C_7  and  C_8
REMARK    3  A    between atoms: C_18  and  C_19
REMARK    4  A    between atoms: C_19  and  C_20
REMARK    5  A    between atoms: C_20  and  C_21
REMARK                            x       y       z     vdW  Elec       q    Type
REMARK                         _______ _______ _______ _____ _____    ______ ____
ROOT
ATOM      1  C   UNL     1      13.276   8.393  20.069  0.00  0.00    +0.090 C 
ATOM      2  N   UNL     1      13.547   8.556  19.306  0.00  0.00    -0.271 NA
ATOM      3  C   UNL     1      12.962   8.656  18.734  0.00  0.00    +0.083 C 
ATOM      4  C   UNL     1      12.154   8.600  18.894  0.00  0.00    +0.035 C 
ATOM      5  C   UNL     1      11.744   8.732  18.190  0.00  0.00    +0.074 C 
ATOM      6  N   UNL     1      12.299   8.870  17.594  0.00  0.00    -0.259 NA
ATOM     13  C   UNL     1      13.051   8.823  17.931  0.00  0.00    +0.152 C 
ATOM     14  C   UNL     1      13.748   8.930  17.503  0.00  0.00    +0.257 C 
ATOM     15  O   UNL     1      13.653   9.091  16.698  0.00  0.00    -0.272 OA
ATOM     16  N   UNL     1      14.527   8.898  17.771  0.00  0.00    -0.203 NA
ATOM     17  C   UNL     1      14.802   8.750  18.535  0.00  0.00    +0.131 C 
ATOM     18  C   UNL     1      14.365   8.598  19.218  0.00  0.00    +0.080 C 
ENDROOT
BRANCH   6   7
ATOM      7  C   UNL     1      12.131   9.027  16.802  0.00  0.00    +0.139 C 
BRANCH   7   8
ATOM      8  C   UNL     1      11.395   8.824  16.489  0.00  0.00    +0.155 A 
ATOM      9  N   UNL     1      10.823   8.358  16.857  0.00  0.00    -0.226 NA
ATOM     10  C   UNL     1      10.177   8.299  16.347  0.00  0.00    +0.121 A 
ATOM     11  C   UNL     1      10.349   8.728  15.665  0.00  0.00    +0.121 A 
ATOM     12  N   UNL     1      11.103   9.053  15.752  0.00  0.00    -0.226 NA
ENDBRANCH   7   8
ENDBRANCH   6   7
BRANCH  18  19
ATOM     19  C   UNL     1      14.807   8.471  19.904  0.00  0.00    +0.027 C 
BRANCH  19  20
ATOM     20  C   UNL     1      15.580   8.187  19.849  0.00  0.00    +0.087 C 
BRANCH  20  21
ATOM     21  C   UNL     1      16.024   8.067  20.534  0.00  0.00    +0.226 C 
ATOM     22  O   UNL     1      16.009   8.628  21.140  0.00  0.00    -0.275 OA
ATOM     23  N   UNL     1      16.484   7.386  20.613  0.00  0.00    -0.274 N 
ATOM     24  C   UNL     1      16.928   7.266  21.298  0.00  0.00    +0.125 C 
ATOM     25  C   UNL     1      17.388   6.585  21.377  0.00  0.00    +0.164 C 
ATOM     26  O   UNL     1      17.403   6.025  20.772  0.00  0.00    -0.350 OA
ATOM     27  C   UNL     1      16.959   6.146  20.087  0.00  0.00    +0.164 C 
ATOM     28  C   UNL     1      16.499   6.826  20.008  0.00  0.00    +0.125 C 
ENDBRANCH  20  21
ENDBRANCH  19  20
ENDBRANCH  18  19
TORSDOF 5
ENDMDL
MODEL 9
REMARK VINA RESULT:      -4.9     15.829     18.862
REMARK  Name = 
REMARK  5 active torsions:
REMARK  status: ('A' for Active; 'I' for Inactive)
REMARK    1  A    between atoms: N_6  and  C_7
REMARK    2  A    between atoms: C_7  and  C_8
REMARK    3  A    between atoms: C_18  and  C_19
REMARK    4  A    between atoms: C_19  and  C_20
REMARK    5  A    between atoms: C_20  and  C_21
REMARK                            x       y       z     vdW  Elec       q    Type
REMARK                         _______ _______ _______ _____ _____    ______ ____
ROOT
ATOM      1  C   UNL     1      12.851   7.571  18.775  0.00  0.00    +0.090 C 
ATOM      2  N   UNL     1      13.474   7.866  19.230  0.00  0.00    -0.271 NA
ATOM      3  C   UNL     1      14.210   7.520  19.095  0.00  0.00    +0.083 C 
ATOM      4  C   UNL     1      14.336   6.917  18.546  0.00  0.00    +0.035 C 
ATOM      5  C   UNL     1      15.135   6.714  18.567  0.00  0.00    +0.074 C 
ATOM      6  N   UNL     1      15.504   7.193  19.129  0.00  0.00    -0.259 NA
ATOM     13  C   UNL     1      14.932   7.691  19.455  0.00  0.00    +0.152 C 
ATOM     14  C   UNL     1      15.096   8.250  20.039  0.00  0.00    +0.257 C 
ATOM     15  O   UNL     1      15.882   8.287  20.288  0.00  0.00    -0.272 OA
ATOM     16  N   UNL     1      14.579   8.776  20.407  0.00  0.00    -0.203 NA
ATOM     17  C   UNL     1      13.769   8.873  20.282  0.00  0.00    +0.131 C 
ATOM     18  C   UNL     1      13.277   8.468  19.758  0.00  0.00    +0.080 C 
ENDROOT
BRANCH   6   7
ATOM      7  C   UNL     1      16.305   7.176  19.330  0.00  0.00    +0.139 C 
BRANCH   7   8
ATOM      8  C   UNL     1      16.737   6.479  19.242  0.00  0.00    +0.155 A 
ATOM      9  N   UNL     1      16.996   5.989  19.853  0.00  0.00    -0.226 NA
ATOM     10  C   UNL     1      17.405   5.357  19.516  0.00  0.00    +0.121 A 
ATOM     11  C   UNL     1      17.399   5.456  18.697  0.00  0.00    +0.121 A 
ATOM     12  N   UNL     1      16.986   6.150  18.528  0.00  0.00    -0.226 NA
ENDBRANCH   7   8
ENDBRANCH   6   7
BRANCH  18  19
ATOM     19  C   UNL     1      12.484   8.696  19.763  0.00  0.00    +0.027 C 
BRANCH  19  20
ATOM     20  C   UNL     1      12.147   9.000  20.452  0.00  0.00    +0.087 C 
BRANCH  20  21
ATOM     21  C   UNL     1      11.360   8.834  20.634  0.00  0.00    +0.226 C 
ATOM     22  O   UNL     1      10.830   8.636  20.033  0.00  0.00    -0.275 OA
ATOM     23  N   UNL     1      11.103   8.865  21.418  0.00  0.00    -0.274 N 
ATOM     24  C   UNL     1      10.315   8.698  21.600  0.00  0.00    +0.125 C 
ATOM     25  C   UNL     1      10.058   8.729  22.384  0.00  0.00    +0.164 C 
ATOM     26  O   UNL     1      10.588   8.927  22.985  0.00  0.00    -0.350 OA
ATOM     27  C   UNL     1      11.375   9.093  22.802  0.00  0.00    +0.164 C 
ATOM     28  C   UNL     1      11.632   9.062  22.018  0.00  0.00    +0.125 C 
ENDBRANCH  20  21
ENDBRANCH  19  20
ENDBRANCH  18  19
TORSDOF 5
ENDMDL
