REMARK  Name = 
REMARK  7 active torsions:
REMARK  status: ('A' for Active; 'I' for Inactive)
REMARK    1  A    between atoms: S_2  and  N_4
REMARK    2  A    between atoms: S_2  and  C_31
REMARK    3  A    between atoms: N_4  and  C_5
REMARK    4  A    between atoms: C_9  and  N_13
REMARK    5  A    between atoms: C_17  and  O_18
REMARK    6  A    between atoms: O_18  and  C_19
REMARK    7  A    between atoms: C_23  and  N_25
REMARK                            x       y       z     vdW  Elec       q    Type
REMARK                         _______ _______ _______ _____ _____    ______ ____
ROOT
ATOM     13  N   UNL     1       3.094   1.197   0.000  0.00  0.00    -0.180 N 
ATOM     14  N   UNL     1       2.609   1.865   0.000  0.00  0.00    -0.040 NA
ATOM     15  N   UNL     1       3.094   2.532   0.000  0.00  0.00    -0.020 NA
ATOM     16  N   UNL     1       3.878   2.277   0.000  0.00  0.00    -0.071 NA
ATOM     17  C   UNL     1       3.878   1.452   0.000  0.00  0.00    +0.343 A 
ENDROOT
BRANCH  13   9
ATOM      5  C   UNL     1       1.270  -0.922   0.000  0.00  0.00    +0.157 C 
ATOM      6  C   UNL     1       0.785  -0.255   0.000  0.00  0.00    +0.164 C 
ATOM      7  O   UNL     1       1.270   0.412   0.000  0.00  0.00    -0.350 OA
ATOM      8  C   UNL     1       2.054   0.158   0.000  0.00  0.00    +0.169 C 
ATOM      9  C   UNL     1       2.839   0.412   0.000  0.00  0.00    +0.170 C 
ATOM     10  C   UNL     1       3.324  -0.255   0.000  0.00  0.00    +0.169 C 
ATOM     11  O   UNL     1       2.839  -0.922   0.000  0.00  0.00    -0.350 OA
ATOM     12  C   UNL     1       2.054  -0.667   0.000  0.00  0.00    +0.164 C 
BRANCH   5   4
ATOM      4  N   UNL     1       1.015  -1.707   0.000  0.00  0.00    -0.074 NA
BRANCH   4   2
ATOM      1  O   UNL     1       0.036  -1.072   0.000  0.00  0.00    -0.151 OA
ATOM      2  S   UNL     1       0.208  -1.879   0.000  0.00  0.00    +0.083 S 
ATOM      3  O   UNL     1       0.379  -2.686   0.000  0.00  0.00    -0.151 OA
BRANCH   2  31
ATOM     31  C   UNL     1      -0.599  -2.050   0.000  0.00  0.00    +0.153 A 
ATOM     32  C   UNL     1      -0.935  -2.804   0.000  0.00  0.00    +0.027 A 
ATOM     33  C   UNL     1      -1.755  -2.717   0.000  0.00  0.00    +0.009 A 
ATOM     34  C   UNL     1      -1.927  -1.911   0.000  0.00  0.00    +0.037 A 
ATOM     35  S   UNL     1      -1.212  -1.498   0.000  0.00  0.00    -0.067 S 
ENDBRANCH   2  31
ENDBRANCH   4   2
ENDBRANCH   5   4
ENDBRANCH  13   9
BRANCH  17  18
ATOM     18  O   UNL     1       4.546   0.967   0.000  0.00  0.00    -0.421 OA
BRANCH  18  19
ATOM     19  C   UNL     1       5.300   1.303   0.000  0.00  0.00    +0.150 A 
ATOM     20  C   UNL     1       5.386   2.123   0.000  0.00  0.00    +0.038 A 
ATOM     21  C   UNL     1       6.139   2.459   0.000  0.00  0.00    +0.004 A 
ATOM     22  C   UNL     1       6.807   1.974   0.000  0.00  0.00    +0.015 A 
ATOM     23  C   UNL     1       6.721   1.153   0.000  0.00  0.00    +0.051 A 
ATOM     24  C   UNL     1       5.967   0.818   0.000  0.00  0.00    +0.052 A 
BRANCH  23  25
ATOM     25  N   UNL     1       7.388   0.668   0.000  0.00  0.00    -0.303 N 
ATOM     26  C   UNL     1       8.142   1.004   0.000  0.00  0.00    +0.123 C 
ATOM     27  C   UNL     1       8.809   0.519   0.000  0.00  0.00    +0.164 C 
ATOM     28  O   UNL     1       8.723  -0.301   0.000  0.00  0.00    -0.350 OA
ATOM     29  C   UNL     1       7.969  -0.637   0.000  0.00  0.00    +0.164 C 
ATOM     30  C   UNL     1       7.302  -0.152   0.000  0.00  0.00    +0.123 C 
ENDBRANCH  23  25
ENDBRANCH  18  19
ENDBRANCH  17  18
TORSDOF 7
