MODEL 1
REMARK VINA RESULT:      -9.6      0.000      0.000
REMARK  Name = 
REMARK  7 active torsions:
REMARK  status: ('A' for Active; 'I' for Inactive)
REMARK    1  A    between atoms: C_2  and  N_3
REMARK    2  A    between atoms: N_3  and  C_4
REMARK    3  A    between atoms: C_6  and  C_8
REMARK    4  A    between atoms: C_8  and  C_9
REMARK    5  A    between atoms: C_9  and  C_10
REMARK    6  A    between atoms: C_17  and  N_20
REMARK    7  A    between atoms: N_23  and  C_24
REMARK                            x       y       z     vdW  Elec       q    Type
REMARK                         _______ _______ _______ _____ _____    ______ ____
ROOT
ATOM     10  C   UNL     1      -4.403   0.998  25.076  0.00  0.00    +0.080 C 
ATOM     11  C   UNL     1      -5.209   0.860  24.965  0.00  0.00    +0.131 C 
ATOM     12  N   UNL     1      -5.727   1.497  24.879  0.00  0.00    -0.203 NA
ATOM     13  C   UNL     1      -5.439   2.269  24.905  0.00  0.00    +0.256 C 
ATOM     14  O   UNL     1      -5.958   2.905  24.819  0.00  0.00    -0.272 OA
ATOM     15  C   UNL     1      -4.634   2.406  25.016  0.00  0.00    +0.138 C 
ATOM     16  C   UNL     1      -4.193   3.102  25.065  0.00  0.00    +0.049 C 
ATOM     17  C   UNL     1      -3.403   2.896  25.180  0.00  0.00    +0.115 C 
ATOM     18  C   UNL     1      -3.354   2.073  25.203  0.00  0.00    +0.094 C 
ATOM     19  N   UNL     1      -4.116   1.771  25.102  0.00  0.00    -0.265 NA
ENDROOT
BRANCH  17  20
ATOM     20  N   UNL     1      -2.771   3.422  25.259  0.00  0.00    -0.187 NA
ATOM     21  C   UNL     1      -2.728   3.919  25.917  0.00  0.00    +0.344 C 
ATOM     22  O   UNL     1      -3.316   3.890  26.495  0.00  0.00    -0.249 OA
ATOM     23  N   UNL     1      -2.097   4.443  25.995  0.00  0.00    -0.160 NA
BRANCH  23  24
ATOM     24  C   UNL     1      -1.508   4.472  25.417  0.00  0.00    +0.082 A 
ATOM     25  C   UNL     1      -0.893   3.929  25.325  0.00  0.00    +0.052 A 
ATOM     26  S   UNL     1      -0.437   4.170  24.681  0.00  0.00    -0.085 S 
ATOM     27  C   UNL     1      -0.769   4.860  24.376  0.00  0.00    +0.037 A 
ATOM     28  C   UNL     1      -1.432   5.046  24.831  0.00  0.00    +0.024 A 
ENDBRANCH  23  24
ENDBRANCH  17  20
BRANCH  10   9
ATOM      9  C   UNL     1      -3.884   0.361  25.162  0.00  0.00    +0.027 C 
BRANCH   9   8
ATOM      8  C   UNL     1      -4.112  -0.393  24.916  0.00  0.00    +0.087 C 
BRANCH   8   6
ATOM      3  N   UNL     1      -3.647  -1.723  24.680  0.00  0.00    -0.280 N 
ATOM      6  C   UNL     1      -3.684  -1.053  25.161  0.00  0.00    +0.226 C 
ATOM      7  O   UNL     1      -3.291  -1.045  25.886  0.00  0.00    -0.275 OA
BRANCH   3   2
ATOM      1  C   UNL     1      -2.508  -2.577  24.552  0.00  0.00    +0.023 C 
ATOM      2  C   UNL     1      -3.218  -2.384  24.925  0.00  0.00    +0.093 C 
ENDBRANCH   3   2
BRANCH   3   4
ATOM      4  C   UNL     1      -4.039  -1.732  23.954  0.00  0.00    +0.093 C 
ATOM      5  C   UNL     1      -4.399  -2.426  23.689  0.00  0.00    +0.023 C 
ENDBRANCH   3   4
ENDBRANCH   8   6
ENDBRANCH   9   8
ENDBRANCH  10   9
TORSDOF 7
ENDMDL
MODEL 2
REMARK VINA RESULT:      -9.1      1.761      5.062
REMARK  Name = 
REMARK  7 active torsions:
REMARK  status: ('A' for Active; 'I' for Inactive)
REMARK    1  A    between atoms: C_2  and  N_3
REMARK    2  A    between atoms: N_3  and  C_4
REMARK    3  A    between atoms: C_6  and  C_8
REMARK    4  A    between atoms: C_8  and  C_9
REMARK    5  A    between atoms: C_9  and  C_10
REMARK    6  A    between atoms: C_17  and  N_20
REMARK    7  A    between atoms: N_23  and  C_24
REMARK                            x       y       z     vdW  Elec       q    Type
REMARK                         _______ _______ _______ _____ _____    ______ ____
ROOT
ATOM     10  C   UNL     1      -3.793   2.244  24.391  0.00  0.00    +0.080 C 
ATOM     11  C   UNL     1      -4.378   2.825  24.428  0.00  0.00    +0.131 C 
ATOM     12  N   UNL     1      -5.148   2.620  24.639  0.00  0.00    -0.203 NA
ATOM     13  C   UNL     1      -5.334   1.835  24.813  0.00  0.00    +0.256 C 
ATOM     14  O   UNL     1      -6.106   1.632  25.024  0.00  0.00    -0.272 OA
ATOM     15  C   UNL     1      -4.750   1.255  24.775  0.00  0.00    +0.138 C 
ATOM     16  C   UNL     1      -4.769   0.442  24.915  0.00  0.00    +0.049 C 
ATOM     17  C   UNL     1      -4.010   0.145  24.791  0.00  0.00    +0.115 C 
ATOM     18  C   UNL     1      -3.521   0.772  24.574  0.00  0.00    +0.094 C 
ATOM     19  N   UNL     1      -3.979   1.459  24.565  0.00  0.00    -0.265 NA
ENDROOT
BRANCH  17  20
ATOM     20  N   UNL     1      -3.780  -0.644  24.870  0.00  0.00    -0.187 NA
ATOM     21  C   UNL     1      -3.679  -0.972  25.620  0.00  0.00    +0.344 C 
ATOM     22  O   UNL     1      -3.809  -0.511  26.292  0.00  0.00    -0.249 OA
ATOM     23  N   UNL     1      -3.449  -1.760  25.698  0.00  0.00    -0.160 NA
BRANCH  23  24
ATOM     24  C   UNL     1      -3.319  -2.221  25.026  0.00  0.00    +0.082 A 
ATOM     25  C   UNL     1      -2.584  -2.390  24.689  0.00  0.00    +0.052 A 
ATOM     26  S   UNL     1      -2.712  -2.867  24.029  0.00  0.00    -0.085 S 
ATOM     27  C   UNL     1      -3.523  -2.994  23.958  0.00  0.00    +0.037 A 
ATOM     28  C   UNL     1      -3.898  -2.594  24.574  0.00  0.00    +0.024 A 
ENDBRANCH  23  24
ENDBRANCH  17  20
BRANCH  10   9
ATOM      9  C   UNL     1      -3.022   2.448  24.180  0.00  0.00    +0.027 C 
BRANCH   9   8
ATOM      8  C   UNL     1      -2.669   3.120  24.505  0.00  0.00    +0.087 C 
BRANCH   8   6
ATOM      3  N   UNL     1      -1.487   3.852  24.829  0.00  0.00    -0.280 N 
ATOM      6  C   UNL     1      -1.859   3.244  24.414  0.00  0.00    +0.226 C 
ATOM      7  O   UNL     1      -1.421   2.762  23.909  0.00  0.00    -0.275 OA
BRANCH   3   2
ATOM      1  C   UNL     1      -0.154   3.749  25.336  0.00  0.00    +0.023 C 
ATOM      2  C   UNL     1      -0.676   3.977  24.739  0.00  0.00    +0.093 C 
ENDBRANCH   3   2
BRANCH   3   4
ATOM      4  C   UNL     1      -1.924   4.335  25.335  0.00  0.00    +0.093 C 
ATOM      5  C   UNL     1      -1.791   5.150  25.344  0.00  0.00    +0.023 C 
ENDBRANCH   3   4
ENDBRANCH   8   6
ENDBRANCH   9   8
ENDBRANCH  10   9
TORSDOF 7
ENDMDL
MODEL 3
REMARK VINA RESULT:      -8.8      2.754      6.012
REMARK  Name = 
REMARK  7 active torsions:
REMARK  status: ('A' for Active; 'I' for Inactive)
REMARK    1  A    between atoms: C_2  and  N_3
REMARK    2  A    between atoms: N_3  and  C_4
REMARK    3  A    between atoms: C_6  and  C_8
REMARK    4  A    between atoms: C_8  and  C_9
REMARK    5  A    between atoms: C_9  and  C_10
REMARK    6  A    between atoms: C_17  and  N_20
REMARK    7  A    between atoms: N_23  and  C_24
REMARK                            x       y       z     vdW  Elec       q    Type
REMARK                         _______ _______ _______ _____ _____    ______ ____
ROOT
ATOM     10  C   UNL     1      -0.226   1.616  24.801  0.00  0.00    +0.080 C 
ATOM     11  C   UNL     1       0.422   1.945  24.411  0.00  0.00    +0.131 C 
ATOM     12  N   UNL     1       0.824   1.506  23.840  0.00  0.00    -0.203 NA
ATOM     13  C   UNL     1       0.578   0.739  23.659  0.00  0.00    +0.256 C 
ATOM     14  O   UNL     1       0.981   0.301  23.088  0.00  0.00    -0.272 OA
ATOM     15  C   UNL     1      -0.070   0.412  24.049  0.00  0.00    +0.138 C 
ATOM     16  C   UNL     1      -0.438  -0.324  23.988  0.00  0.00    +0.049 C 
ATOM     17  C   UNL     1      -1.067  -0.341  24.521  0.00  0.00    +0.115 C 
ATOM     18  C   UNL     1      -1.089   0.385  24.912  0.00  0.00    +0.094 C 
ATOM     19  N   UNL     1      -0.472   0.850  24.620  0.00  0.00    -0.265 NA
ENDROOT
BRANCH  17  20
ATOM     20  N   UNL     1      -1.584  -0.973  24.642  0.00  0.00    -0.187 NA
ATOM     21  C   UNL     1      -1.328  -1.643  25.051  0.00  0.00    +0.344 C 
ATOM     22  O   UNL     1      -0.555  -1.680  25.338  0.00  0.00    -0.249 OA
ATOM     23  N   UNL     1      -1.845  -2.274  25.171  0.00  0.00    -0.160 NA
BRANCH  23  24
ATOM     24  C   UNL     1      -2.618  -2.236  24.884  0.00  0.00    +0.082 A 
ATOM     25  C   UNL     1      -2.889  -2.568  24.179  0.00  0.00    +0.052 A 
ATOM     26  S   UNL     1      -3.693  -2.397  24.111  0.00  0.00    -0.085 S 
ATOM     27  C   UNL     1      -3.918  -1.960  24.773  0.00  0.00    +0.037 A 
ATOM     28  C   UNL     1      -3.253  -1.860  25.251  0.00  0.00    +0.024 A 
ENDBRANCH  23  24
ENDBRANCH  17  20
BRANCH  10   9
ATOM      9  C   UNL     1      -0.629   2.055  25.373  0.00  0.00    +0.027 C 
BRANCH   9   8
ATOM      8  C   UNL     1      -0.786   2.855  25.244  0.00  0.00    +0.087 C 
BRANCH   8   6
ATOM      3  N   UNL     1      -1.574   4.012  25.526  0.00  0.00    -0.280 N 
ATOM      6  C   UNL     1      -1.324   3.252  25.726  0.00  0.00    +0.226 C 
ATOM      7  O   UNL     1      -1.613   2.889  26.409  0.00  0.00    -0.275 OA
BRANCH   3   2
ATOM      1  C   UNL     1      -2.914   4.419  25.814  0.00  0.00    +0.023 C 
ATOM      2  C   UNL     1      -2.113   4.410  26.009  0.00  0.00    +0.093 C 
ENDBRANCH   3   2
BRANCH   3   4
ATOM      4  C   UNL     1      -1.286   4.376  24.844  0.00  0.00    +0.093 C 
ATOM      5  C   UNL     1      -1.119   5.184  24.847  0.00  0.00    +0.023 C 
ENDBRANCH   3   4
ENDBRANCH   8   6
ENDBRANCH   9   8
ENDBRANCH  10   9
TORSDOF 7
ENDMDL
MODEL 4
REMARK VINA RESULT:      -8.8      2.531      3.472
REMARK  Name = 
REMARK  7 active torsions:
REMARK  status: ('A' for Active; 'I' for Inactive)
REMARK    1  A    between atoms: C_2  and  N_3
REMARK    2  A    between atoms: N_3  and  C_4
REMARK    3  A    between atoms: C_6  and  C_8
REMARK    4  A    between atoms: C_8  and  C_9
REMARK    5  A    between atoms: C_9  and  C_10
REMARK    6  A    between atoms: C_17  and  N_20
REMARK    7  A    between atoms: N_23  and  C_24
REMARK                            x       y       z     vdW  Elec       q    Type
REMARK                         _______ _______ _______ _____ _____    ______ ____
ROOT
ATOM     10  C   UNL     1      -0.603  -0.472  24.364  0.00  0.00    +0.080 C 
ATOM     11  C   UNL     1      -0.106  -0.898  23.862  0.00  0.00    +0.131 C 
ATOM     12  N   UNL     1       0.480  -0.507  23.434  0.00  0.00    -0.203 NA
ATOM     13  C   UNL     1       0.568   0.310  23.507  0.00  0.00    +0.256 C 
ATOM     14  O   UNL     1       1.155   0.701  23.077  0.00  0.00    -0.272 OA
ATOM     15  C   UNL     1       0.071   0.736  24.008  0.00  0.00    +0.138 C 
ATOM     16  C   UNL     1       0.027   1.539  24.191  0.00  0.00    +0.049 C 
ATOM     17  C   UNL     1      -0.586   1.644  24.733  0.00  0.00    +0.115 C 
ATOM     18  C   UNL     1      -0.922   0.906  24.885  0.00  0.00    +0.094 C 
ATOM     19  N   UNL     1      -0.515   0.345  24.436  0.00  0.00    -0.265 NA
ENDROOT
BRANCH  17  20
ATOM     20  N   UNL     1      -0.823   2.362  25.064  0.00  0.00    -0.187 NA
ATOM     21  C   UNL     1      -0.458   2.640  25.750  0.00  0.00    +0.344 C 
ATOM     22  O   UNL     1       0.144   2.200  26.104  0.00  0.00    -0.249 OA
ATOM     23  N   UNL     1      -0.695   3.357  26.081  0.00  0.00    -0.160 NA
BRANCH  23  24
ATOM     24  C   UNL     1      -1.297   3.797  25.728  0.00  0.00    +0.082 A 
ATOM     25  C   UNL     1      -2.104   3.723  25.881  0.00  0.00    +0.052 A 
ATOM     26  S   UNL     1      -2.503   4.268  25.407  0.00  0.00    -0.085 S 
ATOM     27  C   UNL     1      -1.943   4.677  24.962  0.00  0.00    +0.037 A 
ATOM     28  C   UNL     1      -1.197   4.386  25.160  0.00  0.00    +0.024 A 
ENDBRANCH  23  24
ENDBRANCH  17  20
BRANCH  10   9
ATOM      9  C   UNL     1      -1.190  -0.864  24.793  0.00  0.00    +0.027 C 
BRANCH   9   8
ATOM      8  C   UNL     1      -1.806  -1.245  24.397  0.00  0.00    +0.087 C 
BRANCH   8   6
ATOM      3  N   UNL     1      -3.041  -1.938  24.582  0.00  0.00    -0.280 N 
ATOM      6  C   UNL     1      -2.249  -1.822  24.784  0.00  0.00    +0.226 C 
ATOM      7  O   UNL     1      -1.903  -2.284  25.374  0.00  0.00    -0.275 OA
BRANCH   3   2
ATOM      1  C   UNL     1      -3.714  -3.199  24.567  0.00  0.00    +0.023 C 
ATOM      2  C   UNL     1      -3.486  -2.516  24.969  0.00  0.00    +0.093 C 
ENDBRANCH   3   2
BRANCH   3   4
ATOM      4  C   UNL     1      -3.388  -1.477  23.993  0.00  0.00    +0.093 C 
ATOM      5  C   UNL     1      -4.182  -1.258  24.056  0.00  0.00    +0.023 C 
ENDBRANCH   3   4
ENDBRANCH   8   6
ENDBRANCH   9   8
ENDBRANCH  10   9
TORSDOF 7
ENDMDL
MODEL 5
REMARK VINA RESULT:      -8.4     16.205     19.082
REMARK  Name = 
REMARK  7 active torsions:
REMARK  status: ('A' for Active; 'I' for Inactive)
REMARK    1  A    between atoms: C_2  and  N_3
REMARK    2  A    between atoms: N_3  and  C_4
REMARK    3  A    between atoms: C_6  and  C_8
REMARK    4  A    between atoms: C_8  and  C_9
REMARK    5  A    between atoms: C_9  and  C_10
REMARK    6  A    between atoms: C_17  and  N_20
REMARK    7  A    between atoms: N_23  and  C_24
REMARK                            x       y       z     vdW  Elec       q    Type
REMARK                         _______ _______ _______ _____ _____    ______ ____
ROOT
ATOM     10  C   UNL     1      14.157   7.690  18.688  0.00  0.00    +0.080 C 
ATOM     11  C   UNL     1      14.195   7.604  17.869  0.00  0.00    +0.131 C 
ATOM     12  N   UNL     1      13.501   7.512  17.433  0.00  0.00    -0.203 NA
ATOM     13  C   UNL     1      12.770   7.506  17.815  0.00  0.00    +0.256 C 
ATOM     14  O   UNL     1      12.076   7.413  17.378  0.00  0.00    -0.272 OA
ATOM     15  C   UNL     1      12.733   7.592  18.634  0.00  0.00    +0.138 C 
ATOM     16  C   UNL     1      12.097   7.607  19.160  0.00  0.00    +0.049 C 
ATOM     17  C   UNL     1      12.398   7.709  19.921  0.00  0.00    +0.115 C 
ATOM     18  C   UNL     1      13.219   7.756  19.867  0.00  0.00    +0.094 C 
ATOM     19  N   UNL     1      13.426   7.684  19.071  0.00  0.00    -0.265 NA
ENDROOT
BRANCH  17  20
ATOM     20  N   UNL     1      11.954   7.755  20.616  0.00  0.00    -0.187 NA
ATOM     21  C   UNL     1      11.633   7.071  20.946  0.00  0.00    +0.344 C 
ATOM     22  O   UNL     1      11.755   6.340  20.582  0.00  0.00    -0.249 OA
ATOM     23  N   UNL     1      11.190   7.117  21.640  0.00  0.00    -0.160 NA
BRANCH  23  24
ATOM     24  C   UNL     1      11.068   7.847  22.004  0.00  0.00    +0.082 A 
ATOM     25  C   UNL     1      10.358   8.268  22.019  0.00  0.00    +0.052 A 
ATOM     26  S   UNL     1      10.484   8.966  22.441  0.00  0.00    -0.085 S 
ATOM     27  C   UNL     1      11.271   8.975  22.687  0.00  0.00    +0.037 A 
ATOM     28  C   UNL     1      11.631   8.284  22.417  0.00  0.00    +0.024 A 
ENDBRANCH  23  24
ENDBRANCH  17  20
BRANCH  10   9
ATOM      9  C   UNL     1      14.851   7.783  19.126  0.00  0.00    +0.027 C 
BRANCH   9   8
ATOM      8  C   UNL     1      15.472   7.247  19.033  0.00  0.00    +0.087 C 
BRANCH   8   6
ATOM      3  N   UNL     1      16.694   6.693  19.521  0.00  0.00    -0.280 N 
ATOM      6  C   UNL     1      16.141   7.305  19.511  0.00  0.00    +0.226 C 
ATOM      7  O   UNL     1      16.257   7.974  19.980  0.00  0.00    -0.275 OA
BRANCH   3   2
ATOM      1  C   UNL     1      17.401   6.331  20.710  0.00  0.00    +0.023 C 
ATOM      2  C   UNL     1      17.364   6.750  20.000  0.00  0.00    +0.093 C 
ENDBRANCH   3   2
BRANCH   3   4
ATOM      4  C   UNL     1      16.579   6.024  19.053  0.00  0.00    +0.093 C 
ATOM      5  C   UNL     1      17.229   5.622  18.740  0.00  0.00    +0.023 C 
ENDBRANCH   3   4
ENDBRANCH   8   6
ENDBRANCH   9   8
ENDBRANCH  10   9
TORSDOF 7
ENDMDL
MODEL 6
REMARK VINA RESULT:      -8.3      2.428      3.952
REMARK  Name = 
REMARK  7 active torsions:
REMARK  status: ('A' for Active; 'I' for Inactive)
REMARK    1  A    between atoms: C_2  and  N_3
REMARK    2  A    between atoms: N_3  and  C_4
REMARK    3  A    between atoms: C_6  and  C_8
REMARK    4  A    between atoms: C_8  and  C_9
REMARK    5  A    between atoms: C_9  and  C_10
REMARK    6  A    between atoms: C_17  and  N_20
REMARK    7  A    between atoms: N_23  and  C_24
REMARK                            x       y       z     vdW  Elec       q    Type
REMARK                         _______ _______ _______ _____ _____    ______ ____
ROOT
ATOM     10  C   UNL     1      -0.879   2.189  25.440  0.00  0.00    +0.080 C 
ATOM     11  C   UNL     1      -0.196   2.651  25.467  0.00  0.00    +0.131 C 
ATOM     12  N   UNL     1      -0.250   3.470  25.383  0.00  0.00    -0.203 NA
ATOM     13  C   UNL     1      -0.985   3.826  25.272  0.00  0.00    +0.256 C 
ATOM     14  O   UNL     1      -1.038   4.646  25.188  0.00  0.00    -0.272 OA
ATOM     15  C   UNL     1      -1.667   3.364  25.245  0.00  0.00    +0.138 C 
ATOM     16  C   UNL     1      -2.463   3.559  25.144  0.00  0.00    +0.049 C 
ATOM     17  C   UNL     1      -2.901   2.861  25.165  0.00  0.00    +0.115 C 
ATOM     18  C   UNL     1      -2.378   2.234  25.280  0.00  0.00    +0.094 C 
ATOM     19  N   UNL     1      -1.615   2.546  25.329  0.00  0.00    -0.265 NA
ENDROOT
BRANCH  17  20
ATOM     20  N   UNL     1      -3.721   2.799  25.086  0.00  0.00    -0.187 NA
ATOM     21  C   UNL     1      -4.073   2.915  24.349  0.00  0.00    +0.344 C 
ATOM     22  O   UNL     1      -3.607   3.091  23.692  0.00  0.00    -0.249 OA
ATOM     23  N   UNL     1      -4.892   2.853  24.270  0.00  0.00    -0.160 NA
BRANCH  23  24
ATOM     24  C   UNL     1      -5.358   2.677  24.927  0.00  0.00    +0.082 A 
ATOM     25  C   UNL     1      -5.669   1.936  25.116  0.00  0.00    +0.052 A 
ATOM     26  S   UNL     1      -6.099   2.011  25.816  0.00  0.00    -0.085 S 
ATOM     27  C   UNL     1      -6.054   2.797  26.060  0.00  0.00    +0.037 A 
ATOM     28  C   UNL     1      -5.596   3.209  25.510  0.00  0.00    +0.024 A 
ENDBRANCH  23  24
ENDBRANCH  17  20
BRANCH  10   9
ATOM      9  C   UNL     1      -0.826   1.369  25.524  0.00  0.00    +0.027 C 
BRANCH   9   8
ATOM      8  C   UNL     1      -0.448   0.919  24.945  0.00  0.00    +0.087 C 
BRANCH   8   6
ATOM      3  N   UNL     1      -0.249  -0.355  24.331  0.00  0.00    -0.280 N 
ATOM      6  C   UNL     1      -0.467   0.096  24.986  0.00  0.00    +0.226 C 
ATOM      7  O   UNL     1      -0.703  -0.278  25.683  0.00  0.00    -0.275 OA
BRANCH   3   2
ATOM      1  C   UNL     1      -0.926  -1.592  24.095  0.00  0.00    +0.023 C 
ATOM      2  C   UNL     1      -0.267  -1.179  24.372  0.00  0.00    +0.093 C 
ENDBRANCH   3   2
BRANCH   3   4
ATOM      4  C   UNL     1      -0.012   0.018  23.634  0.00  0.00    +0.093 C 
ATOM      5  C   UNL     1       0.633  -0.274  23.209  0.00  0.00    +0.023 C 
ENDBRANCH   3   4
ENDBRANCH   8   6
ENDBRANCH   9   8
ENDBRANCH  10   9
TORSDOF 7
ENDMDL
MODEL 7
REMARK VINA RESULT:      -8.3      2.403      4.902
REMARK  Name = 
REMARK  7 active torsions:
REMARK  status: ('A' for Active; 'I' for Inactive)
REMARK    1  A    between atoms: C_2  and  N_3
REMARK    2  A    between atoms: N_3  and  C_4
REMARK    3  A    between atoms: C_6  and  C_8
REMARK    4  A    between atoms: C_8  and  C_9
REMARK    5  A    between atoms: C_9  and  C_10
REMARK    6  A    between atoms: C_17  and  N_20
REMARK    7  A    between atoms: N_23  and  C_24
REMARK                            x       y       z     vdW  Elec       q    Type
REMARK                         _______ _______ _______ _____ _____    ______ ____
ROOT
ATOM     10  C   UNL     1      -2.149   2.955  24.869  0.00  0.00    +0.080 C 
ATOM     11  C   UNL     1      -1.923   3.674  25.205  0.00  0.00    +0.131 C 
ATOM     12  N   UNL     1      -1.208   3.731  25.612  0.00  0.00    -0.203 NA
ATOM     13  C   UNL     1      -0.719   3.070  25.682  0.00  0.00    +0.256 C 
ATOM     14  O   UNL     1      -0.003   3.129  26.089  0.00  0.00    -0.272 OA
ATOM     15  C   UNL     1      -0.945   2.352  25.346  0.00  0.00    +0.138 C 
ATOM     16  C   UNL     1      -0.580   1.613  25.325  0.00  0.00    +0.049 C 
ATOM     17  C   UNL     1      -1.070   1.098  24.906  0.00  0.00    +0.115 C 
ATOM     18  C   UNL     1      -1.738   1.519  24.667  0.00  0.00    +0.094 C 
ATOM     19  N   UNL     1      -1.660   2.294  24.940  0.00  0.00    -0.265 NA
ENDROOT
BRANCH  17  20
ATOM     20  N   UNL     1      -0.919   0.301  24.752  0.00  0.00    -0.187 NA
ATOM     21  C   UNL     1      -0.341   0.090  24.202  0.00  0.00    +0.344 C 
ATOM     22  O   UNL     1       0.085   0.675  23.806  0.00  0.00    -0.249 OA
ATOM     23  N   UNL     1      -0.190  -0.706  24.049  0.00  0.00    -0.160 NA
BRANCH  23  24
ATOM     24  C   UNL     1      -0.616  -1.291  24.445  0.00  0.00    +0.082 A 
ATOM     25  C   UNL     1      -1.303  -1.659  24.172  0.00  0.00    +0.052 A 
ATOM     26  S   UNL     1      -1.542  -2.206  24.741  0.00  0.00    -0.085 S 
ATOM     27  C   UNL     1      -1.003  -2.177  25.365  0.00  0.00    +0.037 A 
ATOM     28  C   UNL     1      -0.431  -1.612  25.182  0.00  0.00    +0.024 A 
ENDBRANCH  23  24
ENDBRANCH  17  20
BRANCH  10   9
ATOM      9  C   UNL     1      -2.865   2.898  24.463  0.00  0.00    +0.027 C 
BRANCH   9   8
ATOM      8  C   UNL     1      -3.574   3.066  24.850  0.00  0.00    +0.087 C 
BRANCH   8   6
ATOM      3  N   UNL     1      -4.960   2.745  24.983  0.00  0.00    -0.280 N 
ATOM      6  C   UNL     1      -4.292   2.845  24.509  0.00  0.00    +0.226 C 
ATOM      7  O   UNL     1      -4.343   2.724  23.695  0.00  0.00    -0.275 OA
BRANCH   3   2
ATOM      1  C   UNL     1      -6.061   1.838  24.896  0.00  0.00    +0.023 C 
ATOM      2  C   UNL     1      -5.679   2.523  24.643  0.00  0.00    +0.093 C 
ENDBRANCH   3   2
BRANCH   3   4
ATOM      4  C   UNL     1      -4.910   2.865  25.798  0.00  0.00    +0.093 C 
ATOM      5  C   UNL     1      -5.514   3.266  26.193  0.00  0.00    +0.023 C 
ENDBRANCH   3   4
ENDBRANCH   8   6
ENDBRANCH   9   8
ENDBRANCH  10   9
TORSDOF 7
ENDMDL
