MODEL 1
REMARK VINA RESULT:     -11.6      0.000      0.000
REMARK  Name = 
REMARK  6 active torsions:
REMARK  status: ('A' for Active; 'I' for Inactive)
REMARK    1  A    between atoms: N_2  and  C_4
REMARK    2  A    between atoms: C_7  and  C_10
REMARK    3  A    between atoms: C_13  and  C_15
REMARK    4  A    between atoms: N_18  and  C_19
REMARK    5  A    between atoms: C_19  and  C_20
REMARK    6  A    between atoms: C_23  and  C_26
REMARK                            x       y       z     vdW  Elec       q    Type
REMARK                         _______ _______ _______ _____ _____    ______ ____
ROOT
ATOM     15  C   UNL     1      -4.588   2.457  25.330  0.00  0.00    +0.096 C 
ATOM     16  C   UNL     1      -5.095   3.090  25.178  0.00  0.00    +0.028 C 
ATOM     17  C   UNL     1      -4.738   3.777  25.466  0.00  0.00    +0.073 C 
ATOM     18  N   UNL     1      -4.012   3.568  25.795  0.00  0.00    -0.268 NA
ATOM     29  C   UNL     1      -3.919   2.752  25.711  0.00  0.00    +0.082 C 
ENDROOT
BRANCH  15  13
ATOM     10  C   UNL     1      -4.539   0.370  24.885  0.00  0.00    +0.250 A 
ATOM     11  N   UNL     1      -5.340   0.535  24.785  0.00  0.00    -0.107 NA
ATOM     12  N   UNL     1      -5.458   1.337  24.940  0.00  0.00    -0.111 NA
ATOM     13  C   UNL     1      -4.727   1.667  25.135  0.00  0.00    +0.227 A 
ATOM     14  O   UNL     1      -4.160   1.069  25.101  0.00  0.00    -0.419 OA
BRANCH  10   7
ATOM      4  C   UNL     1      -3.461  -1.838  24.587  0.00  0.00    +0.048 A 
ATOM      5  C   UNL     1      -3.839  -1.474  23.950  0.00  0.00    +0.015 A 
ATOM      6  C   UNL     1      -4.199  -0.738  24.049  0.00  0.00    +0.006 A 
ATOM      7  C   UNL     1      -4.179  -0.366  24.786  0.00  0.00    +0.055 A 
ATOM      8  C   UNL     1      -3.802  -0.730  25.422  0.00  0.00    +0.006 A 
ATOM      9  C   UNL     1      -3.442  -1.466  25.323  0.00  0.00    +0.015 A 
BRANCH   4   2
ATOM      1  C   UNL     1      -2.280  -2.631  24.456  0.00  0.00    +0.112 C 
ATOM      2  N   UNL     1      -3.101  -2.574  24.488  0.00  0.00    -0.304 N 
ATOM      3  C   UNL     1      -3.565  -3.254  24.422  0.00  0.00    +0.112 C 
ENDBRANCH   4   2
ENDBRANCH  10   7
ENDBRANCH  15  13
BRANCH  18  19
ATOM     19  C   UNL     1      -3.472   4.084  26.146  0.00  0.00    +0.099 C 
BRANCH  19  20
ATOM     20  C   UNL     1      -2.742   4.224  25.788  0.00  0.00    -0.006 A 
ATOM     21  C   UNL     1      -2.099   3.735  25.955  0.00  0.00    -0.003 A 
ATOM     22  C   UNL     1      -1.369   3.875  25.597  0.00  0.00    +0.006 A 
ATOM     23  C   UNL     1      -1.283   4.505  25.071  0.00  0.00    +0.080 A 
ATOM     24  C   UNL     1      -1.925   4.994  24.903  0.00  0.00    +0.006 A 
ATOM     25  C   UNL     1      -2.656   4.854  25.261  0.00  0.00    -0.003 A 
BRANCH  23  26
ATOM     26  C   UNL     1      -0.553   4.645  24.713  0.00  0.00    +0.388 C 
ATOM     27  O   UNL     1      -0.231   5.405  24.716  0.00  0.00    -0.241 OA
ATOM     28  O   UNL     1      -0.145   4.027  24.350  0.00  0.00    -0.241 OA
ENDBRANCH  23  26
ENDBRANCH  19  20
ENDBRANCH  18  19
TORSDOF 6
ENDMDL
MODEL 2
REMARK VINA RESULT:     -10.4      1.968      3.101
REMARK  Name = 
REMARK  6 active torsions:
REMARK  status: ('A' for Active; 'I' for Inactive)
REMARK    1  A    between atoms: N_2  and  C_4
REMARK    2  A    between atoms: C_7  and  C_10
REMARK    3  A    between atoms: C_13  and  C_15
REMARK    4  A    between atoms: N_18  and  C_19
REMARK    5  A    between atoms: C_19  and  C_20
REMARK    6  A    between atoms: C_23  and  C_26
REMARK                            x       y       z     vdW  Elec       q    Type
REMARK                         _______ _______ _______ _____ _____    ______ ____
ROOT
ATOM     15  C   UNL     1      -1.176   1.949  25.351  0.00  0.00    +0.096 C 
ATOM     16  C   UNL     1      -0.572   2.382  25.710  0.00  0.00    +0.028 C 
ATOM     17  C   UNL     1      -0.814   3.170  25.752  0.00  0.00    +0.073 C 
ATOM     18  N   UNL     1      -1.567   3.223  25.420  0.00  0.00    -0.268 NA
ATOM     29  C   UNL     1      -1.791   2.469  25.172  0.00  0.00    +0.082 C 
ENDROOT
BRANCH  15  13
ATOM     10  C   UNL     1      -1.565  -0.114  24.962  0.00  0.00    +0.250 A 
ATOM     11  N   UNL     1      -0.740  -0.105  24.965  0.00  0.00    -0.107 NA
ATOM     12  N   UNL     1      -0.494   0.669  25.111  0.00  0.00    -0.111 NA
ATOM     13  C   UNL     1      -1.167   1.138  25.198  0.00  0.00    +0.227 A 
ATOM     14  O   UNL     1      -1.829   0.654  25.107  0.00  0.00    -0.419 OA
BRANCH  10   7
ATOM      4  C   UNL     1      -2.997  -2.098  24.587  0.00  0.00    +0.048 A 
ATOM      5  C   UNL     1      -3.340  -1.370  24.773  0.00  0.00    +0.015 A 
ATOM      6  C   UNL     1      -2.863  -0.709  24.898  0.00  0.00    +0.006 A 
ATOM      7  C   UNL     1      -2.042  -0.775  24.837  0.00  0.00    +0.055 A 
ATOM      8  C   UNL     1      -1.700  -1.502  24.652  0.00  0.00    +0.006 A 
ATOM      9  C   UNL     1      -2.177  -2.163  24.527  0.00  0.00    +0.015 A 
BRANCH   4   2
ATOM      1  C   UNL     1      -3.406  -3.415  24.957  0.00  0.00    +0.112 C 
ATOM      2  N   UNL     1      -3.474  -2.759  24.462  0.00  0.00    -0.304 N 
ATOM      3  C   UNL     1      -4.019  -2.763  23.843  0.00  0.00    +0.112 C 
ENDBRANCH   4   2
ENDBRANCH  10   7
ENDBRANCH  15  13
BRANCH  18  19
ATOM     19  C   UNL     1      -2.018   3.911  25.348  0.00  0.00    +0.099 C 
BRANCH  19  20
ATOM     20  C   UNL     1      -2.840   3.873  25.400  0.00  0.00    -0.006 A 
ATOM     21  C   UNL     1      -3.210   3.917  26.137  0.00  0.00    -0.003 A 
ATOM     22  C   UNL     1      -4.032   3.879  26.189  0.00  0.00    +0.006 A 
ATOM     23  C   UNL     1      -4.485   3.796  25.504  0.00  0.00    +0.080 A 
ATOM     24  C   UNL     1      -4.116   3.752  24.768  0.00  0.00    +0.006 A 
ATOM     25  C   UNL     1      -3.293   3.790  24.715  0.00  0.00    -0.003 A 
BRANCH  23  26
ATOM     26  C   UNL     1      -5.307   3.758  25.557  0.00  0.00    +0.388 C 
ATOM     27  O   UNL     1      -5.692   3.032  25.482  0.00  0.00    -0.241 OA
ATOM     28  O   UNL     1      -5.746   4.445  25.684  0.00  0.00    -0.241 OA
ENDBRANCH  23  26
ENDBRANCH  19  20
ENDBRANCH  18  19
TORSDOF 6
ENDMDL
MODEL 3
REMARK VINA RESULT:      -9.9      2.212      3.804
REMARK  Name = 
REMARK  6 active torsions:
REMARK  status: ('A' for Active; 'I' for Inactive)
REMARK    1  A    between atoms: N_2  and  C_4
REMARK    2  A    between atoms: C_7  and  C_10
REMARK    3  A    between atoms: C_13  and  C_15
REMARK    4  A    between atoms: N_18  and  C_19
REMARK    5  A    between atoms: C_19  and  C_20
REMARK    6  A    between atoms: C_23  and  C_26
REMARK                            x       y       z     vdW  Elec       q    Type
REMARK                         _______ _______ _______ _____ _____    ______ ____
ROOT
ATOM     15  C   UNL     1      -1.741   3.154  25.176  0.00  0.00    +0.096 C 
ATOM     16  C   UNL     1      -1.546   3.924  25.400  0.00  0.00    +0.028 C 
ATOM     17  C   UNL     1      -2.217   4.395  25.307  0.00  0.00    +0.073 C 
ATOM     18  N   UNL     1      -2.827   3.916  25.025  0.00  0.00    -0.268 NA
ATOM     29  C   UNL     1      -2.533   3.149  24.944  0.00  0.00    +0.082 C 
ENDROOT
BRANCH  15  13
ATOM     10  C   UNL     1      -0.777   1.249  25.152  0.00  0.00    +0.250 A 
ATOM     11  N   UNL     1      -0.131   1.754  25.233  0.00  0.00    -0.107 NA
ATOM     12  N   UNL     1      -0.412   2.530  25.252  0.00  0.00    -0.111 NA
ATOM     13  C   UNL     1      -1.234   2.503  25.182  0.00  0.00    +0.227 A 
ATOM     14  O   UNL     1      -1.459   1.712  25.120  0.00  0.00    -0.419 OA
BRANCH  10   7
ATOM      4  C   UNL     1      -0.687  -1.221  25.024  0.00  0.00    +0.048 A 
ATOM      5  C   UNL     1      -1.031  -0.853  25.679  0.00  0.00    +0.015 A 
ATOM      6  C   UNL     1      -1.061  -0.030  25.722  0.00  0.00    +0.006 A 
ATOM      7  C   UNL     1      -0.747   0.426  25.109  0.00  0.00    +0.055 A 
ATOM      8  C   UNL     1      -0.404   0.059  24.455  0.00  0.00    +0.006 A 
ATOM      9  C   UNL     1      -0.374  -0.764  24.413  0.00  0.00    +0.015 A 
BRANCH   4   2
ATOM      1  C   UNL     1      -0.044  -2.454  25.350  0.00  0.00    +0.112 C 
ATOM      2  N   UNL     1      -0.657  -2.044  24.982  0.00  0.00    -0.304 N 
ATOM      3  C   UNL     1      -1.242  -2.457  24.570  0.00  0.00    +0.112 C 
ENDBRANCH   4   2
ENDBRANCH  10   7
ENDBRANCH  15  13
BRANCH  18  19
ATOM     19  C   UNL     1      -3.596   4.161  24.854  0.00  0.00    +0.099 C 
BRANCH  19  20
ATOM     20  C   UNL     1      -4.231   3.653  24.992  0.00  0.00    -0.006 A 
ATOM     21  C   UNL     1      -4.627   3.674  25.716  0.00  0.00    -0.003 A 
ATOM     22  C   UNL     1      -5.262   3.165  25.854  0.00  0.00    +0.006 A 
ATOM     23  C   UNL     1      -5.501   2.637  25.268  0.00  0.00    +0.080 A 
ATOM     24  C   UNL     1      -5.107   2.616  24.544  0.00  0.00    +0.006 A 
ATOM     25  C   UNL     1      -4.471   3.124  24.406  0.00  0.00    -0.003 A 
BRANCH  23  26
ATOM     26  C   UNL     1      -6.136   2.129  25.406  0.00  0.00    +0.388 C 
ATOM     27  O   UNL     1      -6.303   1.875  26.173  0.00  0.00    -0.241 OA
ATOM     28  O   UNL     1      -6.605   1.874  24.777  0.00  0.00    -0.241 OA
ENDBRANCH  23  26
ENDBRANCH  19  20
ENDBRANCH  18  19
TORSDOF 6
ENDMDL
MODEL 4
REMARK VINA RESULT:      -9.8      2.434      6.499
REMARK  Name = 
REMARK  6 active torsions:
REMARK  status: ('A' for Active; 'I' for Inactive)
REMARK    1  A    between atoms: N_2  and  C_4
REMARK    2  A    between atoms: C_7  and  C_10
REMARK    3  A    between atoms: C_13  and  C_15
REMARK    4  A    between atoms: N_18  and  C_19
REMARK    5  A    between atoms: C_19  and  C_20
REMARK    6  A    between atoms: C_23  and  C_26
REMARK                            x       y       z     vdW  Elec       q    Type
REMARK                         _______ _______ _______ _____ _____    ______ ____
ROOT
ATOM     15  C   UNL     1      -0.281   0.009  24.530  0.00  0.00    +0.096 C 
ATOM     16  C   UNL     1       0.117  -0.561  24.084  0.00  0.00    +0.028 C 
ATOM     17  C   UNL     1      -0.199  -1.299  24.275  0.00  0.00    +0.073 C 
ATOM     18  N   UNL     1      -0.791  -1.186  24.837  0.00  0.00    -0.268 NA
ATOM     29  C   UNL     1      -0.842  -0.378  24.995  0.00  0.00    +0.082 C 
ENDROOT
BRANCH  15  13
ATOM     10  C   UNL     1      -0.309   2.141  24.629  0.00  0.00    +0.250 A 
ATOM     11  N   UNL     1       0.453   2.004  24.345  0.00  0.00    -0.107 NA
ATOM     12  N   UNL     1       0.557   1.189  24.273  0.00  0.00    -0.111 NA
ATOM     13  C   UNL     1      -0.142   0.822  24.513  0.00  0.00    +0.227 A 
ATOM     14  O   UNL     1      -0.677   1.410  24.733  0.00  0.00    -0.419 OA
BRANCH  10   7
ATOM      4  C   UNL     1      -1.316   4.355  25.089  0.00  0.00    +0.048 A 
ATOM      5  C   UNL     1      -1.404   3.740  25.633  0.00  0.00    +0.015 A 
ATOM      6  C   UNL     1      -1.069   3.002  25.480  0.00  0.00    +0.006 A 
ATOM      7  C   UNL     1      -0.645   2.879  24.782  0.00  0.00    +0.055 A 
ATOM      8  C   UNL     1      -0.557   3.492  24.239  0.00  0.00    +0.006 A 
ATOM      9  C   UNL     1      -0.893   4.230  24.392  0.00  0.00    +0.015 A 
BRANCH   4   2
ATOM      1  C   UNL     1      -1.268   5.779  24.997  0.00  0.00    +0.112 C 
ATOM      2  N   UNL     1      -1.652   5.092  25.243  0.00  0.00    -0.304 N 
ATOM      3  C   UNL     1      -2.372   5.142  25.642  0.00  0.00    +0.112 C 
ENDBRANCH   4   2
ENDBRANCH  10   7
ENDBRANCH  15  13
BRANCH  18  19
ATOM     19  C   UNL     1      -1.252  -1.778  25.182  0.00  0.00    +0.099 C 
BRANCH  19  20
ATOM     20  C   UNL     1      -2.005  -1.938  24.887  0.00  0.00    -0.006 A 
ATOM     21  C   UNL     1      -2.657  -1.515  25.166  0.00  0.00    -0.003 A 
ATOM     22  C   UNL     1      -3.410  -1.676  24.870  0.00  0.00    +0.006 A 
ATOM     23  C   UNL     1      -3.512  -2.260  24.296  0.00  0.00    +0.080 A 
ATOM     24  C   UNL     1      -2.861  -2.682  24.017  0.00  0.00    +0.006 A 
ATOM     25  C   UNL     1      -2.107  -2.522  24.313  0.00  0.00    -0.003 A 
BRANCH  23  26
ATOM     26  C   UNL     1      -4.265  -2.420  24.001  0.00  0.00    +0.388 C 
ATOM     27  O   UNL     1      -4.496  -3.200  23.861  0.00  0.00    -0.241 OA
ATOM     28  O   UNL     1      -4.788  -1.802  23.845  0.00  0.00    -0.241 OA
ENDBRANCH  23  26
ENDBRANCH  19  20
ENDBRANCH  18  19
TORSDOF 6
ENDMDL
MODEL 5
REMARK VINA RESULT:      -9.7      2.926      4.433
REMARK  Name = 
REMARK  6 active torsions:
REMARK  status: ('A' for Active; 'I' for Inactive)
REMARK    1  A    between atoms: N_2  and  C_4
REMARK    2  A    between atoms: C_7  and  C_10
REMARK    3  A    between atoms: C_13  and  C_15
REMARK    4  A    between atoms: N_18  and  C_19
REMARK    5  A    between atoms: C_19  and  C_20
REMARK    6  A    between atoms: C_23  and  C_26
REMARK                            x       y       z     vdW  Elec       q    Type
REMARK                         _______ _______ _______ _____ _____    ______ ____
ROOT
ATOM     15  C   UNL     1      -2.952  -0.239  25.100  0.00  0.00    +0.096 C 
ATOM     16  C   UNL     1      -3.458  -0.706  25.556  0.00  0.00    +0.028 C 
ATOM     17  C   UNL     1      -4.230  -0.442  25.430  0.00  0.00    +0.073 C 
ATOM     18  N   UNL     1      -4.201   0.187  24.897  0.00  0.00    -0.268 NA
ATOM     29  C   UNL     1      -3.411   0.313  24.693  0.00  0.00    +0.082 C 
ENDROOT
BRANCH  15  13
ATOM     10  C   UNL     1      -0.876  -0.292  24.603  0.00  0.00    +0.250 A 
ATOM     11  N   UNL     1      -0.860  -0.553  25.386  0.00  0.00    -0.107 NA
ATOM     12  N   UNL     1      -1.636  -0.565  25.668  0.00  0.00    -0.111 NA
ATOM     13  C   UNL     1      -2.131  -0.311  25.059  0.00  0.00    +0.227 A 
ATOM     14  O   UNL     1      -1.662  -0.143  24.401  0.00  0.00    -0.419 OA
BRANCH  10   7
ATOM      4  C   UNL     1       1.086  -0.009  23.123  0.00  0.00    +0.048 A 
ATOM      5  C   UNL     1       0.698   0.654  23.425  0.00  0.00    +0.015 A 
ATOM      6  C   UNL     1       0.043   0.560  23.919  0.00  0.00    +0.006 A 
ATOM      7  C   UNL     1      -0.222  -0.198  24.110  0.00  0.00    +0.055 A 
ATOM      8  C   UNL     1       0.166  -0.860  23.808  0.00  0.00    +0.006 A 
ATOM      9  C   UNL     1       0.820  -0.765  23.315  0.00  0.00    +0.015 A 
BRANCH   4   2
ATOM      1  C   UNL     1       2.413   0.476  22.906  0.00  0.00    +0.112 C 
ATOM      2  N   UNL     1       1.741   0.086  22.629  0.00  0.00    -0.304 N 
ATOM      3  C   UNL     1       1.722  -0.210  21.859  0.00  0.00    +0.112 C 
ENDBRANCH   4   2
ENDBRANCH  10   7
ENDBRANCH  15  13
BRANCH  18  19
ATOM     19  C   UNL     1      -4.848   0.616  24.618  0.00  0.00    +0.099 C 
BRANCH  19  20
ATOM     20  C   UNL     1      -4.960   1.397  24.857  0.00  0.00    -0.006 A 
ATOM     21  C   UNL     1      -5.412   1.563  25.527  0.00  0.00    -0.003 A 
ATOM     22  C   UNL     1      -5.523   2.345  25.766  0.00  0.00    +0.006 A 
ATOM     23  C   UNL     1      -5.183   2.960  25.334  0.00  0.00    +0.080 A 
ATOM     24  C   UNL     1      -4.732   2.795  24.665  0.00  0.00    +0.006 A 
ATOM     25  C   UNL     1      -4.620   2.013  24.425  0.00  0.00    -0.003 A 
BRANCH  23  26
ATOM     26  C   UNL     1      -5.295   3.742  25.573  0.00  0.00    +0.388 C 
ATOM     27  O   UNL     1      -6.058   4.032  25.694  0.00  0.00    -0.241 OA
ATOM     28  O   UNL     1      -4.644   4.235  25.692  0.00  0.00    -0.241 OA
ENDBRANCH  23  26
ENDBRANCH  19  20
ENDBRANCH  18  19
TORSDOF 6
ENDMDL
MODEL 6
REMARK VINA RESULT:      -9.5      2.248      5.828
REMARK  Name = 
REMARK  6 active torsions:
REMARK  status: ('A' for Active; 'I' for Inactive)
REMARK    1  A    between atoms: N_2  and  C_4
REMARK    2  A    between atoms: C_7  and  C_10
REMARK    3  A    between atoms: C_13  and  C_15
REMARK    4  A    between atoms: N_18  and  C_19
REMARK    5  A    between atoms: C_19  and  C_20
REMARK    6  A    between atoms: C_23  and  C_26
REMARK                            x       y       z     vdW  Elec       q    Type
REMARK                         _______ _______ _______ _____ _____    ______ ____
ROOT
ATOM     15  C   UNL     1      -0.977   1.041  24.432  0.00  0.00    +0.096 C 
ATOM     16  C   UNL     1      -0.293   0.928  23.983  0.00  0.00    +0.028 C 
ATOM     17  C   UNL     1      -0.058   0.142  24.070  0.00  0.00    +0.073 C 
ATOM     18  N   UNL     1      -0.595  -0.231  24.573  0.00  0.00    -0.268 NA
ATOM     29  C   UNL     1      -1.163   0.325  24.797  0.00  0.00    +0.082 C 
ENDROOT
BRANCH  15  13
ATOM     10  C   UNL     1      -2.385   2.618  24.725  0.00  0.00    +0.250 A 
ATOM     11  N   UNL     1      -1.714   3.042  24.504  0.00  0.00    -0.107 NA
ATOM     12  N   UNL     1      -1.104   2.504  24.367  0.00  0.00    -0.111 NA
ATOM     13  C   UNL     1      -1.399   1.746  24.504  0.00  0.00    +0.227 A 
ATOM     14  O   UNL     1      -2.191   1.816  24.725  0.00  0.00    -0.419 OA
BRANCH  10   7
ATOM      4  C   UNL     1      -4.595   3.579  25.288  0.00  0.00    +0.048 A 
ATOM      5  C   UNL     1      -3.935   3.763  25.749  0.00  0.00    +0.015 A 
ATOM      6  C   UNL     1      -3.198   3.443  25.561  0.00  0.00    +0.006 A 
ATOM      7  C   UNL     1      -3.122   2.938  24.913  0.00  0.00    +0.055 A 
ATOM      8  C   UNL     1      -3.781   2.754  24.453  0.00  0.00    +0.006 A 
ATOM      9  C   UNL     1      -4.517   3.075  24.640  0.00  0.00    +0.015 A 
BRANCH   4   2
ATOM      1  C   UNL     1      -5.454   4.713  25.418  0.00  0.00    +0.112 C 
ATOM      2  N   UNL     1      -5.332   3.900  25.476  0.00  0.00    -0.304 N 
ATOM      3  C   UNL     1      -5.945   3.406  25.722  0.00  0.00    +0.112 C 
ENDBRANCH   4   2
ENDBRANCH  10   7
ENDBRANCH  15  13
BRANCH  18  19
ATOM     19  C   UNL     1      -0.568  -1.020  24.811  0.00  0.00    +0.099 C 
BRANCH  19  20
ATOM     20  C   UNL     1      -1.253  -1.481  24.790  0.00  0.00    -0.006 A 
ATOM     21  C   UNL     1      -1.383  -1.997  24.160  0.00  0.00    -0.003 A 
ATOM     22  C   UNL     1      -2.067  -2.458  24.138  0.00  0.00    +0.006 A 
ATOM     23  C   UNL     1      -2.622  -2.401  24.747  0.00  0.00    +0.080 A 
ATOM     24  C   UNL     1      -2.492  -1.885  25.377  0.00  0.00    +0.006 A 
ATOM     25  C   UNL     1      -1.807  -1.424  25.399  0.00  0.00    -0.003 A 
BRANCH  23  26
ATOM     26  C   UNL     1      -3.306  -2.861  24.726  0.00  0.00    +0.388 C 
ATOM     27  O   UNL     1      -3.790  -2.849  24.057  0.00  0.00    -0.241 OA
ATOM     28  O   UNL     1      -3.507  -3.333  25.372  0.00  0.00    -0.241 OA
ENDBRANCH  23  26
ENDBRANCH  19  20
ENDBRANCH  18  19
TORSDOF 6
ENDMDL
