REMARK  Name = 
REMARK  5 active torsions:
REMARK  status: ('A' for Active; 'I' for Inactive)
REMARK    1  A    between atoms: C_4  and  N_5
REMARK    2  A    between atoms: N_8  and  C_9
REMARK    3  A    between atoms: C_19  and  C_21
REMARK    4  A    between atoms: C_21  and  O_22
REMARK    5  A    between atoms: O_22  and  C_23
REMARK                            x       y       z     vdW  Elec       q    Type
REMARK                         _______ _______ _______ _____ _____    ______ ____
ROOT
ATOM      9  C   UNL     1      -1.296  -1.150   0.000  0.00  0.00    +0.131 A 
ATOM     10  C   UNL     1      -1.167  -0.335   0.000  0.00  0.00    +0.023 A 
ATOM     11  C   UNL     1      -0.397  -0.039   0.000  0.00  0.00    +0.014 A 
ATOM     12  C   UNL     1       0.244  -0.558   0.000  0.00  0.00    +0.041 A 
ATOM     13  C   UNL     1       1.163  -0.557   0.000  0.00  0.00    +0.058 C 
ATOM     14  C   UNL     1       1.713  -0.121   0.000  0.00  0.00    +0.011 C 
ATOM     15  C   UNL     1       1.582  -0.925   0.000  0.00  0.00    +0.043 C 
ATOM     16  C   UNL     1       1.629  -1.912   0.000  0.00  0.00    +0.095 C 
ATOM     17  N   UNL     1       0.813  -2.091   0.000  0.00  0.00    -0.276 N 
ATOM     18  C   UNL     1       1.225  -1.510   0.000  0.00  0.00    +0.099 C 
ATOM     19  C   UNL     1       0.125  -2.547   0.000  0.00  0.00    +0.270 C 
ATOM     20  O   UNL     1       0.176  -3.370   0.000  0.00  0.00    -0.271 OA
ATOM     29  C   UNL     1       0.622  -0.936   0.000  0.00  0.00    +0.110 C 
ATOM     30  N   UNL     1       0.115  -1.373   0.000  0.00  0.00    -0.298 N 
ATOM     31  C   UNL     1      -0.655  -1.669   0.000  0.00  0.00    +0.276 A 
ATOM     32  O   UNL     1      -1.238  -2.252   0.000  0.00  0.00    -0.266 OA
ENDROOT
BRANCH   9   8
ATOM      5  N   UNL     1      -3.478  -1.222   0.000  0.00  0.00    -0.161 NA
ATOM      6  C   UNL     1      -2.707  -0.926   0.000  0.00  0.00    +0.348 C 
ATOM      7  O   UNL     1      -2.578  -0.111   0.000  0.00  0.00    -0.248 OA
ATOM      8  N   UNL     1      -2.066  -1.445   0.000  0.00  0.00    -0.156 NA
BRANCH   5   4
ATOM      1  F   UNL     1      -4.502   1.446   0.000  0.00  0.00    -0.204 F 
ATOM      2  C   UNL     1      -4.631   0.631   0.000  0.00  0.00    +0.141 A 
ATOM      3  C   UNL     1      -3.990   0.112   0.000  0.00  0.00    +0.046 A 
ATOM      4  C   UNL     1      -4.119  -0.703   0.000  0.00  0.00    +0.077 A 
ATOM     33  C   UNL     1      -4.889  -0.999   0.000  0.00  0.00    +0.017 A 
ATOM     34  C   UNL     1      -5.530  -0.480   0.000  0.00  0.00    +0.004 A 
ATOM     35  C   UNL     1      -5.401   0.335   0.000  0.00  0.00    +0.030 A 
ENDBRANCH   5   4
ENDBRANCH   9   8
BRANCH  19  21
ATOM     21  C   UNL     1      -0.614  -2.179   0.000  0.00  0.00    +0.290 C 
BRANCH  21  22
ATOM     22  O   UNL     1      -1.301  -2.635   0.000  0.00  0.00    -0.466 OA
BRANCH  22  23
ATOM     23  C   UNL     1      -1.251  -3.458   0.000  0.00  0.00    +0.139 A 
ATOM     24  C   UNL     1      -0.512  -3.826   0.000  0.00  0.00    +0.037 A 
ATOM     25  C   UNL     1      -0.461  -4.650   0.000  0.00  0.00    +0.003 A 
ATOM     26  C   UNL     1      -1.149  -5.105   0.000  0.00  0.00    +0.000 A 
ATOM     27  C   UNL     1      -1.888  -4.737   0.000  0.00  0.00    +0.003 A 
ATOM     28  C   UNL     1      -1.938  -3.914   0.000  0.00  0.00    +0.037 A 
ENDBRANCH  22  23
ENDBRANCH  21  22
ENDBRANCH  19  21
TORSDOF 5
