REMARK  Name = 
REMARK  5 active torsions:
REMARK  status: ('A' for Active; 'I' for Inactive)
REMARK    1  A    between atoms: N_4  and  C_21
REMARK    2  A    between atoms: C_7  and  C_8
REMARK    3  A    between atoms: C_10  and  N_11
REMARK    4  A    between atoms: C_12  and  C_14
REMARK    5  A    between atoms: C_24  and  C_27
REMARK                            x       y       z     vdW  Elec       q    Type
REMARK                         _______ _______ _______ _____ _____    ______ ____
ROOT
ATOM      1  C   UNL     1       0.715  -0.412   0.000  0.00  0.00    +0.054 C 
ATOM      2  C   UNL     1       0.715  -1.238   0.000  0.00  0.00    +0.077 A 
ATOM      3  N   UNL     1       1.382  -1.722   0.000  0.00  0.00    -0.170 NA
ATOM      4  N   UNL     1       1.127  -2.507   0.000  0.00  0.00    -0.234 N 
ATOM      5  C   UNL     1       0.302  -2.507   0.000  0.00  0.00    +0.058 A 
ATOM      6  C   UNL     1      -0.183  -3.175   0.000  0.00  0.00    +0.052 C 
ATOM      7  C   UNL     1       0.047  -1.722   0.000  0.00  0.00    +0.010 A 
ENDROOT
BRANCH   4  21
ATOM     21  C   UNL     1       1.612  -3.175   0.000  0.00  0.00    +0.082 A 
ATOM     22  C   UNL     1       2.432  -3.088   0.000  0.00  0.00    +0.019 A 
ATOM     23  C   UNL     1       2.917  -3.756   0.000  0.00  0.00    +0.005 A 
ATOM     24  C   UNL     1       2.582  -4.509   0.000  0.00  0.00    +0.072 A 
ATOM     25  C   UNL     1       1.761  -4.596   0.000  0.00  0.00    +0.005 A 
ATOM     26  C   UNL     1       1.276  -3.928   0.000  0.00  0.00    +0.019 A 
BRANCH  24  27
ATOM     27  C   UNL     1       3.067  -5.177   0.000  0.00  0.00    +0.419 C 
ATOM     28  F   UNL     1       3.552  -5.844   0.000  0.00  0.00    -0.166 F 
ATOM     29  F   UNL     1       2.399  -5.662   0.000  0.00  0.00    -0.166 F 
ATOM     30  F   UNL     1       3.734  -4.692   0.000  0.00  0.00    -0.166 F 
ENDBRANCH  24  27
ENDBRANCH   4  21
BRANCH   7   8
ATOM      8  C   UNL     1      -0.738  -1.468   0.000  0.00  0.00    +0.048 C 
ATOM      9  C   UNL     1      -1.405  -1.952   0.000  0.00  0.00    +0.035 C 
ATOM     10  C   UNL     1      -2.072  -1.468   0.000  0.00  0.00    +0.118 C 
ATOM     19  C   UNL     1      -1.817  -0.683   0.000  0.00  0.00    -0.009 C 
ATOM     20  C   UNL     1      -0.993  -0.683   0.000  0.00  0.00    -0.025 C 
BRANCH  10  11
ATOM     11  N   UNL     1      -2.857  -1.722   0.000  0.00  0.00    -0.199 NA
ATOM     12  C   UNL     1      -3.470  -1.170   0.000  0.00  0.00    +0.271 C 
ATOM     13  O   UNL     1      -3.299  -0.363   0.000  0.00  0.00    -0.268 OA
BRANCH  12  14
ATOM     14  C   UNL     1      -4.255  -1.425   0.000  0.00  0.00    +0.084 A 
ATOM     15  C   UNL     1      -4.510  -2.210   0.000  0.00  0.00    +0.012 A 
ATOM     16  C   UNL     1      -5.335  -2.210   0.000  0.00  0.00    +0.008 A 
ATOM     17  C   UNL     1      -5.590  -1.425   0.000  0.00  0.00    +0.036 A 
ATOM     18  S   UNL     1      -4.922  -0.940   0.000  0.00  0.00    -0.082 S 
ENDBRANCH  12  14
ENDBRANCH  10  11
ENDBRANCH   7   8
TORSDOF 5
