MODEL 1
REMARK VINA RESULT:      -8.9      0.000      0.000
REMARK  Name = 
REMARK  5 active torsions:
REMARK  status: ('A' for Active; 'I' for Inactive)
REMARK    1  A    between atoms: C_2  and  N_3
REMARK    2  A    between atoms: N_3  and  C_4
REMARK    3  A    between atoms: C_6  and  C_8
REMARK    4  A    between atoms: C_8  and  C_9
REMARK    5  A    between atoms: C_9  and  C_10
REMARK                            x       y       z     vdW  Elec       q    Type
REMARK                         _______ _______ _______ _____ _____    ______ ____
ROOT
ATOM     10  C   UNL     1      -4.440   1.283  24.640  0.00  0.00    +0.080 C 
ATOM     11  C   UNL     1      -5.074   1.166  25.155  0.00  0.00    +0.131 C 
ATOM     12  N   UNL     1      -5.479   1.725  25.607  0.00  0.00    -0.203 NA
ATOM     13  C   UNL     1      -5.351   2.538  25.654  0.00  0.00    +0.259 C 
ATOM     14  O   UNL     1      -5.855   2.950  26.161  0.00  0.00    -0.272 OA
ATOM     15  C   UNL     1      -4.786   2.994  25.263  0.00  0.00    +0.165 C 
ATOM     16  N   UNL     1      -4.713   3.810  25.359  0.00  0.00    -0.209 NA
ATOM     17  C   UNL     1      -4.093   4.069  24.882  0.00  0.00    +0.091 C 
ATOM     18  C   UNL     1      -3.781   3.413  24.491  0.00  0.00    +0.037 C 
ATOM     19  C   UNL     1      -4.209   2.749  24.726  0.00  0.00    +0.084 C 
ATOM     20  N   UNL     1      -4.055   1.987  24.449  0.00  0.00    -0.271 NA
ATOM     21  C   UNL     1      -3.435   1.921  23.909  0.00  0.00    +0.090 C 
ENDROOT
BRANCH  10   9
ATOM      9  C   UNL     1      -4.153   0.605  24.266  0.00  0.00    +0.027 C 
BRANCH   9   8
ATOM      8  C   UNL     1      -4.136  -0.113  24.672  0.00  0.00    +0.087 C 
BRANCH   8   6
ATOM      3  N   UNL     1      -3.614  -1.443  24.712  0.00  0.00    -0.280 N 
ATOM      6  C   UNL     1      -3.907  -0.803  24.282  0.00  0.00    +0.226 C 
ATOM      7  O   UNL     1      -3.971  -0.852  23.460  0.00  0.00    -0.275 OA
BRANCH   3   2
ATOM      1  C   UNL     1      -3.836  -2.819  24.398  0.00  0.00    +0.023 C 
ATOM      2  C   UNL     1      -3.385  -2.132  24.320  0.00  0.00    +0.093 C 
ENDBRANCH   3   2
BRANCH   3   4
ATOM      4  C   UNL     1      -3.551  -1.393  25.532  0.00  0.00    +0.093 C 
ATOM      5  C   UNL     1      -2.910  -1.742  25.918  0.00  0.00    +0.023 C 
ENDBRANCH   3   4
ENDBRANCH   8   6
ENDBRANCH   9   8
ENDBRANCH  10   9
TORSDOF 5
ENDMDL
MODEL 2
REMARK VINA RESULT:      -8.7      1.304      4.461
REMARK  Name = 
REMARK  5 active torsions:
REMARK  status: ('A' for Active; 'I' for Inactive)
REMARK    1  A    between atoms: C_2  and  N_3
REMARK    2  A    between atoms: N_3  and  C_4
REMARK    3  A    between atoms: C_6  and  C_8
REMARK    4  A    between atoms: C_8  and  C_9
REMARK    5  A    between atoms: C_9  and  C_10
REMARK                            x       y       z     vdW  Elec       q    Type
REMARK                         _______ _______ _______ _____ _____    ______ ____
ROOT
ATOM     10  C   UNL     1      -3.426  -0.191  24.325  0.00  0.00    +0.080 C 
ATOM     11  C   UNL     1      -4.129  -0.577  24.131  0.00  0.00    +0.131 C 
ATOM     12  N   UNL     1      -4.271  -1.388  24.072  0.00  0.00    -0.203 NA
ATOM     13  C   UNL     1      -3.746  -2.012  24.193  0.00  0.00    +0.259 C 
ATOM     14  O   UNL     1      -4.060  -2.768  24.090  0.00  0.00    -0.272 OA
ATOM     15  C   UNL     1      -2.949  -1.981  24.402  0.00  0.00    +0.165 C 
ATOM     16  N   UNL     1      -2.479  -2.650  24.506  0.00  0.00    -0.209 NA
ATOM     17  C   UNL     1      -1.720  -2.401  24.711  0.00  0.00    +0.091 C 
ATOM     18  C   UNL     1      -1.721  -1.577  24.734  0.00  0.00    +0.037 C 
ATOM     19  C   UNL     1      -2.480  -1.317  24.542  0.00  0.00    +0.084 C 
ATOM     20  N   UNL     1      -2.693  -0.520  24.508  0.00  0.00    -0.271 NA
ATOM     21  C   UNL     1      -2.091   0.019  24.680  0.00  0.00    +0.090 C 
ENDROOT
BRANCH  10   9
ATOM      9  C   UNL     1      -3.462   0.633  24.338  0.00  0.00    +0.027 C 
BRANCH   9   8
ATOM      8  C   UNL     1      -4.164   1.011  24.551  0.00  0.00    +0.087 C 
BRANCH   8   6
ATOM      3  N   UNL     1      -4.801   2.240  24.906  0.00  0.00    -0.280 N 
ATOM      6  C   UNL     1      -4.234   1.829  24.471  0.00  0.00    +0.226 C 
ATOM      7  O   UNL     1      -3.735   2.236  23.954  0.00  0.00    -0.275 OA
BRANCH   3   2
ATOM      1  C   UNL     1      -4.716   3.551  25.469  0.00  0.00    +0.023 C 
ATOM      2  C   UNL     1      -4.870   3.058  24.825  0.00  0.00    +0.093 C 
ENDBRANCH   3   2
BRANCH   3   4
ATOM      4  C   UNL     1      -5.299   1.833  25.422  0.00  0.00    +0.093 C 
ATOM      5  C   UNL     1      -6.097   2.038  25.472  0.00  0.00    +0.023 C 
ENDBRANCH   3   4
ENDBRANCH   8   6
ENDBRANCH   9   8
ENDBRANCH  10   9
TORSDOF 5
ENDMDL
MODEL 3
REMARK VINA RESULT:      -8.5      1.412      4.637
REMARK  Name = 
REMARK  5 active torsions:
REMARK  status: ('A' for Active; 'I' for Inactive)
REMARK    1  A    between atoms: C_2  and  N_3
REMARK    2  A    between atoms: N_3  and  C_4
REMARK    3  A    between atoms: C_6  and  C_8
REMARK    4  A    between atoms: C_8  and  C_9
REMARK    5  A    between atoms: C_9  and  C_10
REMARK                            x       y       z     vdW  Elec       q    Type
REMARK                         _______ _______ _______ _____ _____    ______ ____
ROOT
ATOM     10  C   UNL     1      -3.286  -0.314  24.975  0.00  0.00    +0.080 C 
ATOM     11  C   UNL     1      -2.611   0.048  25.282  0.00  0.00    +0.131 C 
ATOM     12  N   UNL     1      -1.854  -0.267  25.370  0.00  0.00    -0.203 NA
ATOM     13  C   UNL     1      -1.585  -1.021  25.175  0.00  0.00    +0.259 C 
ATOM     14  O   UNL     1      -0.788  -1.169  25.334  0.00  0.00    -0.272 OA
ATOM     15  C   UNL     1      -2.005  -1.648  24.843  0.00  0.00    +0.165 C 
ATOM     16  N   UNL     1      -1.670  -2.382  24.672  0.00  0.00    -0.209 NA
ATOM     17  C   UNL     1      -2.257  -2.862  24.348  0.00  0.00    +0.091 C 
ATOM     18  C   UNL     1      -2.956  -2.425  24.317  0.00  0.00    +0.037 C 
ATOM     19  C   UNL     1      -2.800  -1.674  24.623  0.00  0.00    +0.084 C 
ATOM     20  N   UNL     1      -3.370  -1.080  24.682  0.00  0.00    -0.271 NA
ATOM     21  C   UNL     1      -4.124  -1.280  24.413  0.00  0.00    +0.090 C 
ENDROOT
BRANCH  10   9
ATOM      9  C   UNL     1      -3.967   0.152  24.960  0.00  0.00    +0.027 C 
BRANCH   9   8
ATOM      8  C   UNL     1      -3.903   0.970  24.872  0.00  0.00    +0.087 C 
BRANCH   8   6
ATOM      3  N   UNL     1      -4.546   2.244  24.790  0.00  0.00    -0.280 N 
ATOM      6  C   UNL     1      -4.554   1.454  25.026  0.00  0.00    +0.226 C 
ATOM      7  O   UNL     1      -5.212   1.146  25.417  0.00  0.00    -0.275 OA
BRANCH   3   2
ATOM      1  C   UNL     1      -5.129   3.350  25.481  0.00  0.00    +0.023 C 
ATOM      2  C   UNL     1      -5.197   2.727  24.945  0.00  0.00    +0.093 C 
ENDBRANCH   3   2
BRANCH   3   4
ATOM      4  C   UNL     1      -3.888   2.551  24.399  0.00  0.00    +0.093 C 
ATOM      5  C   UNL     1      -3.988   3.109  23.800  0.00  0.00    +0.023 C 
ENDBRANCH   3   4
ENDBRANCH   8   6
ENDBRANCH   9   8
ENDBRANCH  10   9
TORSDOF 5
ENDMDL
MODEL 4
REMARK VINA RESULT:      -8.3      2.203      2.629
REMARK  Name = 
REMARK  5 active torsions:
REMARK  status: ('A' for Active; 'I' for Inactive)
REMARK    1  A    between atoms: C_2  and  N_3
REMARK    2  A    between atoms: N_3  and  C_4
REMARK    3  A    between atoms: C_6  and  C_8
REMARK    4  A    between atoms: C_8  and  C_9
REMARK    5  A    between atoms: C_9  and  C_10
REMARK                            x       y       z     vdW  Elec       q    Type
REMARK                         _______ _______ _______ _____ _____    ______ ____
ROOT
ATOM     10  C   UNL     1      -2.338   1.871  24.774  0.00  0.00    +0.080 C 
ATOM     11  C   UNL     1      -1.619   1.520  24.975  0.00  0.00    +0.131 C 
ATOM     12  N   UNL     1      -0.934   1.879  25.263  0.00  0.00    -0.203 NA
ATOM     13  C   UNL     1      -0.799   2.677  25.420  0.00  0.00    +0.259 C 
ATOM     14  O   UNL     1      -0.048   2.864  25.707  0.00  0.00    -0.272 OA
ATOM     15  C   UNL     1      -1.315   3.314  25.329  0.00  0.00    +0.165 C 
ATOM     16  N   UNL     1      -1.113   4.093  25.508  0.00  0.00    -0.209 NA
ATOM     17  C   UNL     1      -1.766   4.570  25.347  0.00  0.00    +0.091 C 
ATOM     18  C   UNL     1      -2.373   4.086  25.069  0.00  0.00    +0.037 C 
ATOM     19  C   UNL     1      -2.094   3.310  25.058  0.00  0.00    +0.084 C 
ATOM     20  N   UNL     1      -2.549   2.667  24.811  0.00  0.00    -0.271 NA
ATOM     21  C   UNL     1      -3.318   2.844  24.568  0.00  0.00    +0.090 C 
ENDROOT
BRANCH  10   9
ATOM      9  C   UNL     1      -2.922   1.357  24.500  0.00  0.00    +0.027 C 
BRANCH   9   8
ATOM      8  C   UNL     1      -2.913   0.564  24.728  0.00  0.00    +0.087 C 
BRANCH   8   6
ATOM      3  N   UNL     1      -3.562  -0.709  24.722  0.00  0.00    -0.280 N 
ATOM      6  C   UNL     1      -3.428   0.026  24.373  0.00  0.00    +0.226 C 
ATOM      7  O   UNL     1      -3.811   0.225  23.669  0.00  0.00    -0.275 OA
BRANCH   3   2
ATOM      1  C   UNL     1      -3.798  -1.980  24.112  0.00  0.00    +0.023 C 
ATOM      2  C   UNL     1      -4.078  -1.246  24.366  0.00  0.00    +0.093 C 
ENDBRANCH   3   2
BRANCH   3   4
ATOM      4  C   UNL     1      -3.180  -0.908  25.425  0.00  0.00    +0.093 C 
ATOM      5  C   UNL     1      -3.568  -1.367  25.990  0.00  0.00    +0.023 C 
ENDBRANCH   3   4
ENDBRANCH   8   6
ENDBRANCH   9   8
ENDBRANCH  10   9
TORSDOF 5
ENDMDL
