MODEL 1
REMARK VINA RESULT:     -11.4      0.000      0.000
REMARK  Name = 
REMARK  5 active torsions:
REMARK  status: ('A' for Active; 'I' for Inactive)
REMARK    1  A    between atoms: N_2  and  C_3
REMARK    2  A    between atoms: C_6  and  C_9
REMARK    3  A    between atoms: C_12  and  C_14
REMARK    4  A    between atoms: N_18  and  C_19
REMARK    5  A    between atoms: C_19  and  C_20
REMARK                            x       y       z     vdW  Elec       q    Type
REMARK                         _______ _______ _______ _____ _____    ______ ____
ROOT
ATOM      9  C   UNL     1      -4.154   0.381  24.920  0.00  0.00    +0.205 A 
ATOM     10  N   UNL     1      -4.622   0.745  25.493  0.00  0.00    -0.056 NA
ATOM     11  O   UNL     1      -4.633   1.556  25.337  0.00  0.00    -0.336 OA
ATOM     12  C   UNL     1      -4.170   1.693  24.668  0.00  0.00    +0.251 A 
ATOM     13  N   UNL     1      -3.874   0.967  24.410  0.00  0.00    -0.190 NA
ENDROOT
BRANCH   9   6
ATOM      3  C   UNL     1      -3.670  -2.041  24.759  0.00  0.00    +0.148 A 
ATOM      4  C   UNL     1      -4.054  -1.654  24.140  0.00  0.00    +0.036 A 
ATOM      5  C   UNL     1      -4.216  -0.847  24.194  0.00  0.00    +0.008 A 
ATOM      6  C   UNL     1      -3.993  -0.426  24.867  0.00  0.00    +0.058 A 
ATOM      7  C   UNL     1      -3.608  -0.812  25.487  0.00  0.00    +0.103 A 
ATOM      8  N   UNL     1      -3.447  -1.619  25.433  0.00  0.00    -0.228 NA
BRANCH   3   2
ATOM      1  C   UNL     1      -2.788  -3.105  24.396  0.00  0.00    +0.137 C 
ATOM      2  N   UNL     1      -3.509  -2.848  24.705  0.00  0.00    -0.218 NA
ENDBRANCH   3   2
ENDBRANCH   9   6
BRANCH  12  14
ATOM     14  C   UNL     1      -4.029   2.426  24.318  0.00  0.00    +0.138 C 
ATOM     15  C   UNL     1      -4.488   2.779  23.730  0.00  0.00    +0.027 C 
ATOM     16  C   UNL     1      -4.146   3.507  23.543  0.00  0.00    +0.019 C 
ATOM     17  C   UNL     1      -3.475   3.602  24.016  0.00  0.00    +0.073 C 
ATOM     18  N   UNL     1      -3.403   2.934  24.494  0.00  0.00    -0.263 NA
BRANCH  18  19
ATOM     19  C   UNL     1      -2.810   2.799  25.051  0.00  0.00    +0.102 C 
BRANCH  19  20
ATOM     20  C   UNL     1      -2.191   3.338  25.134  0.00  0.00    +0.021 A 
ATOM     21  C   UNL     1      -2.353   4.128  25.308  0.00  0.00    -0.001 A 
ATOM     22  C   UNL     1      -1.735   4.667  25.391  0.00  0.00    -0.000 A 
ATOM     23  C   UNL     1      -0.954   4.417  25.299  0.00  0.00    +0.002 A 
ATOM     24  C   UNL     1      -0.792   3.628  25.124  0.00  0.00    +0.029 A 
ATOM     25  C   UNL     1      -1.410   3.088  25.042  0.00  0.00    +0.137 A 
ATOM     26  F   UNL     1      -1.248   2.298  24.867  0.00  0.00    -0.204 F 
ENDBRANCH  19  20
ENDBRANCH  18  19
ENDBRANCH  12  14
TORSDOF 5
ENDMDL
MODEL 2
REMARK VINA RESULT:     -10.8      1.997      5.474
REMARK  Name = 
REMARK  5 active torsions:
REMARK  status: ('A' for Active; 'I' for Inactive)
REMARK    1  A    between atoms: N_2  and  C_3
REMARK    2  A    between atoms: C_6  and  C_9
REMARK    3  A    between atoms: C_12  and  C_14
REMARK    4  A    between atoms: N_18  and  C_19
REMARK    5  A    between atoms: C_19  and  C_20
REMARK                            x       y       z     vdW  Elec       q    Type
REMARK                         _______ _______ _______ _____ _____    ______ ____
ROOT
ATOM      9  C   UNL     1      -1.407   1.760  24.437  0.00  0.00    +0.205 A 
ATOM     10  N   UNL     1      -1.317   1.511  23.656  0.00  0.00    -0.056 NA
ATOM     11  O   UNL     1      -1.222   0.691  23.659  0.00  0.00    -0.336 OA
ATOM     12  C   UNL     1      -1.253   0.434  24.443  0.00  0.00    +0.251 A 
ATOM     13  N   UNL     1      -1.367   1.095  24.924  0.00  0.00    -0.190 NA
ENDROOT
BRANCH   9   6
ATOM      3  C   UNL     1      -1.736   4.095  25.190  0.00  0.00    +0.148 A 
ATOM      4  C   UNL     1      -0.986   3.754  25.219  0.00  0.00    +0.036 A 
ATOM      5  C   UNL     1      -0.876   2.976  24.968  0.00  0.00    +0.008 A 
ATOM      6  C   UNL     1      -1.516   2.539  24.688  0.00  0.00    +0.058 A 
ATOM      7  C   UNL     1      -2.268   2.879  24.658  0.00  0.00    +0.103 A 
ATOM      8  N   UNL     1      -2.377   3.657  24.909  0.00  0.00    -0.228 NA
BRANCH   3   2
ATOM      1  C   UNL     1      -1.446   5.488  25.063  0.00  0.00    +0.137 C 
ATOM      2  N   UNL     1      -1.846   4.873  25.441  0.00  0.00    -0.218 NA
ENDBRANCH   3   2
ENDBRANCH   9   6
BRANCH  12  14
ATOM     14  C   UNL     1      -1.183  -0.346  24.700  0.00  0.00    +0.138 C 
ATOM     15  C   UNL     1      -0.482  -0.725  24.914  0.00  0.00    +0.027 C 
ATOM     16  C   UNL     1      -0.668  -1.499  25.135  0.00  0.00    +0.019 C 
ATOM     17  C   UNL     1      -1.484  -1.597  25.058  0.00  0.00    +0.073 C 
ATOM     18  N   UNL     1      -1.802  -0.885  24.789  0.00  0.00    -0.263 NA
BRANCH  18  19
ATOM     19  C   UNL     1      -2.599  -0.738  24.636  0.00  0.00    +0.102 C 
BRANCH  19  20
ATOM     20  C   UNL     1      -3.116  -1.367  24.502  0.00  0.00    +0.021 A 
ATOM     21  C   UNL     1      -3.012  -2.079  24.906  0.00  0.00    -0.001 A 
ATOM     22  C   UNL     1      -3.529  -2.708  24.773  0.00  0.00    -0.000 A 
ATOM     23  C   UNL     1      -4.150  -2.625  24.235  0.00  0.00    +0.002 A 
ATOM     24  C   UNL     1      -4.253  -1.914  23.832  0.00  0.00    +0.029 A 
ATOM     25  C   UNL     1      -3.736  -1.284  23.965  0.00  0.00    +0.137 A 
ATOM     26  F   UNL     1      -3.840  -0.572  23.560  0.00  0.00    -0.204 F 
ENDBRANCH  19  20
ENDBRANCH  18  19
ENDBRANCH  12  14
TORSDOF 5
ENDMDL
MODEL 3
REMARK VINA RESULT:     -10.8      1.962      5.031
REMARK  Name = 
REMARK  5 active torsions:
REMARK  status: ('A' for Active; 'I' for Inactive)
REMARK    1  A    between atoms: N_2  and  C_3
REMARK    2  A    between atoms: C_6  and  C_9
REMARK    3  A    between atoms: C_12  and  C_14
REMARK    4  A    between atoms: N_18  and  C_19
REMARK    5  A    between atoms: C_19  and  C_20
REMARK                            x       y       z     vdW  Elec       q    Type
REMARK                         _______ _______ _______ _____ _____    ______ ____
ROOT
ATOM      9  C   UNL     1      -3.641   2.061  24.483  0.00  0.00    +0.205 A 
ATOM     10  N   UNL     1      -3.383   2.088  23.700  0.00  0.00    -0.056 NA
ATOM     11  O   UNL     1      -2.835   1.481  23.591  0.00  0.00    -0.336 OA
ATOM     12  C   UNL     1      -2.754   1.078  24.307  0.00  0.00    +0.251 A 
ATOM     13  N   UNL     1      -3.252   1.437  24.858  0.00  0.00    -0.190 NA
ENDROOT
BRANCH   9   6
ATOM      3  C   UNL     1      -5.291   3.583  25.526  0.00  0.00    +0.148 A 
ATOM      4  C   UNL     1      -5.518   2.826  25.290  0.00  0.00    +0.036 A 
ATOM      5  C   UNL     1      -4.968   2.318  24.943  0.00  0.00    +0.008 A 
ATOM      6  C   UNL     1      -4.191   2.568  24.831  0.00  0.00    +0.058 A 
ATOM      7  C   UNL     1      -3.962   3.325  25.066  0.00  0.00    +0.103 A 
ATOM      8  N   UNL     1      -4.512   3.833  25.413  0.00  0.00    -0.228 NA
BRANCH   3   2
ATOM      1  C   UNL     1      -5.995   4.826  25.533  0.00  0.00    +0.137 C 
ATOM      2  N   UNL     1      -5.841   4.090  25.873  0.00  0.00    -0.218 NA
ENDBRANCH   3   2
ENDBRANCH   9   6
BRANCH  12  14
ATOM     14  C   UNL     1      -2.261   0.432  24.446  0.00  0.00    +0.138 C 
ATOM     15  C   UNL     1      -1.442   0.457  24.538  0.00  0.00    +0.027 C 
ATOM     16  C   UNL     1      -1.176  -0.314  24.667  0.00  0.00    +0.019 C 
ATOM     17  C   UNL     1      -1.832  -0.815  24.656  0.00  0.00    +0.073 C 
ATOM     18  N   UNL     1      -2.502  -0.354  24.519  0.00  0.00    -0.263 NA
BRANCH  18  19
ATOM     19  C   UNL     1      -3.278  -0.631  24.465  0.00  0.00    +0.102 C 
BRANCH  19  20
ATOM     20  C   UNL     1      -3.431  -1.441  24.506  0.00  0.00    +0.021 A 
ATOM     21  C   UNL     1      -3.149  -1.882  25.144  0.00  0.00    -0.001 A 
ATOM     22  C   UNL     1      -3.301  -2.691  25.184  0.00  0.00    -0.000 A 
ATOM     23  C   UNL     1      -3.735  -3.060  24.587  0.00  0.00    +0.002 A 
ATOM     24  C   UNL     1      -4.017  -2.619  23.950  0.00  0.00    +0.029 A 
ATOM     25  C   UNL     1      -3.865  -1.809  23.909  0.00  0.00    +0.137 A 
ATOM     26  F   UNL     1      -4.147  -1.368  23.271  0.00  0.00    -0.204 F 
ENDBRANCH  19  20
ENDBRANCH  18  19
ENDBRANCH  12  14
TORSDOF 5
ENDMDL
MODEL 4
REMARK VINA RESULT:     -10.6      1.385      4.999
REMARK  Name = 
REMARK  5 active torsions:
REMARK  status: ('A' for Active; 'I' for Inactive)
REMARK    1  A    between atoms: N_2  and  C_3
REMARK    2  A    between atoms: C_6  and  C_9
REMARK    3  A    between atoms: C_12  and  C_14
REMARK    4  A    between atoms: N_18  and  C_19
REMARK    5  A    between atoms: C_19  and  C_20
REMARK                            x       y       z     vdW  Elec       q    Type
REMARK                         _______ _______ _______ _____ _____    ______ ____
ROOT
ATOM      9  C   UNL     1      -2.863   2.674  24.359  0.00  0.00    +0.205 A 
ATOM     10  N   UNL     1      -3.024   2.410  23.595  0.00  0.00    -0.056 NA
ATOM     11  O   UNL     1      -3.625   1.846  23.640  0.00  0.00    -0.336 OA
ATOM     12  C   UNL     1      -3.836   1.762  24.433  0.00  0.00    +0.251 A 
ATOM     13  N   UNL     1      -3.365   2.273  24.878  0.00  0.00    -0.190 NA
ENDROOT
BRANCH   9   6
ATOM      3  C   UNL     1      -1.173   4.369  24.988  0.00  0.00    +0.148 A 
ATOM      4  C   UNL     1      -1.969   4.493  25.167  0.00  0.00    +0.036 A 
ATOM      5  C   UNL     1      -2.532   3.928  24.957  0.00  0.00    +0.008 A 
ATOM      6  C   UNL     1      -2.300   3.239  24.569  0.00  0.00    +0.058 A 
ATOM      7  C   UNL     1      -1.504   3.114  24.390  0.00  0.00    +0.103 A 
ATOM      8  N   UNL     1      -0.941   3.679  24.599  0.00  0.00    -0.228 NA
BRANCH   3   2
ATOM      1  C   UNL     1      -0.606   5.670  24.825  0.00  0.00    +0.137 C 
ATOM      2  N   UNL     1      -0.610   4.934  25.198  0.00  0.00    -0.218 NA
ENDBRANCH   3   2
ENDBRANCH   9   6
BRANCH  12  14
ATOM     14  C   UNL     1      -4.415   1.255  24.730  0.00  0.00    +0.138 C 
ATOM     15  C   UNL     1      -5.183   1.469  24.945  0.00  0.00    +0.027 C 
ATOM     16  C   UNL     1      -5.571   0.791  25.212  0.00  0.00    +0.019 C 
ATOM     17  C   UNL     1      -5.042   0.159  25.162  0.00  0.00    +0.073 C 
ATOM     18  N   UNL     1      -4.329   0.446  24.865  0.00  0.00    -0.263 NA
BRANCH  18  19
ATOM     19  C   UNL     1      -3.648   0.001  24.726  0.00  0.00    +0.102 C 
BRANCH  19  20
ATOM     20  C   UNL     1      -3.700  -0.818  24.641  0.00  0.00    +0.021 A 
ATOM     21  C   UNL     1      -4.138  -1.140  24.019  0.00  0.00    -0.001 A 
ATOM     22  C   UNL     1      -4.191  -1.959  23.934  0.00  0.00    -0.000 A 
ATOM     23  C   UNL     1      -3.807  -2.455  24.469  0.00  0.00    +0.002 A 
ATOM     24  C   UNL     1      -3.370  -2.133  25.089  0.00  0.00    +0.029 A 
ATOM     25  C   UNL     1      -3.316  -1.315  25.176  0.00  0.00    +0.137 A 
ATOM     26  F   UNL     1      -2.879  -0.993  25.797  0.00  0.00    -0.204 F 
ENDBRANCH  19  20
ENDBRANCH  18  19
ENDBRANCH  12  14
TORSDOF 5
ENDMDL
MODEL 5
REMARK VINA RESULT:     -10.6      1.859      2.567
REMARK  Name = 
REMARK  5 active torsions:
REMARK  status: ('A' for Active; 'I' for Inactive)
REMARK    1  A    between atoms: N_2  and  C_3
REMARK    2  A    between atoms: C_6  and  C_9
REMARK    3  A    between atoms: C_12  and  C_14
REMARK    4  A    between atoms: N_18  and  C_19
REMARK    5  A    between atoms: C_19  and  C_20
REMARK                            x       y       z     vdW  Elec       q    Type
REMARK                         _______ _______ _______ _____ _____    ______ ____
ROOT
ATOM      9  C   UNL     1      -1.728   0.076  24.664  0.00  0.00    +0.205 A 
ATOM     10  N   UNL     1      -1.418   0.431  23.988  0.00  0.00    -0.056 NA
ATOM     11  O   UNL     1      -0.988   1.095  24.223  0.00  0.00    -0.336 OA
ATOM     12  C   UNL     1      -1.032   1.150  25.045  0.00  0.00    +0.251 A 
ATOM     13  N   UNL     1      -1.490   0.520  25.318  0.00  0.00    -0.190 NA
ENDROOT
BRANCH   9   6
ATOM      3  C   UNL     1      -3.127  -1.965  24.724  0.00  0.00    +0.148 A 
ATOM      4  C   UNL     1      -3.479  -1.221  24.784  0.00  0.00    +0.036 A 
ATOM      5  C   UNL     1      -3.012  -0.541  24.764  0.00  0.00    +0.008 A 
ATOM      6  C   UNL     1      -2.194  -0.605  24.684  0.00  0.00    +0.058 A 
ATOM      7  C   UNL     1      -1.842  -1.348  24.624  0.00  0.00    +0.103 A 
ATOM      8  N   UNL     1      -2.308  -2.028  24.644  0.00  0.00    -0.228 NA
BRANCH   3   2
ATOM      1  C   UNL     1      -3.969  -2.908  24.057  0.00  0.00    +0.137 C 
ATOM      2  N   UNL     1      -3.594  -2.645  24.744  0.00  0.00    -0.218 NA
ENDBRANCH   3   2
ENDBRANCH   9   6
BRANCH  12  14
ATOM     14  C   UNL     1      -0.681   1.732  25.512  0.00  0.00    +0.138 C 
ATOM     15  C   UNL     1       0.006   1.646  25.959  0.00  0.00    +0.027 C 
ATOM     16  C   UNL     1       0.156   2.364  26.338  0.00  0.00    +0.019 C 
ATOM     17  C   UNL     1      -0.440   2.894  26.124  0.00  0.00    +0.073 C 
ATOM     18  N   UNL     1      -0.957   2.503  25.614  0.00  0.00    -0.263 NA
BRANCH  18  19
ATOM     19  C   UNL     1      -1.632   2.827  25.266  0.00  0.00    +0.102 C 
BRANCH  19  20
ATOM     20  C   UNL     1      -1.763   3.641  25.301  0.00  0.00    +0.021 A 
ATOM     21  C   UNL     1      -1.207   4.163  24.986  0.00  0.00    -0.001 A 
ATOM     22  C   UNL     1      -1.338   4.976  25.021  0.00  0.00    -0.000 A 
ATOM     23  C   UNL     1      -2.025   5.269  25.372  0.00  0.00    +0.002 A 
ATOM     24  C   UNL     1      -2.581   4.747  25.687  0.00  0.00    +0.029 A 
ATOM     25  C   UNL     1      -2.450   3.933  25.652  0.00  0.00    +0.137 A 
ATOM     26  F   UNL     1      -3.006   3.412  25.968  0.00  0.00    -0.204 F 
ENDBRANCH  19  20
ENDBRANCH  18  19
ENDBRANCH  12  14
TORSDOF 5
ENDMDL
