MODEL 1
REMARK VINA RESULT:     -11.1      0.000      0.000
REMARK  Name = 
REMARK  2 active torsions:
REMARK  status: ('A' for Active; 'I' for Inactive)
REMARK    1  A    between atoms: N_10  and  C_11
REMARK    2  A    between atoms: C_11  and  C_12
REMARK                            x       y       z     vdW  Elec       q    Type
REMARK                         _______ _______ _______ _____ _____    ______ ____
ROOT
ATOM      1  C   UNL     1      -5.378   3.810  25.723  0.00  0.00    +0.095 C 
ATOM      2  C   UNL     1      -5.384   2.986  25.711  0.00  0.00    +0.226 C 
ATOM      3  O   UNL     1      -5.889   2.569  26.214  0.00  0.00    -0.275 OA
ATOM      4  N   UNL     1      -4.885   2.577  25.196  0.00  0.00    -0.276 N 
ATOM      5  C   UNL     1      -4.381   2.993  24.693  0.00  0.00    +0.115 C 
ATOM      6  C   UNL     1      -3.883   2.585  24.178  0.00  0.00    +0.116 C 
ATOM      7  N   UNL     1      -3.888   1.760  24.166  0.00  0.00    -0.261 N 
ATOM      8  C   UNL     1      -4.392   1.344  24.669  0.00  0.00    +0.116 C 
ATOM      9  C   UNL     1      -4.278   0.538  24.535  0.00  0.00    +0.117 C 
ATOM     10  N   UNL     1      -3.703   0.456  23.950  0.00  0.00    -0.258 N 
ATOM     19  C   UNL     1      -3.462   1.211  23.722  0.00  0.00    +0.308 C 
ATOM     20  O   UNL     1      -2.894   1.387  23.150  0.00  0.00    -0.252 OA
ATOM     21  C   UNL     1      -4.891   1.752  25.184  0.00  0.00    +0.115 C 
ENDROOT
BRANCH  10  11
ATOM     11  C   UNL     1      -3.418  -0.256  23.646  0.00  0.00    +0.122 C 
BRANCH  11  12
ATOM     12  C   UNL     1      -3.456  -0.943  24.100  0.00  0.00    -0.002 A 
ATOM     13  C   UNL     1      -2.905  -1.072  24.700  0.00  0.00    -0.000 A 
ATOM     14  C   UNL     1      -2.943  -1.761  25.154  0.00  0.00    +0.029 A 
ATOM     15  C   UNL     1      -3.532  -2.319  25.008  0.00  0.00    +0.140 A 
ATOM     16  F   UNL     1      -3.570  -3.007  25.462  0.00  0.00    -0.204 F 
ATOM     17  C   UNL     1      -4.083  -2.190  24.408  0.00  0.00    +0.029 A 
ATOM     18  C   UNL     1      -4.045  -1.503  23.953  0.00  0.00    -0.000 A 
ENDBRANCH  11  12
ENDBRANCH  10  11
TORSDOF 2
ENDMDL
MODEL 2
REMARK VINA RESULT:     -11.1      1.502      2.178
REMARK  Name = 
REMARK  2 active torsions:
REMARK  status: ('A' for Active; 'I' for Inactive)
REMARK    1  A    between atoms: N_10  and  C_11
REMARK    2  A    between atoms: C_11  and  C_12
REMARK                            x       y       z     vdW  Elec       q    Type
REMARK                         _______ _______ _______ _____ _____    ______ ____
ROOT
ATOM      1  C   UNL     1      -1.697   4.429  25.201  0.00  0.00    +0.095 C 
ATOM      2  C   UNL     1      -1.703   3.632  24.987  0.00  0.00    +0.226 C 
ATOM      3  O   UNL     1      -1.003   3.262  24.756  0.00  0.00    -0.275 OA
ATOM      4  N   UNL     1      -2.410   3.206  25.006  0.00  0.00    -0.276 N 
ATOM      5  C   UNL     1      -3.109   3.576  25.237  0.00  0.00    +0.115 C 
ATOM      6  C   UNL     1      -3.815   3.150  25.255  0.00  0.00    +0.116 C 
ATOM      7  N   UNL     1      -3.821   2.353  25.042  0.00  0.00    -0.261 N 
ATOM      8  C   UNL     1      -3.122   1.982  24.810  0.00  0.00    +0.116 C 
ATOM      9  C   UNL     1      -3.296   1.196  24.632  0.00  0.00    +0.117 C 
ATOM     10  N   UNL     1      -4.103   1.081  24.753  0.00  0.00    -0.258 N 
ATOM     19  C   UNL     1      -4.428   1.795  25.006  0.00  0.00    +0.308 C 
ATOM     20  O   UNL     1      -5.221   1.929  25.192  0.00  0.00    -0.252 OA
ATOM     21  C   UNL     1      -2.415   2.409  24.792  0.00  0.00    +0.115 C 
ENDROOT
BRANCH  10  11
ATOM     11  C   UNL     1      -4.514   0.374  24.640  0.00  0.00    +0.122 C 
BRANCH  11  12
ATOM     12  C   UNL     1      -4.134  -0.348  24.757  0.00  0.00    -0.002 A 
ATOM     13  C   UNL     1      -3.939  -0.594  25.520  0.00  0.00    -0.000 A 
ATOM     14  C   UNL     1      -3.558  -1.317  25.635  0.00  0.00    +0.029 A 
ATOM     15  C   UNL     1      -3.373  -1.794  24.989  0.00  0.00    +0.140 A 
ATOM     16  F   UNL     1      -2.992  -2.517  25.104  0.00  0.00    -0.204 F 
ATOM     17  C   UNL     1      -3.567  -1.548  24.225  0.00  0.00    +0.029 A 
ATOM     18  C   UNL     1      -3.948  -0.825  24.109  0.00  0.00    -0.000 A 
ENDBRANCH  11  12
ENDBRANCH  10  11
TORSDOF 2
ENDMDL
MODEL 3
REMARK VINA RESULT:     -10.2      1.466      1.817
REMARK  Name = 
REMARK  2 active torsions:
REMARK  status: ('A' for Active; 'I' for Inactive)
REMARK    1  A    between atoms: N_10  and  C_11
REMARK    2  A    between atoms: C_11  and  C_12
REMARK                            x       y       z     vdW  Elec       q    Type
REMARK                         _______ _______ _______ _____ _____    ______ ____
ROOT
ATOM      1  C   UNL     1      -3.730   3.737  24.128  0.00  0.00    +0.095 C 
ATOM      2  C   UNL     1      -3.942   2.953  24.269  0.00  0.00    +0.226 C 
ATOM      3  O   UNL     1      -4.725   2.713  24.175  0.00  0.00    -0.275 OA
ATOM      4  N   UNL     1      -3.368   2.408  24.505  0.00  0.00    -0.276 N 
ATOM      5  C   UNL     1      -2.585   2.647  24.599  0.00  0.00    +0.115 C 
ATOM      6  C   UNL     1      -2.013   2.103  24.835  0.00  0.00    +0.116 C 
ATOM      7  N   UNL     1      -2.223   1.317  24.977  0.00  0.00    -0.261 N 
ATOM      8  C   UNL     1      -3.007   1.078  24.882  0.00  0.00    +0.116 C 
ATOM      9  C   UNL     1      -3.050   0.274  25.060  0.00  0.00    +0.117 C 
ATOM     10  N   UNL     1      -2.294   0.016  25.265  0.00  0.00    -0.258 N 
ATOM     19  C   UNL     1      -1.783   0.662  25.213  0.00  0.00    +0.308 C 
ATOM     20  O   UNL     1      -0.973   0.653  25.370  0.00  0.00    -0.252 OA
ATOM     21  C   UNL     1      -3.580   1.623  24.647  0.00  0.00    +0.115 C 
ENDROOT
BRANCH  10  11
ATOM     11  C   UNL     1      -2.085  -0.752  25.482  0.00  0.00    +0.122 C 
BRANCH  11  12
ATOM     12  C   UNL     1      -2.517  -1.394  25.197  0.00  0.00    -0.002 A 
ATOM     13  C   UNL     1      -2.267  -1.792  24.520  0.00  0.00    -0.000 A 
ATOM     14  C   UNL     1      -2.700  -2.434  24.236  0.00  0.00    +0.029 A 
ATOM     15  C   UNL     1      -3.383  -2.678  24.628  0.00  0.00    +0.140 A 
ATOM     16  F   UNL     1      -3.816  -3.320  24.344  0.00  0.00    -0.204 F 
ATOM     17  C   UNL     1      -3.633  -2.280  25.306  0.00  0.00    +0.029 A 
ATOM     18  C   UNL     1      -3.201  -1.638  25.591  0.00  0.00    -0.000 A 
ENDBRANCH  11  12
ENDBRANCH  10  11
TORSDOF 2
ENDMDL
MODEL 4
REMARK VINA RESULT:     -10.1      2.306      4.552
REMARK  Name = 
REMARK  2 active torsions:
REMARK  status: ('A' for Active; 'I' for Inactive)
REMARK    1  A    between atoms: N_10  and  C_11
REMARK    2  A    between atoms: C_11  and  C_12
REMARK                            x       y       z     vdW  Elec       q    Type
REMARK                         _______ _______ _______ _____ _____    ______ ____
ROOT
ATOM      1  C   UNL     1      -2.980  -2.017  24.886  0.00  0.00    +0.095 C 
ATOM      2  C   UNL     1      -2.666  -1.262  24.774  0.00  0.00    +0.226 C 
ATOM      3  O   UNL     1      -1.860  -1.168  24.624  0.00  0.00    -0.275 OA
ATOM      4  N   UNL     1      -3.159  -0.601  24.812  0.00  0.00    -0.276 N 
ATOM      5  C   UNL     1      -3.964  -0.695  24.962  0.00  0.00    +0.115 C 
ATOM      6  C   UNL     1      -4.456  -0.034  24.999  0.00  0.00    +0.116 C 
ATOM      7  N   UNL     1      -4.143   0.721  24.888  0.00  0.00    -0.261 N 
ATOM      8  C   UNL     1      -3.337   0.815  24.738  0.00  0.00    +0.116 C 
ATOM      9  C   UNL     1      -3.186   1.621  24.651  0.00  0.00    +0.117 C 
ATOM     10  N   UNL     1      -3.899   2.026  24.747  0.00  0.00    -0.258 N 
ATOM     19  C   UNL     1      -4.490   1.469  24.893  0.00  0.00    +0.308 C 
ATOM     20  O   UNL     1      -5.288   1.632  25.022  0.00  0.00    -0.252 OA
ATOM     21  C   UNL     1      -2.845   0.154  24.700  0.00  0.00    +0.115 C 
ENDROOT
BRANCH  10  11
ATOM     11  C   UNL     1      -4.002   2.843  24.704  0.00  0.00    +0.122 C 
BRANCH  11  12
ATOM     12  C   UNL     1      -3.412   3.349  24.980  0.00  0.00    -0.002 A 
ATOM     13  C   UNL     1      -2.821   3.612  24.468  0.00  0.00    -0.000 A 
ATOM     14  C   UNL     1      -2.231   4.118  24.746  0.00  0.00    +0.029 A 
ATOM     15  C   UNL     1      -2.231   4.361  25.533  0.00  0.00    +0.140 A 
ATOM     16  F   UNL     1      -1.641   4.867  25.811  0.00  0.00    -0.204 F 
ATOM     17  C   UNL     1      -2.822   4.097  26.045  0.00  0.00    +0.029 A 
ATOM     18  C   UNL     1      -3.413   3.592  25.770  0.00  0.00    -0.000 A 
ENDBRANCH  11  12
ENDBRANCH  10  11
TORSDOF 2
ENDMDL
MODEL 5
REMARK VINA RESULT:     -10.0      2.326      4.294
REMARK  Name = 
REMARK  2 active torsions:
REMARK  status: ('A' for Active; 'I' for Inactive)
REMARK    1  A    between atoms: N_10  and  C_11
REMARK    2  A    between atoms: C_11  and  C_12
REMARK                            x       y       z     vdW  Elec       q    Type
REMARK                         _______ _______ _______ _____ _____    ______ ____
ROOT
ATOM      1  C   UNL     1      -0.527  -1.363  25.000  0.00  0.00    +0.095 C 
ATOM      2  C   UNL     1      -1.306  -1.093  25.023  0.00  0.00    +0.226 C 
ATOM      3  O   UNL     1      -1.897  -1.566  25.352  0.00  0.00    -0.275 OA
ATOM      4  N   UNL     1      -1.494  -0.350  24.717  0.00  0.00    -0.276 N 
ATOM      5  C   UNL     1      -0.902   0.123  24.388  0.00  0.00    +0.115 C 
ATOM      6  C   UNL     1      -1.090   0.865  24.083  0.00  0.00    +0.116 C 
ATOM      7  N   UNL     1      -1.869   1.136  24.105  0.00  0.00    -0.261 N 
ATOM      8  C   UNL     1      -2.461   0.664  24.434  0.00  0.00    +0.116 C 
ATOM      9  C   UNL     1      -3.174   1.073  24.380  0.00  0.00    +0.117 C 
ATOM     10  N   UNL     1      -3.024   1.799  24.019  0.00  0.00    -0.258 N 
ATOM     19  C   UNL     1      -2.218   1.837  23.849  0.00  0.00    +0.308 C 
ATOM     20  O   UNL     1      -1.828   2.468  23.486  0.00  0.00    -0.252 OA
ATOM     21  C   UNL     1      -2.273  -0.080  24.740  0.00  0.00    +0.115 C 
ENDROOT
BRANCH  10  11
ATOM     11  C   UNL     1      -3.582   2.384  23.855  0.00  0.00    +0.122 C 
BRANCH  11  12
ATOM     12  C   UNL     1      -4.142   2.592  24.425  0.00  0.00    -0.002 A 
ATOM     13  C   UNL     1      -4.873   2.209  24.444  0.00  0.00    -0.000 A 
ATOM     14  C   UNL     1      -5.432   2.417  25.015  0.00  0.00    +0.029 A 
ATOM     15  C   UNL     1      -5.261   3.007  25.564  0.00  0.00    +0.140 A 
ATOM     16  F   UNL     1      -5.820   3.216  26.134  0.00  0.00    -0.204 F 
ATOM     17  C   UNL     1      -4.530   3.390  25.544  0.00  0.00    +0.029 A 
ATOM     18  C   UNL     1      -3.971   3.183  24.975  0.00  0.00    -0.000 A 
ENDBRANCH  11  12
ENDBRANCH  10  11
TORSDOF 2
ENDMDL
MODEL 6
REMARK VINA RESULT:     -10.0      2.223      3.455
REMARK  Name = 
REMARK  2 active torsions:
REMARK  status: ('A' for Active; 'I' for Inactive)
REMARK    1  A    between atoms: N_10  and  C_11
REMARK    2  A    between atoms: C_11  and  C_12
REMARK                            x       y       z     vdW  Elec       q    Type
REMARK                         _______ _______ _______ _____ _____    ______ ____
ROOT
ATOM      1  C   UNL     1       0.850   1.643  23.733  0.00  0.00    +0.095 C 
ATOM      2  C   UNL     1       0.443   0.938  23.866  0.00  0.00    +0.226 C 
ATOM      3  O   UNL     1       0.815   0.214  23.728  0.00  0.00    -0.275 OA
ATOM      4  N   UNL     1      -0.337   0.957  24.137  0.00  0.00    -0.276 N 
ATOM      5  C   UNL     1      -0.708   1.681  24.274  0.00  0.00    +0.115 C 
ATOM      6  C   UNL     1      -1.487   1.700  24.545  0.00  0.00    +0.116 C 
ATOM      7  N   UNL     1      -1.895   0.995  24.678  0.00  0.00    -0.261 N 
ATOM      8  C   UNL     1      -1.524   0.271  24.540  0.00  0.00    +0.116 C 
ATOM      9  C   UNL     1      -2.060  -0.328  24.719  0.00  0.00    +0.117 C 
ATOM     10  N   UNL     1      -2.763   0.024  24.967  0.00  0.00    -0.258 N 
ATOM     19  C   UNL     1      -2.661   0.842  24.941  0.00  0.00    +0.308 C 
ATOM     20  O   UNL     1      -3.226   1.408  25.144  0.00  0.00    -0.252 OA
ATOM     21  C   UNL     1      -0.744   0.252  24.269  0.00  0.00    +0.115 C 
ENDROOT
BRANCH  10  11
ATOM     11  C   UNL     1      -3.448  -0.372  25.200  0.00  0.00    +0.122 C 
BRANCH  11  12
ATOM     12  C   UNL     1      -3.637  -1.103  24.867  0.00  0.00    -0.002 A 
ATOM     13  C   UNL     1      -3.392  -1.800  25.234  0.00  0.00    -0.000 A 
ATOM     14  C   UNL     1      -3.581  -2.530  24.899  0.00  0.00    +0.029 A 
ATOM     15  C   UNL     1      -4.014  -2.564  24.199  0.00  0.00    +0.140 A 
ATOM     16  F   UNL     1      -4.203  -3.294  23.864  0.00  0.00    -0.204 F 
ATOM     17  C   UNL     1      -4.259  -1.867  23.832  0.00  0.00    +0.029 A 
ATOM     18  C   UNL     1      -4.071  -1.136  24.165  0.00  0.00    -0.000 A 
ENDBRANCH  11  12
ENDBRANCH  10  11
TORSDOF 2
ENDMDL
MODEL 7
REMARK VINA RESULT:      -8.2     17.941     19.053
REMARK  Name = 
REMARK  2 active torsions:
REMARK  status: ('A' for Active; 'I' for Inactive)
REMARK    1  A    between atoms: N_10  and  C_11
REMARK    2  A    between atoms: C_11  and  C_12
REMARK                            x       y       z     vdW  Elec       q    Type
REMARK                         _______ _______ _______ _____ _____    ______ ____
ROOT
ATOM      1  C   UNL     1      16.280   6.546  19.765  0.00  0.00    +0.095 C 
ATOM      2  C   UNL     1      15.662   6.587  20.309  0.00  0.00    +0.226 C 
ATOM      3  O   UNL     1      15.811   6.481  21.113  0.00  0.00    -0.275 OA
ATOM      4  N   UNL     1      14.892   6.735  20.048  0.00  0.00    -0.276 N 
ATOM      5  C   UNL     1      14.743   6.842  19.244  0.00  0.00    +0.115 C 
ATOM      6  C   UNL     1      13.974   6.989  18.984  0.00  0.00    +0.116 C 
ATOM      7  N   UNL     1      13.355   7.031  19.527  0.00  0.00    -0.261 N 
ATOM      8  C   UNL     1      13.504   6.924  20.331  0.00  0.00    +0.116 C 
ATOM      9  C   UNL     1      12.789   6.995  20.735  0.00  0.00    +0.117 C 
ATOM     10  N   UNL     1      12.197   7.145  20.181  0.00  0.00    -0.258 N 
ATOM     19  C   UNL     1      12.547   7.167  19.435  0.00  0.00    +0.308 C 
ATOM     20  O   UNL     1      12.157   7.302  18.720  0.00  0.00    -0.252 OA
ATOM     21  C   UNL     1      14.274   6.776  20.592  0.00  0.00    +0.115 C 
ENDROOT
BRANCH  10  11
ATOM     11  C   UNL     1      11.396   7.254  20.345  0.00  0.00    +0.122 C 
BRANCH  11  12
ATOM     12  C   UNL     1      11.165   7.713  20.990  0.00  0.00    -0.002 A 
ATOM     13  C   UNL     1      10.948   7.351  21.699  0.00  0.00    -0.000 A 
ATOM     14  C   UNL     1      10.717   7.811  22.343  0.00  0.00    +0.029 A 
ATOM     15  C   UNL     1      10.703   8.633  22.280  0.00  0.00    +0.140 A 
ATOM     16  F   UNL     1      10.472   9.094  22.924  0.00  0.00    -0.204 F 
ATOM     17  C   UNL     1      10.920   8.996  21.571  0.00  0.00    +0.029 A 
ATOM     18  C   UNL     1      11.151   8.537  20.926  0.00  0.00    -0.000 A 
ENDBRANCH  11  12
ENDBRANCH  10  11
TORSDOF 2
ENDMDL
MODEL 8
REMARK VINA RESULT:      -8.1     17.956     19.014
REMARK  Name = 
REMARK  2 active torsions:
REMARK  status: ('A' for Active; 'I' for Inactive)
REMARK    1  A    between atoms: N_10  and  C_11
REMARK    2  A    between atoms: C_11  and  C_12
REMARK                            x       y       z     vdW  Elec       q    Type
REMARK                         _______ _______ _______ _____ _____    ______ ____
ROOT
ATOM      1  C   UNL     1      14.038   8.192  16.607  0.00  0.00    +0.095 C 
ATOM      2  C   UNL     1      13.393   8.042  17.099  0.00  0.00    +0.226 C 
ATOM      3  O   UNL     1      12.626   8.167  16.824  0.00  0.00    -0.275 OA
ATOM      4  N   UNL     1      13.517   7.767  17.868  0.00  0.00    -0.276 N 
ATOM      5  C   UNL     1      14.285   7.642  18.143  0.00  0.00    +0.115 C 
ATOM      6  C   UNL     1      14.408   7.367  18.910  0.00  0.00    +0.116 C 
ATOM      7  N   UNL     1      13.764   7.217  19.404  0.00  0.00    -0.261 N 
ATOM      8  C   UNL     1      12.996   7.342  19.129  0.00  0.00    +0.116 C 
ATOM      9  C   UNL     1      12.473   7.147  19.736  0.00  0.00    +0.117 C 
ATOM     10  N   UNL     1      12.917   6.902  20.386  0.00  0.00    -0.258 N 
ATOM     19  C   UNL     1      13.714   6.945  20.180  0.00  0.00    +0.308 C 
ATOM     20  O   UNL     1      14.352   6.751  20.667  0.00  0.00    -0.252 OA
ATOM     21  C   UNL     1      12.873   7.617  18.360  0.00  0.00    +0.115 C 
ENDROOT
BRANCH  10  11
ATOM     11  C   UNL     1      12.616   6.656  21.114  0.00  0.00    +0.122 C 
BRANCH  11  12
ATOM     12  C   UNL     1      11.981   7.057  21.455  0.00  0.00    -0.002 A 
ATOM     13  C   UNL     1      12.104   7.779  21.835  0.00  0.00    -0.000 A 
ATOM     14  C   UNL     1      11.468   8.179  22.176  0.00  0.00    +0.029 A 
ATOM     15  C   UNL     1      10.710   7.859  22.136  0.00  0.00    +0.140 A 
ATOM     16  F   UNL     1      10.074   8.259  22.477  0.00  0.00    -0.204 F 
ATOM     17  C   UNL     1      10.587   7.137  21.756  0.00  0.00    +0.029 A 
ATOM     18  C   UNL     1      11.222   6.736  21.415  0.00  0.00    -0.000 A 
ENDBRANCH  11  12
ENDBRANCH  10  11
TORSDOF 2
ENDMDL
MODEL 9
REMARK VINA RESULT:      -7.9     18.887     19.771
REMARK  Name = 
REMARK  2 active torsions:
REMARK  status: ('A' for Active; 'I' for Inactive)
REMARK    1  A    between atoms: N_10  and  C_11
REMARK    2  A    between atoms: C_11  and  C_12
REMARK                            x       y       z     vdW  Elec       q    Type
REMARK                         _______ _______ _______ _____ _____    ______ ____
ROOT
ATOM      1  C   UNL     1      10.541   7.214  21.655  0.00  0.00    +0.095 C 
ATOM      2  C   UNL     1      11.226   6.834  21.397  0.00  0.00    +0.226 C 
ATOM      3  O   UNL     1      11.385   6.061  21.635  0.00  0.00    -0.275 OA
ATOM      4  N   UNL     1      11.753   7.230  20.899  0.00  0.00    -0.276 N 
ATOM      5  C   UNL     1      11.594   8.003  20.660  0.00  0.00    +0.115 C 
ATOM      6  C   UNL     1      12.120   8.397  20.163  0.00  0.00    +0.116 C 
ATOM      7  N   UNL     1      12.806   8.019  19.903  0.00  0.00    -0.261 N 
ATOM      8  C   UNL     1      12.965   7.245  20.142  0.00  0.00    +0.116 C 
ATOM      9  C   UNL     1      13.679   7.015  19.800  0.00  0.00    +0.117 C 
ATOM     10  N   UNL     1      13.962   7.646  19.351  0.00  0.00    -0.258 N 
ATOM     19  C   UNL     1      13.422   8.266  19.415  0.00  0.00    +0.308 C 
ATOM     20  O   UNL     1      13.487   9.005  19.052  0.00  0.00    -0.252 OA
ATOM     21  C   UNL     1      12.438   6.850  20.640  0.00  0.00    +0.115 C 
ENDROOT
BRANCH  10  11
ATOM     11  C   UNL     1      14.662   7.655  18.914  0.00  0.00    +0.122 C 
BRANCH  11  12
ATOM     12  C   UNL     1      15.347   7.317  19.225  0.00  0.00    -0.002 A 
ATOM     13  C   UNL     1      15.585   6.566  18.980  0.00  0.00    -0.000 A 
ATOM     14  C   UNL     1      16.271   6.230  19.292  0.00  0.00    +0.029 A 
ATOM     15  C   UNL     1      16.718   6.644  19.847  0.00  0.00    +0.140 A 
ATOM     16  F   UNL     1      17.404   6.307  20.159  0.00  0.00    -0.204 F 
ATOM     17  C   UNL     1      16.480   7.395  20.092  0.00  0.00    +0.029 A 
ATOM     18  C   UNL     1      15.795   7.732  19.781  0.00  0.00    -0.000 A 
ENDBRANCH  11  12
ENDBRANCH  10  11
TORSDOF 2
ENDMDL
MODEL 10
REMARK VINA RESULT:      -7.5     17.506     18.519
REMARK  Name = 
REMARK  2 active torsions:
REMARK  status: ('A' for Active; 'I' for Inactive)
REMARK    1  A    between atoms: N_10  and  C_11
REMARK    2  A    between atoms: C_11  and  C_12
REMARK                            x       y       z     vdW  Elec       q    Type
REMARK                         _______ _______ _______ _____ _____    ______ ____
ROOT
ATOM      1  C   UNL     1      11.475   9.052  15.709  0.00  0.00    +0.095 C 
ATOM      2  C   UNL     1      11.143   8.786  16.415  0.00  0.00    +0.226 C 
ATOM      3  O   UNL     1      10.366   8.509  16.427  0.00  0.00    -0.275 OA
ATOM      4  N   UNL     1      11.588   8.796  17.110  0.00  0.00    -0.276 N 
ATOM      5  C   UNL     1      12.365   9.073  17.098  0.00  0.00    +0.115 C 
ATOM      6  C   UNL     1      12.810   9.083  17.792  0.00  0.00    +0.116 C 
ATOM      7  N   UNL     1      12.479   8.817  18.499  0.00  0.00    -0.261 N 
ATOM      8  C   UNL     1      11.702   8.540  18.511  0.00  0.00    +0.116 C 
ATOM      9  C   UNL     1      11.524   8.314  19.284  0.00  0.00    +0.117 C 
ATOM     10  N   UNL     1      12.190   8.451  19.750  0.00  0.00    -0.258 N 
ATOM     19  C   UNL     1      12.780   8.762  19.264  0.00  0.00    +0.308 C 
ATOM     20  O   UNL     1      13.540   8.979  19.503  0.00  0.00    -0.252 OA
ATOM     21  C   UNL     1      11.256   8.530  17.816  0.00  0.00    +0.115 C 
ENDROOT
BRANCH  10  11
ATOM     11  C   UNL     1      12.256   8.303  20.559  0.00  0.00    +0.122 C 
BRANCH  11  12
ATOM     12  C   UNL     1      11.842   7.675  20.899  0.00  0.00    -0.002 A 
ATOM     13  C   UNL     1      12.162   6.915  20.886  0.00  0.00    -0.000 A 
ATOM     14  C   UNL     1      11.747   6.288  21.226  0.00  0.00    +0.029 A 
ATOM     15  C   UNL     1      11.014   6.421  21.579  0.00  0.00    +0.140 A 
ATOM     16  F   UNL     1      10.599   5.794  21.919  0.00  0.00    -0.204 F 
ATOM     17  C   UNL     1      10.694   7.181  21.591  0.00  0.00    +0.029 A 
ATOM     18  C   UNL     1      11.108   7.809  21.251  0.00  0.00    -0.000 A 
ENDBRANCH  11  12
ENDBRANCH  10  11
TORSDOF 2
ENDMDL
