MODEL 1
REMARK VINA RESULT:     -11.9      0.000      0.000
REMARK  Name = 
REMARK  2 active torsions:
REMARK  status: ('A' for Active; 'I' for Inactive)
REMARK    1  A    between atoms: C_3  and  C_11
REMARK    2  A    between atoms: N_14  and  C_16
REMARK                            x       y       z     vdW  Elec       q    Type
REMARK                         _______ _______ _______ _____ _____    ______ ____
ROOT
ATOM     11  C   UNL     1      -3.774   0.565  24.315  0.00  0.00    +0.074 C 
ATOM     12  C   UNL     1      -3.390   1.059  23.778  0.00  0.00    +0.026 C 
ATOM     13  C   UNL     1      -3.601   1.838  23.951  0.00  0.00    +0.073 C 
ATOM     14  N   UNL     1      -4.117   1.825  24.595  0.00  0.00    -0.274 NA
ATOM     15  C   UNL     1      -4.224   1.038  24.820  0.00  0.00    +0.080 C 
ENDROOT
BRANCH  11   3
ATOM      1  C   UNL     1      -2.565  -0.382  25.244  0.00  0.00    +0.132 C 
ATOM      2  N   UNL     1      -3.163  -0.693  24.770  0.00  0.00    -0.313 N 
ATOM      3  C   UNL     1      -3.720  -0.258  24.342  0.00  0.00    +0.121 A 
ATOM      4  N   UNL     1      -4.211  -0.790  23.948  0.00  0.00    -0.231 NA
ATOM      5  C   UNL     1      -3.959  -1.553  24.131  0.00  0.00    +0.098 A 
ATOM      6  C   UNL     1      -3.311  -1.493  24.639  0.00  0.00    +0.079 A 
ATOM      7  C   UNL     1      -2.941  -2.176  24.916  0.00  0.00    +0.019 A 
ATOM      8  C   UNL     1      -3.217  -2.918  24.686  0.00  0.00    +0.002 A 
ATOM      9  C   UNL     1      -3.864  -2.978  24.178  0.00  0.00    +0.002 A 
ATOM     10  C   UNL     1      -4.235  -2.296  23.900  0.00  0.00    +0.021 A 
ENDBRANCH  11   3
BRANCH  14  16
ATOM     16  C   UNL     1      -4.464   2.482  24.951  0.00  0.00    +0.058 C 
ATOM     17  C   UNL     1      -4.003   3.139  25.143  0.00  0.00    +0.016 C 
ATOM     18  C   UNL     1      -4.350   3.797  25.500  0.00  0.00    +0.001 C 
ATOM     19  C   UNL     1      -5.158   3.798  25.664  0.00  0.00    +0.000 C 
ATOM     20  C   UNL     1      -5.620   3.143  25.472  0.00  0.00    +0.001 C 
ATOM     21  C   UNL     1      -5.272   2.484  25.115  0.00  0.00    +0.016 C 
ENDBRANCH  14  16
TORSDOF 2
ENDMDL
MODEL 2
REMARK VINA RESULT:     -11.9      1.652      4.711
REMARK  Name = 
REMARK  2 active torsions:
REMARK  status: ('A' for Active; 'I' for Inactive)
REMARK    1  A    between atoms: C_3  and  C_11
REMARK    2  A    between atoms: N_14  and  C_16
REMARK                            x       y       z     vdW  Elec       q    Type
REMARK                         _______ _______ _______ _____ _____    ______ ____
ROOT
ATOM     11  C   UNL     1      -3.325   1.753  24.756  0.00  0.00    +0.074 C 
ATOM     12  C   UNL     1      -4.129   1.758  24.572  0.00  0.00    +0.026 C 
ATOM     13  C   UNL     1      -4.386   0.975  24.530  0.00  0.00    +0.073 C 
ATOM     14  N   UNL     1      -3.740   0.486  24.687  0.00  0.00    -0.274 NA
ATOM     15  C   UNL     1      -3.084   0.967  24.827  0.00  0.00    +0.080 C 
ENDROOT
BRANCH  11   3
ATOM      1  C   UNL     1      -3.809   3.302  25.524  0.00  0.00    +0.132 C 
ATOM      2  N   UNL     1      -3.068   3.130  25.205  0.00  0.00    -0.313 N 
ATOM      3  C   UNL     1      -2.845   2.417  24.852  0.00  0.00    +0.121 A 
ATOM      4  N   UNL     1      -2.059   2.487  24.612  0.00  0.00    -0.231 NA
ATOM      5  C   UNL     1      -1.796   3.241  24.817  0.00  0.00    +0.098 A 
ATOM      6  C   UNL     1      -2.419   3.638  25.183  0.00  0.00    +0.079 A 
ATOM      7  C   UNL     1      -2.315   4.412  25.450  0.00  0.00    +0.019 A 
ATOM      8  C   UNL     1      -1.589   4.789  25.350  0.00  0.00    +0.002 A 
ATOM      9  C   UNL     1      -0.965   4.391  24.983  0.00  0.00    +0.002 A 
ATOM     10  C   UNL     1      -1.068   3.618  24.717  0.00  0.00    +0.021 A 
ENDBRANCH  11   3
BRANCH  14  16
ATOM     16  C   UNL     1      -3.749  -0.339  24.702  0.00  0.00    +0.058 C 
ATOM     17  C   UNL     1      -3.968  -0.761  24.027  0.00  0.00    +0.016 C 
ATOM     18  C   UNL     1      -3.976  -1.585  24.042  0.00  0.00    +0.001 C 
ATOM     19  C   UNL     1      -3.766  -1.988  24.730  0.00  0.00    +0.000 C 
ATOM     20  C   UNL     1      -3.546  -1.567  25.404  0.00  0.00    +0.001 C 
ATOM     21  C   UNL     1      -3.538  -0.741  25.390  0.00  0.00    +0.016 C 
ENDBRANCH  14  16
TORSDOF 2
ENDMDL
MODEL 3
REMARK VINA RESULT:     -11.7      0.585      4.547
REMARK  Name = 
REMARK  2 active torsions:
REMARK  status: ('A' for Active; 'I' for Inactive)
REMARK    1  A    between atoms: C_3  and  C_11
REMARK    2  A    between atoms: N_14  and  C_16
REMARK                            x       y       z     vdW  Elec       q    Type
REMARK                         _______ _______ _______ _____ _____    ______ ____
ROOT
ATOM     11  C   UNL     1      -3.968   0.738  24.395  0.00  0.00    +0.074 C 
ATOM     12  C   UNL     1      -3.588   0.620  23.672  0.00  0.00    +0.026 C 
ATOM     13  C   UNL     1      -3.433  -0.187  23.593  0.00  0.00    +0.073 C 
ATOM     14  N   UNL     1      -3.719  -0.568  24.267  0.00  0.00    -0.274 NA
ATOM     15  C   UNL     1      -4.049   0.003  24.762  0.00  0.00    +0.080 C 
ENDROOT
BRANCH  11   3
ATOM      1  C   UNL     1      -2.917   2.121  24.846  0.00  0.00    +0.132 C 
ATOM      2  N   UNL     1      -3.739   2.098  24.904  0.00  0.00    -0.313 N 
ATOM      3  C   UNL     1      -4.223   1.462  24.697  0.00  0.00    +0.121 A 
ATOM      4  N   UNL     1      -5.005   1.678  24.844  0.00  0.00    -0.231 NA
ATOM      5  C   UNL     1      -5.005   2.446  25.143  0.00  0.00    +0.098 A 
ATOM      6  C   UNL     1      -4.223   2.706  25.180  0.00  0.00    +0.079 A 
ATOM      7  C   UNL     1      -4.053   3.463  25.460  0.00  0.00    +0.019 A 
ATOM      8  C   UNL     1      -4.664   3.960  25.703  0.00  0.00    +0.002 A 
ATOM      9  C   UNL     1      -5.447   3.701  25.666  0.00  0.00    +0.002 A 
ATOM     10  C   UNL     1      -5.618   2.944  25.386  0.00  0.00    +0.021 A 
ENDBRANCH  11   3
BRANCH  14  16
ATOM     16  C   UNL     1      -3.680  -1.378  24.419  0.00  0.00    +0.058 C 
ATOM     17  C   UNL     1      -4.064  -1.910  23.918  0.00  0.00    +0.016 C 
ATOM     18  C   UNL     1      -4.026  -2.719  24.069  0.00  0.00    +0.001 C 
ATOM     19  C   UNL     1      -3.604  -2.997  24.721  0.00  0.00    +0.000 C 
ATOM     20  C   UNL     1      -3.221  -2.466  25.222  0.00  0.00    +0.001 C 
ATOM     21  C   UNL     1      -3.259  -1.656  25.071  0.00  0.00    +0.016 C 
ENDBRANCH  14  16
TORSDOF 2
ENDMDL
MODEL 4
REMARK VINA RESULT:     -11.7      0.912      1.314
REMARK  Name = 
REMARK  2 active torsions:
REMARK  status: ('A' for Active; 'I' for Inactive)
REMARK    1  A    between atoms: C_3  and  C_11
REMARK    2  A    between atoms: N_14  and  C_16
REMARK                            x       y       z     vdW  Elec       q    Type
REMARK                         _______ _______ _______ _____ _____    ______ ____
ROOT
ATOM     11  C   UNL     1      -3.102   0.858  24.253  0.00  0.00    +0.074 C 
ATOM     12  C   UNL     1      -2.853   1.296  23.600  0.00  0.00    +0.026 C 
ATOM     13  C   UNL     1      -2.774   2.083  23.835  0.00  0.00    +0.073 C 
ATOM     14  N   UNL     1      -2.974   2.132  24.634  0.00  0.00    -0.274 NA
ATOM     15  C   UNL     1      -3.177   1.375  24.893  0.00  0.00    +0.080 C 
ENDROOT
BRANCH  11   3
ATOM      1  C   UNL     1      -2.003  -0.405  24.899  0.00  0.00    +0.132 C 
ATOM      2  N   UNL     1      -2.744  -0.534  24.563  0.00  0.00    -0.313 N 
ATOM      3  C   UNL     1      -3.250   0.047  24.266  0.00  0.00    +0.121 A 
ATOM      4  N   UNL     1      -3.929  -0.327  23.984  0.00  0.00    -0.231 NA
ATOM      5  C   UNL     1      -3.843  -1.138  24.106  0.00  0.00    +0.098 A 
ATOM      6  C   UNL     1      -3.111  -1.266  24.464  0.00  0.00    +0.079 A 
ATOM      7  C   UNL     1      -2.874  -2.033  24.654  0.00  0.00    +0.019 A 
ATOM      8  C   UNL     1      -3.368  -2.671  24.486  0.00  0.00    +0.002 A 
ATOM      9  C   UNL     1      -4.100  -2.543  24.128  0.00  0.00    +0.002 A 
ATOM     10  C   UNL     1      -4.338  -1.777  23.938  0.00  0.00    +0.021 A 
ENDBRANCH  11   3
BRANCH  14  16
ATOM     16  C   UNL     1      -2.972   2.817  25.093  0.00  0.00    +0.058 C 
ATOM     17  C   UNL     1      -3.685   3.146  25.346  0.00  0.00    +0.016 C 
ATOM     18  C   UNL     1      -3.683   3.831  25.805  0.00  0.00    +0.001 C 
ATOM     19  C   UNL     1      -2.969   4.186  26.012  0.00  0.00    +0.000 C 
ATOM     20  C   UNL     1      -2.256   3.858  25.760  0.00  0.00    +0.001 C 
ATOM     21  C   UNL     1      -2.257   3.172  25.300  0.00  0.00    +0.016 C 
ENDBRANCH  14  16
TORSDOF 2
ENDMDL
