MODEL 1
REMARK VINA RESULT:     -12.5      0.000      0.000
REMARK  Name = 
REMARK  8 active torsions:
REMARK  status: ('A' for Active; 'I' for Inactive)
REMARK    1  A    between atoms: O_2  and  C_3
REMARK    2  A    between atoms: C_4  and  C_5
REMARK    3  A    between atoms: C_5  and  N_6
REMARK    4  A    between atoms: C_7  and  C_9
REMARK    5  A    between atoms: C_9  and  C_11
REMARK    6  A    between atoms: C_18  and  N_19
REMARK    7  A    between atoms: C_20  and  C_22
REMARK    8  A    between atoms: C_22  and  C_23
REMARK                            x       y       z     vdW  Elec       q    Type
REMARK                         _______ _______ _______ _____ _____    ______ ____
ROOT
ATOM     11  C   UNL     1      -4.482   2.825  24.823  0.00  0.00    +0.039 C 
ATOM     12  C   UNL     1      -5.111   2.705  25.342  0.00  0.00    +0.003 C 
ATOM     13  C   UNL     1      -5.396   1.943  25.477  0.00  0.00    +0.000 C 
ATOM     14  C   UNL     1      -5.051   1.300  25.092  0.00  0.00    +0.002 C 
ATOM     15  C   UNL     1      -5.681   1.180  25.611  0.00  0.00    +0.000 C 
ATOM     16  C   UNL     1      -5.335   0.538  25.226  0.00  0.00    +0.002 C 
ATOM     17  C   UNL     1      -4.991  -0.106  24.841  0.00  0.00    +0.022 C 
ATOM     18  C   UNL     1      -4.361   0.014  24.321  0.00  0.00    +0.095 C 
ATOM     27  C   UNL     1      -4.076   0.777  24.187  0.00  0.00    +0.022 C 
ATOM     28  C   UNL     1      -3.447   0.897  23.668  0.00  0.00    +0.002 C 
ATOM     29  C   UNL     1      -4.421   1.419  24.572  0.00  0.00    +0.032 C 
ATOM     30  C   UNL     1      -4.136   2.183  24.438  0.00  0.00    +0.152 C 
ATOM     31  O   UNL     1      -3.508   2.302  23.919  0.00  0.00    -0.223 OA
ENDROOT
BRANCH  18  19
ATOM     19  N   UNL     1      -4.016  -0.629  23.936  0.00  0.00    -0.207 NA
ATOM     20  C   UNL     1      -3.816  -1.307  24.363  0.00  0.00    +0.241 C 
ATOM     21  O   UNL     1      -3.963  -1.342  25.174  0.00  0.00    -0.273 OA
BRANCH  20  22
ATOM     22  C   UNL     1      -3.471  -1.949  23.977  0.00  0.00    +0.087 C 
BRANCH  22  23
ATOM     23  C   UNL     1      -3.321  -2.646  24.393  0.00  0.00    +0.009 C 
ATOM     24  C   UNL     1      -3.171  -3.343  24.808  0.00  0.00    +0.000 C 
ATOM     25  C   UNL     1      -4.068  -2.929  24.187  0.00  0.00    +0.000 C 
ATOM     26  C   UNL     1      -2.574  -2.363  24.600  0.00  0.00    +0.000 C 
ENDBRANCH  22  23
ENDBRANCH  20  22
ENDBRANCH  18  19
BRANCH  11   9
ATOM      9  C   UNL     1      -4.197   3.588  24.688  0.00  0.00    +0.081 C 
ATOM     10  C   UNL     1      -4.451   4.013  24.030  0.00  0.00    +0.010 C 
BRANCH   9   7
ATOM      6  N   UNL     1      -2.865   4.003  24.997  0.00  0.00    -0.200 NA
ATOM      7  C   UNL     1      -3.657   3.925  25.214  0.00  0.00    +0.241 C 
ATOM      8  O   UNL     1      -3.910   4.183  25.956  0.00  0.00    -0.273 OA
BRANCH   6   5
ATOM      5  C   UNL     1      -2.325   4.340  25.522  0.00  0.00    +0.144 C 
BRANCH   5   4
ATOM      3  C   UNL     1      -0.938   4.015  25.416  0.00  0.00    +0.136 A 
ATOM      4  C   UNL     1      -1.564   4.530  25.266  0.00  0.00    +0.033 A 
ATOM     32  C   UNL     1      -1.430   5.235  24.860  0.00  0.00    +0.000 A 
ATOM     33  C   UNL     1      -0.669   5.425  24.603  0.00  0.00    -0.000 A 
ATOM     34  C   UNL     1      -0.043   4.910  24.754  0.00  0.00    +0.003 A 
ATOM     35  C   UNL     1      -0.177   4.205  25.160  0.00  0.00    +0.037 A 
BRANCH   3   2
ATOM      1  C   UNL     1      -0.446   2.796  25.975  0.00  0.00    +0.252 C 
ATOM      2  O   UNL     1      -1.072   3.309  25.823  0.00  0.00    -0.472 OA
ENDBRANCH   3   2
ENDBRANCH   5   4
ENDBRANCH   6   5
ENDBRANCH   9   7
ENDBRANCH  11   9
TORSDOF 8
ENDMDL
MODEL 2
REMARK VINA RESULT:     -12.1      1.807      3.621
REMARK  Name = 
REMARK  8 active torsions:
REMARK  status: ('A' for Active; 'I' for Inactive)
REMARK    1  A    between atoms: O_2  and  C_3
REMARK    2  A    between atoms: C_4  and  C_5
REMARK    3  A    between atoms: C_5  and  N_6
REMARK    4  A    between atoms: C_7  and  C_9
REMARK    5  A    between atoms: C_9  and  C_11
REMARK    6  A    between atoms: C_18  and  N_19
REMARK    7  A    between atoms: C_20  and  C_22
REMARK    8  A    between atoms: C_22  and  C_23
REMARK                            x       y       z     vdW  Elec       q    Type
REMARK                         _______ _______ _______ _____ _____    ______ ____
ROOT
ATOM     11  C   UNL     1      -0.246   1.869  25.093  0.00  0.00    +0.039 C 
ATOM     12  C   UNL     1       0.176   1.834  24.385  0.00  0.00    +0.003 C 
ATOM     13  C   UNL     1       0.205   1.131  23.956  0.00  0.00    +0.000 C 
ATOM     14  C   UNL     1      -0.188   0.461  24.235  0.00  0.00    +0.002 C 
ATOM     15  C   UNL     1       0.233   0.426  23.527  0.00  0.00    +0.000 C 
ATOM     16  C   UNL     1      -0.160  -0.243  23.806  0.00  0.00    +0.002 C 
ATOM     17  C   UNL     1      -0.553  -0.913  24.085  0.00  0.00    +0.022 C 
ATOM     18  C   UNL     1      -0.975  -0.878  24.793  0.00  0.00    +0.095 C 
ATOM     27  C   UNL     1      -1.003  -0.174  25.223  0.00  0.00    +0.022 C 
ATOM     28  C   UNL     1      -1.425  -0.139  25.930  0.00  0.00    +0.002 C 
ATOM     29  C   UNL     1      -0.610   0.495  24.943  0.00  0.00    +0.032 C 
ATOM     30  C   UNL     1      -0.639   1.200  25.373  0.00  0.00    +0.152 C 
ATOM     31  O   UNL     1      -1.060   1.235  26.080  0.00  0.00    -0.223 OA
ENDROOT
BRANCH  18  19
ATOM     19  N   UNL     1      -1.368  -1.547  25.073  0.00  0.00    -0.207 NA
ATOM     20  C   UNL     1      -2.011  -1.852  24.654  0.00  0.00    +0.241 C 
ATOM     21  O   UNL     1      -2.259  -1.488  23.957  0.00  0.00    -0.273 OA
BRANCH  20  22
ATOM     22  C   UNL     1      -2.404  -2.521  24.934  0.00  0.00    +0.087 C 
BRANCH  22  23
ATOM     23  C   UNL     1      -3.135  -2.732  24.614  0.00  0.00    +0.009 C 
ATOM     24  C   UNL     1      -3.866  -2.943  24.295  0.00  0.00    +0.000 C 
ATOM     25  C   UNL     1      -2.753  -3.178  24.035  0.00  0.00    +0.000 C 
ATOM     26  C   UNL     1      -3.518  -2.286  25.194  0.00  0.00    +0.000 C 
ENDBRANCH  22  23
ENDBRANCH  20  22
ENDBRANCH  18  19
BRANCH  11   9
ATOM      9  C   UNL     1      -0.274   2.574  25.523  0.00  0.00    +0.081 C 
ATOM     10  C   UNL     1       0.165   2.652  26.216  0.00  0.00    +0.010 C 
BRANCH   9   7
ATOM      6  N   UNL     1      -1.547   3.219  25.444  0.00  0.00    -0.200 NA
ATOM      7  C   UNL     1      -0.743   3.199  25.258  0.00  0.00    +0.241 C 
ATOM      8  O   UNL     1      -0.408   3.803  24.807  0.00  0.00    -0.273 OA
BRANCH   6   5
ATOM      5  C   UNL     1      -2.015   3.844  25.179  0.00  0.00    +0.144 C 
BRANCH   5   4
ATOM      3  C   UNL     1      -3.392   3.698  24.824  0.00  0.00    +0.136 A 
ATOM      4  C   UNL     1      -2.814   3.877  25.385  0.00  0.00    +0.033 A 
ATOM     32  C   UNL     1      -3.034   4.088  26.150  0.00  0.00    +0.000 A 
ATOM     33  C   UNL     1      -3.832   4.120  26.357  0.00  0.00    -0.000 A 
ATOM     34  C   UNL     1      -4.409   3.942  25.795  0.00  0.00    +0.003 A 
ATOM     35  C   UNL     1      -4.190   3.730  25.030  0.00  0.00    +0.037 A 
BRANCH   3   2
ATOM      1  C   UNL     1      -3.735   3.193  23.533  0.00  0.00    +0.252 C 
ATOM      2  O   UNL     1      -3.171   3.486  24.057  0.00  0.00    -0.472 OA
ENDBRANCH   3   2
ENDBRANCH   5   4
ENDBRANCH   6   5
ENDBRANCH   9   7
ENDBRANCH  11   9
TORSDOF 8
ENDMDL
MODEL 3
REMARK VINA RESULT:     -10.7      1.978      6.314
REMARK  Name = 
REMARK  8 active torsions:
REMARK  status: ('A' for Active; 'I' for Inactive)
REMARK    1  A    between atoms: O_2  and  C_3
REMARK    2  A    between atoms: C_4  and  C_5
REMARK    3  A    between atoms: C_5  and  N_6
REMARK    4  A    between atoms: C_7  and  C_9
REMARK    5  A    between atoms: C_9  and  C_11
REMARK    6  A    between atoms: C_18  and  N_19
REMARK    7  A    between atoms: C_20  and  C_22
REMARK    8  A    between atoms: C_22  and  C_23
REMARK                            x       y       z     vdW  Elec       q    Type
REMARK                         _______ _______ _______ _____ _____    ______ ____
ROOT
ATOM     11  C   UNL     1      -0.463  -0.612  24.774  0.00  0.00    +0.039 C 
ATOM     12  C   UNL     1      -0.123  -0.593  24.022  0.00  0.00    +0.003 C 
ATOM     13  C   UNL     1       0.109   0.126  23.693  0.00  0.00    +0.000 C 
ATOM     14  C   UNL     1       0.002   0.827  24.114  0.00  0.00    +0.002 C 
ATOM     15  C   UNL     1       0.342   0.846  23.362  0.00  0.00    +0.000 C 
ATOM     16  C   UNL     1       0.234   1.546  23.784  0.00  0.00    +0.002 C 
ATOM     17  C   UNL     1       0.126   2.248  24.205  0.00  0.00    +0.022 C 
ATOM     18  C   UNL     1      -0.214   2.229  24.957  0.00  0.00    +0.095 C 
ATOM     27  C   UNL     1      -0.447   1.509  25.287  0.00  0.00    +0.022 C 
ATOM     28  C   UNL     1      -0.786   1.490  26.038  0.00  0.00    +0.002 C 
ATOM     29  C   UNL     1      -0.338   0.808  24.865  0.00  0.00    +0.032 C 
ATOM     30  C   UNL     1      -0.571   0.088  25.196  0.00  0.00    +0.152 C 
ATOM     31  O   UNL     1      -0.910   0.070  25.946  0.00  0.00    -0.223 OA
ENDROOT
BRANCH  18  19
ATOM     19  N   UNL     1      -0.322   2.930  25.379  0.00  0.00    -0.207 NA
ATOM     20  C   UNL     1      -0.772   3.541  25.054  0.00  0.00    +0.241 C 
ATOM     21  O   UNL     1      -1.112   3.452  24.307  0.00  0.00    -0.273 OA
BRANCH  20  22
ATOM     22  C   UNL     1      -0.880   4.242  25.476  0.00  0.00    +0.087 C 
BRANCH  22  23
ATOM     23  C   UNL     1      -1.343   4.846  25.158  0.00  0.00    +0.009 C 
ATOM     24  C   UNL     1      -1.806   5.451  24.840  0.00  0.00    +0.000 C 
ATOM     25  C   UNL     1      -2.009   4.530  25.527  0.00  0.00    +0.000 C 
ATOM     26  C   UNL     1      -0.677   5.163  24.788  0.00  0.00    +0.000 C 
ENDBRANCH  22  23
ENDBRANCH  20  22
ENDBRANCH  18  19
BRANCH  11   9
ATOM      9  C   UNL     1      -0.695  -1.332  25.104  0.00  0.00    +0.081 C 
ATOM     10  C   UNL     1      -0.312  -1.621  25.774  0.00  0.00    +0.010 C 
BRANCH   9   7
ATOM      6  N   UNL     1      -2.094  -1.530  24.887  0.00  0.00    -0.200 NA
ATOM      7  C   UNL     1      -1.311  -1.762  24.763  0.00  0.00    +0.241 C 
ATOM      8  O   UNL     1      -1.145  -2.423  24.298  0.00  0.00    -0.273 OA
BRANCH   6   5
ATOM      5  C   UNL     1      -2.709  -1.960  24.546  0.00  0.00    +0.144 C 
BRANCH   5   4
ATOM      3  C   UNL     1      -4.047  -2.019  24.045  0.00  0.00    +0.136 A 
ATOM      4  C   UNL     1      -3.443  -1.602  24.421  0.00  0.00    +0.033 A 
ATOM     32  C   UNL     1      -3.571  -0.827  24.672  0.00  0.00    +0.000 A 
ATOM     33  C   UNL     1      -4.303  -0.469  24.548  0.00  0.00    -0.000 A 
ATOM     34  C   UNL     1      -4.907  -0.886  24.172  0.00  0.00    +0.003 A 
ATOM     35  C   UNL     1      -4.779  -1.661  23.921  0.00  0.00    +0.037 A 
BRANCH   3   2
ATOM      1  C   UNL     1      -4.527  -3.216  23.432  0.00  0.00    +0.252 C 
ATOM      2  O   UNL     1      -3.918  -2.795  23.794  0.00  0.00    -0.472 OA
ENDBRANCH   3   2
ENDBRANCH   5   4
ENDBRANCH   6   5
ENDBRANCH   9   7
ENDBRANCH  11   9
TORSDOF 8
ENDMDL
MODEL 4
REMARK VINA RESULT:     -10.6      0.950      5.272
REMARK  Name = 
REMARK  8 active torsions:
REMARK  status: ('A' for Active; 'I' for Inactive)
REMARK    1  A    between atoms: O_2  and  C_3
REMARK    2  A    between atoms: C_4  and  C_5
REMARK    3  A    between atoms: C_5  and  N_6
REMARK    4  A    between atoms: C_7  and  C_9
REMARK    5  A    between atoms: C_9  and  C_11
REMARK    6  A    between atoms: C_18  and  N_19
REMARK    7  A    between atoms: C_20  and  C_22
REMARK    8  A    between atoms: C_22  and  C_23
REMARK                            x       y       z     vdW  Elec       q    Type
REMARK                         _______ _______ _______ _____ _____    ______ ____
ROOT
ATOM     11  C   UNL     1      -4.757   0.975  24.945  0.00  0.00    +0.039 C 
ATOM     12  C   UNL     1      -5.321   1.288  25.459  0.00  0.00    +0.003 C 
ATOM     13  C   UNL     1      -5.318   2.094  25.632  0.00  0.00    +0.000 C 
ATOM     14  C   UNL     1      -4.752   2.588  25.292  0.00  0.00    +0.002 C 
ATOM     15  C   UNL     1      -5.316   2.901  25.806  0.00  0.00    +0.000 C 
ATOM     16  C   UNL     1      -4.750   3.394  25.465  0.00  0.00    +0.002 C 
ATOM     17  C   UNL     1      -4.183   3.888  25.125  0.00  0.00    +0.022 C 
ATOM     18  C   UNL     1      -3.619   3.575  24.611  0.00  0.00    +0.095 C 
ATOM     27  C   UNL     1      -3.621   2.768  24.437  0.00  0.00    +0.022 C 
ATOM     28  C   UNL     1      -3.058   2.455  23.923  0.00  0.00    +0.002 C 
ATOM     29  C   UNL     1      -4.188   2.275  24.778  0.00  0.00    +0.032 C 
ATOM     30  C   UNL     1      -4.190   1.468  24.604  0.00  0.00    +0.152 C 
ATOM     31  O   UNL     1      -3.626   1.155  24.091  0.00  0.00    -0.223 OA
ENDROOT
BRANCH  18  19
ATOM     19  N   UNL     1      -3.052   4.068  24.270  0.00  0.00    -0.207 NA
ATOM     20  C   UNL     1      -2.467   4.410  24.741  0.00  0.00    +0.241 C 
ATOM     21  O   UNL     1      -2.448   4.259  25.551  0.00  0.00    -0.273 OA
BRANCH  20  22
ATOM     22  C   UNL     1      -1.900   4.903  24.400  0.00  0.00    +0.087 C 
BRANCH  22  23
ATOM     23  C   UNL     1      -1.206   5.077  24.810  0.00  0.00    +0.009 C 
ATOM     24  C   UNL     1      -0.512   5.252  25.221  0.00  0.00    +0.000 C 
ATOM     25  C   UNL     1      -1.572   5.733  25.151  0.00  0.00    +0.000 C 
ATOM     26  C   UNL     1      -0.838   4.422  24.470  0.00  0.00    +0.000 C 
ENDBRANCH  22  23
ENDBRANCH  20  22
ENDBRANCH  18  19
BRANCH  11   9
ATOM      9  C   UNL     1      -4.759   0.167  24.771  0.00  0.00    +0.081 C 
ATOM     10  C   UNL     1      -5.211  -0.118  24.145  0.00  0.00    +0.010 C 
BRANCH   9   7
ATOM      6  N   UNL     1      -3.770  -0.861  24.858  0.00  0.00    -0.200 NA
ATOM      7  C   UNL     1      -4.307  -0.353  25.225  0.00  0.00    +0.241 C 
ATOM      8  O   UNL     1      -4.392  -0.365  26.046  0.00  0.00    -0.273 OA
BRANCH   6   5
ATOM      5  C   UNL     1      -3.319  -1.381  25.312  0.00  0.00    +0.144 C 
BRANCH   5   4
ATOM      3  C   UNL     1      -2.006  -1.847  24.996  0.00  0.00    +0.136 A 
ATOM      4  C   UNL     1      -2.825  -1.929  24.942  0.00  0.00    +0.033 A 
ATOM     32  C   UNL     1      -3.149  -2.557  24.519  0.00  0.00    +0.000 A 
ATOM     33  C   UNL     1      -2.656  -3.105  24.149  0.00  0.00    -0.000 A 
ATOM     34  C   UNL     1      -1.837  -3.023  24.203  0.00  0.00    +0.003 A 
ATOM     35  C   UNL     1      -1.512  -2.394  24.626  0.00  0.00    +0.037 A 
BRANCH   3   2
ATOM      1  C   UNL     1      -0.862  -1.129  25.461  0.00  0.00    +0.252 C 
ATOM      2  O   UNL     1      -1.681  -1.218  25.419  0.00  0.00    -0.472 OA
ENDBRANCH   3   2
ENDBRANCH   5   4
ENDBRANCH   6   5
ENDBRANCH   9   7
ENDBRANCH  11   9
TORSDOF 8
ENDMDL
MODEL 5
REMARK VINA RESULT:     -10.5      1.758      5.617
REMARK  Name = 
REMARK  8 active torsions:
REMARK  status: ('A' for Active; 'I' for Inactive)
REMARK    1  A    between atoms: O_2  and  C_3
REMARK    2  A    between atoms: C_4  and  C_5
REMARK    3  A    between atoms: C_5  and  N_6
REMARK    4  A    between atoms: C_7  and  C_9
REMARK    5  A    between atoms: C_9  and  C_11
REMARK    6  A    between atoms: C_18  and  N_19
REMARK    7  A    between atoms: C_20  and  C_22
REMARK    8  A    between atoms: C_22  and  C_23
REMARK                            x       y       z     vdW  Elec       q    Type
REMARK                         _______ _______ _______ _____ _____    ______ ____
ROOT
ATOM     11  C   UNL     1      -0.623   0.754  24.531  0.00  0.00    +0.039 C 
ATOM     12  C   UNL     1      -0.164   1.063  25.143  0.00  0.00    +0.003 C 
ATOM     13  C   UNL     1      -0.387   1.767  25.511  0.00  0.00    +0.000 C 
ATOM     14  C   UNL     1      -1.069   2.162  25.268  0.00  0.00    +0.002 C 
ATOM     15  C   UNL     1      -0.610   2.471  25.880  0.00  0.00    +0.000 C 
ATOM     16  C   UNL     1      -1.293   2.865  25.636  0.00  0.00    +0.002 C 
ATOM     17  C   UNL     1      -1.975   3.260  25.393  0.00  0.00    +0.022 C 
ATOM     18  C   UNL     1      -2.435   2.951  24.782  0.00  0.00    +0.095 C 
ATOM     27  C   UNL     1      -2.211   2.246  24.413  0.00  0.00    +0.022 C 
ATOM     28  C   UNL     1      -2.670   1.938  23.802  0.00  0.00    +0.002 C 
ATOM     29  C   UNL     1      -1.529   1.852  24.656  0.00  0.00    +0.032 C 
ATOM     30  C   UNL     1      -1.305   1.148  24.287  0.00  0.00    +0.152 C 
ATOM     31  O   UNL     1      -1.764   0.840  23.676  0.00  0.00    -0.223 OA
ENDROOT
BRANCH  18  19
ATOM     19  N   UNL     1      -3.117   3.344  24.538  0.00  0.00    -0.207 NA
ATOM     20  C   UNL     1      -3.755   3.424  25.057  0.00  0.00    +0.241 C 
ATOM     21  O   UNL     1      -3.708   3.110  25.818  0.00  0.00    -0.273 OA
BRANCH  20  22
ATOM     22  C   UNL     1      -4.437   3.818  24.813  0.00  0.00    +0.087 C 
BRANCH  22  23
ATOM     23  C   UNL     1      -5.122   3.774  25.270  0.00  0.00    +0.009 C 
ATOM     24  C   UNL     1      -5.808   3.730  25.728  0.00  0.00    +0.000 C 
ATOM     25  C   UNL     1      -4.934   4.496  25.622  0.00  0.00    +0.000 C 
ATOM     26  C   UNL     1      -5.312   3.052  24.918  0.00  0.00    +0.000 C 
ENDBRANCH  22  23
ENDBRANCH  20  22
ENDBRANCH  18  19
BRANCH  11   9
ATOM      9  C   UNL     1      -0.400   0.050  24.162  0.00  0.00    +0.081 C 
ATOM     10  C   UNL     1      -0.028   0.070  23.427  0.00  0.00    +0.010 C 
BRANCH   9   7
ATOM      6  N   UNL     1      -1.295  -1.021  24.469  0.00  0.00    -0.200 NA
ATOM      7  C   UNL     1      -0.549  -0.673  24.530  0.00  0.00    +0.241 C 
ATOM      8  O   UNL     1       0.047  -1.048  24.960  0.00  0.00    -0.273 OA
BRANCH   6   5
ATOM      5  C   UNL     1      -1.444  -1.743  24.837  0.00  0.00    +0.144 C 
BRANCH   5   4
ATOM      3  C   UNL     1      -2.796  -2.021  25.207  0.00  0.00    +0.136 A 
ATOM      4  C   UNL     1      -2.157  -2.137  24.699  0.00  0.00    +0.033 A 
ATOM     32  C   UNL     1      -2.229  -2.645  24.054  0.00  0.00    +0.000 A 
ATOM     33  C   UNL     1      -2.940  -3.038  23.916  0.00  0.00    -0.000 A 
ATOM     34  C   UNL     1      -3.580  -2.923  24.424  0.00  0.00    +0.003 A 
ATOM     35  C   UNL     1      -3.508  -2.415  25.069  0.00  0.00    +0.037 A 
BRANCH   3   2
ATOM      1  C   UNL     1      -3.397  -1.260  26.255  0.00  0.00    +0.252 C 
ATOM      2  O   UNL     1      -2.724  -1.513  25.852  0.00  0.00    -0.472 OA
ENDBRANCH   3   2
ENDBRANCH   5   4
ENDBRANCH   6   5
ENDBRANCH   9   7
ENDBRANCH  11   9
TORSDOF 8
ENDMDL
MODEL 6
REMARK VINA RESULT:     -10.1      3.213      5.465
REMARK  Name = 
REMARK  8 active torsions:
REMARK  status: ('A' for Active; 'I' for Inactive)
REMARK    1  A    between atoms: O_2  and  C_3
REMARK    2  A    between atoms: C_4  and  C_5
REMARK    3  A    between atoms: C_5  and  N_6
REMARK    4  A    between atoms: C_7  and  C_9
REMARK    5  A    between atoms: C_9  and  C_11
REMARK    6  A    between atoms: C_18  and  N_19
REMARK    7  A    between atoms: C_20  and  C_22
REMARK    8  A    between atoms: C_22  and  C_23
REMARK                            x       y       z     vdW  Elec       q    Type
REMARK                         _______ _______ _______ _____ _____    ______ ____
ROOT
ATOM     11  C   UNL     1      -1.572   0.573  24.737  0.00  0.00    +0.039 C 
ATOM     12  C   UNL     1      -1.454   1.329  25.044  0.00  0.00    +0.003 C 
ATOM     13  C   UNL     1      -0.750   1.731  24.892  0.00  0.00    +0.000 C 
ATOM     14  C   UNL     1      -0.163   1.377  24.433  0.00  0.00    +0.002 C 
ATOM     15  C   UNL     1      -0.046   2.134  24.740  0.00  0.00    +0.000 C 
ATOM     16  C   UNL     1       0.540   1.779  24.281  0.00  0.00    +0.002 C 
ATOM     17  C   UNL     1       1.127   1.425  23.821  0.00  0.00    +0.022 C 
ATOM     18  C   UNL     1       1.010   0.669  23.514  0.00  0.00    +0.095 C 
ATOM     27  C   UNL     1       0.305   0.266  23.666  0.00  0.00    +0.022 C 
ATOM     28  C   UNL     1       0.188  -0.489  23.359  0.00  0.00    +0.002 C 
ATOM     29  C   UNL     1      -0.281   0.621  24.125  0.00  0.00    +0.032 C 
ATOM     30  C   UNL     1      -0.986   0.218  24.277  0.00  0.00    +0.152 C 
ATOM     31  O   UNL     1      -1.103  -0.537  23.970  0.00  0.00    -0.223 OA
ENDROOT
BRANCH  18  19
ATOM     19  N   UNL     1       1.596   0.314  23.054  0.00  0.00    -0.207 NA
ATOM     20  C   UNL     1       2.364   0.616  23.062  0.00  0.00    +0.241 C 
ATOM     21  O   UNL     1       2.546   1.271  23.529  0.00  0.00    -0.273 OA
BRANCH  20  22
ATOM     22  C   UNL     1       2.950   0.261  22.603  0.00  0.00    +0.087 C 
BRANCH  22  23
ATOM     23  C   UNL     1       3.745   0.363  22.799  0.00  0.00    +0.009 C 
ATOM     24  C   UNL     1       4.540   0.466  22.995  0.00  0.00    +0.000 C 
ATOM     25  C   UNL     1       3.748   1.089  22.407  0.00  0.00    +0.000 C 
ATOM     26  C   UNL     1       3.743  -0.363  23.191  0.00  0.00    +0.000 C 
ENDBRANCH  22  23
ENDBRANCH  20  22
ENDBRANCH  18  19
BRANCH  11   9
ATOM      9  C   UNL     1      -2.276   0.170  24.889  0.00  0.00    +0.081 C 
ATOM     10  C   UNL     1      -2.286  -0.456  25.424  0.00  0.00    +0.010 C 
BRANCH   9   7
ATOM      6  N   UNL     1      -3.470   0.955  24.850  0.00  0.00    -0.200 NA
ATOM      7  C   UNL     1      -2.970   0.396  24.504  0.00  0.00    +0.241 C 
ATOM      8  O   UNL     1      -3.165   0.063  23.775  0.00  0.00    -0.273 OA
BRANCH   6   5
ATOM      5  C   UNL     1      -4.164   1.180  24.466  0.00  0.00    +0.144 C 
BRANCH   5   4
ATOM      3  C   UNL     1      -4.766   2.466  24.625  0.00  0.00    +0.136 A 
ATOM      4  C   UNL     1      -4.705   1.674  24.847  0.00  0.00    +0.033 A 
ATOM     32  C   UNL     1      -5.182   1.376  25.449  0.00  0.00    +0.000 A 
ATOM     33  C   UNL     1      -5.722   1.869  25.830  0.00  0.00    -0.000 A 
ATOM     34  C   UNL     1      -5.784   2.662  25.608  0.00  0.00    +0.003 A 
ATOM     35  C   UNL     1      -5.306   2.960  25.007  0.00  0.00    +0.037 A 
BRANCH   3   2
ATOM      1  C   UNL     1      -4.260   3.577  23.883  0.00  0.00    +0.252 C 
ATOM      2  O   UNL     1      -4.288   2.765  24.023  0.00  0.00    -0.472 OA
ENDBRANCH   3   2
ENDBRANCH   5   4
ENDBRANCH   6   5
ENDBRANCH   9   7
ENDBRANCH  11   9
TORSDOF 8
ENDMDL
MODEL 7
REMARK VINA RESULT:     -10.0      2.851      4.871
REMARK  Name = 
REMARK  8 active torsions:
REMARK  status: ('A' for Active; 'I' for Inactive)
REMARK    1  A    between atoms: O_2  and  C_3
REMARK    2  A    between atoms: C_4  and  C_5
REMARK    3  A    between atoms: C_5  and  N_6
REMARK    4  A    between atoms: C_7  and  C_9
REMARK    5  A    between atoms: C_9  and  C_11
REMARK    6  A    between atoms: C_18  and  N_19
REMARK    7  A    between atoms: C_20  and  C_22
REMARK    8  A    between atoms: C_22  and  C_23
REMARK                            x       y       z     vdW  Elec       q    Type
REMARK                         _______ _______ _______ _____ _____    ______ ____
ROOT
ATOM     11  C   UNL     1      -2.871  -0.569  24.513  0.00  0.00    +0.039 C 
ATOM     12  C   UNL     1      -2.631  -1.163  25.033  0.00  0.00    +0.003 C 
ATOM     13  C   UNL     1      -1.828  -1.304  25.154  0.00  0.00    +0.000 C 
ATOM     14  C   UNL     1      -1.264  -0.852  24.756  0.00  0.00    +0.002 C 
ATOM     15  C   UNL     1      -1.024  -1.446  25.276  0.00  0.00    +0.000 C 
ATOM     16  C   UNL     1      -0.461  -0.994  24.877  0.00  0.00    +0.002 C 
ATOM     17  C   UNL     1       0.103  -0.542  24.479  0.00  0.00    +0.022 C 
ATOM     18  C   UNL     1      -0.137   0.051  23.958  0.00  0.00    +0.095 C 
ATOM     27  C   UNL     1      -0.941   0.193  23.837  0.00  0.00    +0.022 C 
ATOM     28  C   UNL     1      -1.181   0.786  23.317  0.00  0.00    +0.002 C 
ATOM     29  C   UNL     1      -1.504  -0.259  24.236  0.00  0.00    +0.032 C 
ATOM     30  C   UNL     1      -2.308  -0.117  24.114  0.00  0.00    +0.152 C 
ATOM     31  O   UNL     1      -2.548   0.476  23.594  0.00  0.00    -0.223 OA
ENDROOT
BRANCH  18  19
ATOM     19  N   UNL     1       0.426   0.503  23.559  0.00  0.00    -0.207 NA
ATOM     20  C   UNL     1       1.063   0.133  23.186  0.00  0.00    +0.241 C 
ATOM     21  O   UNL     1       1.136  -0.688  23.213  0.00  0.00    -0.273 OA
BRANCH  20  22
ATOM     22  C   UNL     1       1.626   0.585  22.787  0.00  0.00    +0.087 C 
BRANCH  22  23
ATOM     23  C   UNL     1       2.361   0.259  22.605  0.00  0.00    +0.009 C 
ATOM     24  C   UNL     1       3.097  -0.067  22.422  0.00  0.00    +0.000 C 
ATOM     25  C   UNL     1       2.700   0.671  23.233  0.00  0.00    +0.000 C 
ATOM     26  C   UNL     1       2.023  -0.154  21.975  0.00  0.00    +0.000 C 
ENDBRANCH  22  23
ENDBRANCH  20  22
ENDBRANCH  18  19
BRANCH  11   9
ATOM      9  C   UNL     1      -3.675  -0.427  24.391  0.00  0.00    +0.081 C 
ATOM     10  C   UNL     1      -4.038  -0.682  23.697  0.00  0.00    +0.010 C 
BRANCH   9   7
ATOM      6  N   UNL     1      -4.352   0.750  24.836  0.00  0.00    -0.200 NA
ATOM      7  C   UNL     1      -4.115  -0.030  24.965  0.00  0.00    +0.241 C 
ATOM      8  O   UNL     1      -4.316  -0.411  25.668  0.00  0.00    -0.273 OA
BRANCH   6   5
ATOM      5  C   UNL     1      -4.792   1.148  25.410  0.00  0.00    +0.144 C 
BRANCH   5   4
ATOM      3  C   UNL     1      -5.554   2.318  25.712  0.00  0.00    +0.136 A 
ATOM      4  C   UNL     1      -4.901   1.964  25.353  0.00  0.00    +0.033 A 
ATOM     32  C   UNL     1      -4.358   2.425  24.939  0.00  0.00    +0.000 A 
ATOM     33  C   UNL     1      -4.466   3.241  24.883  0.00  0.00    -0.000 A 
ATOM     34  C   UNL     1      -5.119   3.595  25.241  0.00  0.00    +0.003 A 
ATOM     35  C   UNL     1      -5.662   3.134  25.656  0.00  0.00    +0.037 A 
BRANCH   3   2
ATOM      1  C   UNL     1      -6.631   2.214  26.644  0.00  0.00    +0.252 C 
ATOM      2  O   UNL     1      -6.097   1.857  26.127  0.00  0.00    -0.472 OA
ENDBRANCH   3   2
ENDBRANCH   5   4
ENDBRANCH   6   5
ENDBRANCH   9   7
ENDBRANCH  11   9
TORSDOF 8
ENDMDL
MODEL 8
REMARK VINA RESULT:      -9.8      2.087      4.487
REMARK  Name = 
REMARK  8 active torsions:
REMARK  status: ('A' for Active; 'I' for Inactive)
REMARK    1  A    between atoms: O_2  and  C_3
REMARK    2  A    between atoms: C_4  and  C_5
REMARK    3  A    between atoms: C_5  and  N_6
REMARK    4  A    between atoms: C_7  and  C_9
REMARK    5  A    between atoms: C_9  and  C_11
REMARK    6  A    between atoms: C_18  and  N_19
REMARK    7  A    between atoms: C_20  and  C_22
REMARK    8  A    between atoms: C_22  and  C_23
REMARK                            x       y       z     vdW  Elec       q    Type
REMARK                         _______ _______ _______ _____ _____    ______ ____
ROOT
ATOM     11  C   UNL     1      -1.103   3.407  24.681  0.00  0.00    +0.039 C 
ATOM     12  C   UNL     1      -0.964   3.852  25.361  0.00  0.00    +0.003 C 
ATOM     13  C   UNL     1      -1.597   4.106  25.825  0.00  0.00    +0.000 C 
ATOM     14  C   UNL     1      -2.370   3.914  25.608  0.00  0.00    +0.002 C 
ATOM     15  C   UNL     1      -2.230   4.360  26.289  0.00  0.00    +0.000 C 
ATOM     16  C   UNL     1      -3.003   4.168  26.072  0.00  0.00    +0.002 C 
ATOM     17  C   UNL     1      -3.776   3.976  25.856  0.00  0.00    +0.022 C 
ATOM     18  C   UNL     1      -3.915   3.531  25.175  0.00  0.00    +0.095 C 
ATOM     27  C   UNL     1      -3.281   3.277  24.711  0.00  0.00    +0.022 C 
ATOM     28  C   UNL     1      -3.420   2.832  24.032  0.00  0.00    +0.002 C 
ATOM     29  C   UNL     1      -2.509   3.469  24.928  0.00  0.00    +0.032 C 
ATOM     30  C   UNL     1      -1.875   3.215  24.464  0.00  0.00    +0.152 C 
ATOM     31  O   UNL     1      -2.014   2.770  23.785  0.00  0.00    -0.223 OA
ENDROOT
BRANCH  18  19
ATOM     19  N   UNL     1      -4.687   3.339  24.958  0.00  0.00    -0.207 NA
ATOM     20  C   UNL     1      -5.178   2.940  25.489  0.00  0.00    +0.241 C 
ATOM     21  O   UNL     1      -4.895   2.733  26.237  0.00  0.00    -0.273 OA
BRANCH  20  22
ATOM     22  C   UNL     1      -5.950   2.747  25.272  0.00  0.00    +0.087 C 
BRANCH  22  23
ATOM     23  C   UNL     1      -6.281   2.033  25.519  0.00  0.00    +0.009 C 
ATOM     24  C   UNL     1      -6.612   1.319  25.766  0.00  0.00    +0.000 C 
ATOM     25  C   UNL     1      -6.204   1.734  24.755  0.00  0.00    +0.000 C 
ATOM     26  C   UNL     1      -6.358   2.332  26.285  0.00  0.00    +0.000 C 
ENDBRANCH  22  23
ENDBRANCH  20  22
ENDBRANCH  18  19
BRANCH  11   9
ATOM      9  C   UNL     1      -0.469   3.153  24.217  0.00  0.00    +0.081 C 
ATOM     10  C   UNL     1      -0.297   3.537  23.509  0.00  0.00    +0.010 C 
BRANCH   9   7
ATOM      6  N   UNL     1      -0.195   1.750  24.210  0.00  0.00    -0.200 NA
ATOM      7  C   UNL     1      -0.009   2.514  24.463  0.00  0.00    +0.241 C 
ATOM      8  O   UNL     1       0.638   2.638  24.961  0.00  0.00    -0.273 OA
BRANCH   6   5
ATOM      5  C   UNL     1       0.266   1.111  24.456  0.00  0.00    +0.144 C 
BRANCH   5   4
ATOM      3  C   UNL     1       0.243  -0.168  23.819  0.00  0.00    +0.136 A 
ATOM      4  C   UNL     1      -0.034   0.344  24.405  0.00  0.00    +0.033 A 
ATOM     32  C   UNL     1      -0.608   0.088  24.937  0.00  0.00    +0.000 A 
ATOM     33  C   UNL     1      -0.907  -0.679  24.886  0.00  0.00    -0.000 A 
ATOM     34  C   UNL     1      -0.630  -1.190  24.301  0.00  0.00    +0.003 A 
ATOM     35  C   UNL     1      -0.056  -0.935  23.768  0.00  0.00    +0.037 A 
BRANCH   3   2
ATOM      1  C   UNL     1       1.112  -0.431  22.716  0.00  0.00    +0.252 C 
ATOM      2  O   UNL     1       0.819   0.088  23.286  0.00  0.00    -0.472 OA
ENDBRANCH   3   2
ENDBRANCH   5   4
ENDBRANCH   6   5
ENDBRANCH   9   7
ENDBRANCH  11   9
TORSDOF 8
ENDMDL
MODEL 9
REMARK VINA RESULT:      -9.6      3.713      5.129
REMARK  Name = 
REMARK  8 active torsions:
REMARK  status: ('A' for Active; 'I' for Inactive)
REMARK    1  A    between atoms: O_2  and  C_3
REMARK    2  A    between atoms: C_4  and  C_5
REMARK    3  A    between atoms: C_5  and  N_6
REMARK    4  A    between atoms: C_7  and  C_9
REMARK    5  A    between atoms: C_9  and  C_11
REMARK    6  A    between atoms: C_18  and  N_19
REMARK    7  A    between atoms: C_20  and  C_22
REMARK    8  A    between atoms: C_22  and  C_23
REMARK                            x       y       z     vdW  Elec       q    Type
REMARK                         _______ _______ _______ _____ _____    ______ ____
ROOT
ATOM     11  C   UNL     1      -0.231   0.634  23.973  0.00  0.00    +0.039 C 
ATOM     12  C   UNL     1      -0.268  -0.090  24.368  0.00  0.00    +0.003 C 
ATOM     13  C   UNL     1      -0.996  -0.389  24.612  0.00  0.00    +0.000 C 
ATOM     14  C   UNL     1      -1.688   0.034  24.462  0.00  0.00    +0.002 C 
ATOM     15  C   UNL     1      -1.725  -0.690  24.857  0.00  0.00    +0.000 C 
ATOM     16  C   UNL     1      -2.416  -0.265  24.706  0.00  0.00    +0.002 C 
ATOM     17  C   UNL     1      -3.108   0.158  24.557  0.00  0.00    +0.022 C 
ATOM     18  C   UNL     1      -3.072   0.882  24.163  0.00  0.00    +0.095 C 
ATOM     27  C   UNL     1      -2.342   1.182  23.918  0.00  0.00    +0.022 C 
ATOM     28  C   UNL     1      -2.306   1.905  23.524  0.00  0.00    +0.002 C 
ATOM     29  C   UNL     1      -1.651   0.758  24.068  0.00  0.00    +0.032 C 
ATOM     30  C   UNL     1      -0.922   1.058  23.823  0.00  0.00    +0.152 C 
ATOM     31  O   UNL     1      -0.885   1.781  23.430  0.00  0.00    -0.223 OA
ENDROOT
BRANCH  18  19
ATOM     19  N   UNL     1      -3.763   1.306  24.013  0.00  0.00    -0.207 NA
ATOM     20  C   UNL     1      -4.302   1.445  24.622  0.00  0.00    +0.241 C 
ATOM     21  O   UNL     1      -4.149   1.159  25.381  0.00  0.00    -0.273 OA
BRANCH  20  22
ATOM     22  C   UNL     1      -4.993   1.869  24.472  0.00  0.00    +0.087 C 
BRANCH  22  23
ATOM     23  C   UNL     1      -5.481   2.095  25.098  0.00  0.00    +0.009 C 
ATOM     24  C   UNL     1      -5.969   2.322  25.724  0.00  0.00    +0.000 C 
ATOM     25  C   UNL     1      -5.061   2.802  25.169  0.00  0.00    +0.000 C 
ATOM     26  C   UNL     1      -5.902   1.389  25.027  0.00  0.00    +0.000 C 
ENDBRANCH  22  23
ENDBRANCH  20  22
ENDBRANCH  18  19
BRANCH  11   9
ATOM      9  C   UNL     1       0.499   0.934  23.729  0.00  0.00    +0.081 C 
ATOM     10  C   UNL     1       0.707   1.710  23.912  0.00  0.00    +0.010 C 
BRANCH   9   7
ATOM      6  N   UNL     1       1.833   0.563  23.378  0.00  0.00    -0.200 NA
ATOM      7  C   UNL     1       1.018   0.457  23.301  0.00  0.00    +0.241 C 
ATOM      8  O   UNL     1       0.723  -0.125  22.797  0.00  0.00    -0.273 OA
BRANCH   6   5
ATOM      5  C   UNL     1       2.352   0.086  22.950  0.00  0.00    +0.144 C 
BRANCH   5   4
ATOM      3  C   UNL     1       3.710  -0.297  23.178  0.00  0.00    +0.136 A 
ATOM      4  C   UNL     1       3.158   0.265  22.933  0.00  0.00    +0.033 A 
ATOM     32  C   UNL     1       3.410   1.005  22.672  0.00  0.00    +0.000 A 
ATOM     33  C   UNL     1       4.215   1.184  22.654  0.00  0.00    -0.000 A 
ATOM     34  C   UNL     1       4.767   0.623  22.900  0.00  0.00    +0.003 A 
ATOM     35  C   UNL     1       4.515  -0.117  23.161  0.00  0.00    +0.037 A 
BRANCH   3   2
ATOM      1  C   UNL     1       4.000  -1.565  23.768  0.00  0.00    +0.252 C 
ATOM      2  O   UNL     1       3.458  -1.037  23.440  0.00  0.00    -0.472 OA
ENDBRANCH   3   2
ENDBRANCH   5   4
ENDBRANCH   6   5
ENDBRANCH   9   7
ENDBRANCH  11   9
TORSDOF 8
ENDMDL
