REMARK  Name = 
REMARK  5 active torsions:
REMARK  status: ('A' for Active; 'I' for Inactive)
REMARK    1  A    between atoms: C_3  and  N_17
REMARK    2  A    between atoms: C_6  and  C_7
REMARK    3  A    between atoms: C_7  and  N_8
REMARK    4  A    between atoms: N_17  and  C_18
REMARK    5  A    between atoms: C_18  and  C_19
REMARK                            x       y       z     vdW  Elec       q    Type
REMARK                         _______ _______ _______ _____ _____    ______ ____
ROOT
ATOM      1  O   UNL     1      -1.322  -1.712   0.000  0.00  0.00    -0.219 OA
ATOM      2  C   UNL     1      -1.322  -2.537   0.000  0.00  0.00    +0.199 C 
ATOM      3  C   UNL     1      -0.655  -3.022   0.000  0.00  0.00    +0.136 C 
ATOM      4  C   UNL     1      -0.910  -3.806   0.000  0.00  0.00    +0.162 C 
ATOM      5  O   UNL     1      -1.735  -3.806   0.000  0.00  0.00    -0.350 OA
ATOM      6  C   UNL     1      -1.990  -3.022   0.000  0.00  0.00    +0.169 C 
ENDROOT
BRANCH   6   7
ATOM      7  C   UNL     1      -2.774  -2.767   0.000  0.00  0.00    +0.149 C 
BRANCH   7   8
ATOM      8  N   UNL     1      -3.387  -3.319   0.000  0.00  0.00    -0.186 NA
ATOM      9  C   UNL     1      -4.172  -3.064   0.000  0.00  0.00    +0.323 C 
ATOM     10  O   UNL     1      -4.343  -2.257   0.000  0.00  0.00    -0.251 OA
ATOM     11  N   UNL     1      -4.785  -3.616   0.000  0.00  0.00    -0.258 N 
ATOM     12  C   UNL     1      -4.614  -4.423   0.000  0.00  0.00    +0.127 C 
ATOM     13  C   UNL     1      -5.227  -4.975   0.000  0.00  0.00    +0.164 C 
ATOM     14  O   UNL     1      -6.011  -4.720   0.000  0.00  0.00    -0.350 OA
ATOM     15  C   UNL     1      -6.183  -3.913   0.000  0.00  0.00    +0.164 C 
ATOM     16  C   UNL     1      -5.570  -3.361   0.000  0.00  0.00    +0.127 C 
ENDBRANCH   7   8
ENDBRANCH   6   7
BRANCH   3  17
ATOM     17  N   UNL     1       0.130  -2.767   0.000  0.00  0.00    -0.206 NA
BRANCH  17  18
ATOM     18  C   UNL     1       0.301  -1.960   0.000  0.00  0.00    +0.154 C 
BRANCH  18  19
ATOM     19  C   UNL     1       1.086  -1.705   0.000  0.00  0.00    +0.157 A 
ATOM     20  N   UNL     1       1.341  -0.920   0.000  0.00  0.00    -0.226 NA
ATOM     21  C   UNL     1       2.166  -0.920   0.000  0.00  0.00    +0.121 A 
ATOM     22  C   UNL     1       2.421  -1.705   0.000  0.00  0.00    +0.121 A 
ATOM     23  N   UNL     1       1.753  -2.190   0.000  0.00  0.00    -0.226 NA
ENDBRANCH  18  19
ENDBRANCH  17  18
ENDBRANCH   3  17
TORSDOF 5
