MODEL 1
REMARK VINA RESULT:     -11.3      0.000      0.000
REMARK  Name = 
REMARK  6 active torsions:
REMARK  status: ('A' for Active; 'I' for Inactive)
REMARK    1  A    between atoms: C_2  and  C_4
REMARK    2  A    between atoms: C_4  and  C_5
REMARK    3  A    between atoms: C_7  and  C_25
REMARK    4  A    between atoms: N_11  and  C_12
REMARK    5  A    between atoms: C_12  and  C_13
REMARK    6  A    between atoms: N_27  and  C_28
REMARK                            x       y       z     vdW  Elec       q    Type
REMARK                         _______ _______ _______ _____ _____    ______ ____
ROOT
ATOM      5  C   UNL     1      -3.388   2.691  24.975  0.00  0.00    +0.095 C 
ATOM      6  N   UNL     1      -2.567   2.684  24.898  0.00  0.00    -0.207 NA
ATOM      7  C   UNL     1      -2.071   2.047  24.727  0.00  0.00    +0.155 C 
ATOM      8  C   UNL     1      -2.275   1.259  24.592  0.00  0.00    +0.055 C 
ATOM      9  C   UNL     1      -3.024   0.914  24.593  0.00  0.00    -0.002 A 
ATOM     10  C   UNL     1      -3.156   0.112  24.448  0.00  0.00    +0.072 A 
ATOM     11  N   UNL     1      -3.968  -0.026  24.496  0.00  0.00    -0.319 N 
ATOM     19  C   UNL     1      -4.339   0.690  24.671  0.00  0.00    +0.060 A 
ATOM     20  C   UNL     1      -3.755   1.271  24.731  0.00  0.00    +0.011 A 
ATOM     21  C   UNL     1      -3.917   2.063  24.901  0.00  0.00    -0.005 A 
ATOM     22  C   UNL     1      -4.757   2.249  25.015  0.00  0.00    -0.003 A 
ATOM     23  C   UNL     1      -5.341   1.669  24.956  0.00  0.00    +0.001 A 
ATOM     24  C   UNL     1      -5.131   0.889  24.783  0.00  0.00    +0.017 A 
ENDROOT
BRANCH   7  25
ATOM     25  C   UNL     1      -1.266   2.221  24.687  0.00  0.00    +0.257 C 
ATOM     26  O   UNL     1      -0.962   2.618  24.030  0.00  0.00    -0.272 OA
ATOM     27  N   UNL     1      -0.764   1.998  25.302  0.00  0.00    -0.206 NA
BRANCH  27  28
ATOM     28  C   UNL     1       0.041   2.172  25.261  0.00  0.00    +0.095 C 
ATOM     29  C   UNL     1       0.385   2.670  25.822  0.00  0.00    +0.023 C 
ATOM     30  C   UNL     1       0.503   1.849  24.659  0.00  0.00    +0.023 C 
ENDBRANCH  27  28
ENDBRANCH   7  25
BRANCH   5   4
ATOM      4  C   UNL     1      -3.725   3.423  25.150  0.00  0.00    +0.022 C 
BRANCH   4   2
ATOM      1  C   UNL     1      -3.197   3.966  26.363  0.00  0.00    +0.000 C 
ATOM      2  C   UNL     1      -3.280   3.998  25.543  0.00  0.00    +0.002 C 
ATOM      3  C   UNL     1      -2.920   4.604  25.114  0.00  0.00    +0.000 C 
ENDBRANCH   4   2
ENDBRANCH   5   4
BRANCH  11  12
ATOM     12  C   UNL     1      -4.344  -0.752  24.389  0.00  0.00    +0.170 C 
BRANCH  12  13
ATOM     13  C   UNL     1      -3.986  -1.446  24.654  0.00  0.00    +0.144 A 
ATOM     14  N   UNL     1      -3.581  -1.541  25.367  0.00  0.00    -0.227 NA
ATOM     15  C   UNL     1      -3.315  -2.321  25.406  0.00  0.00    +0.119 A 
ATOM     16  C   UNL     1      -3.556  -2.707  24.719  0.00  0.00    +0.098 A 
ATOM     17  N   UNL     1      -3.970  -2.167  24.254  0.00  0.00    -0.310 N 
ATOM     18  C   UNL     1      -4.310  -2.320  23.517  0.00  0.00    +0.132 C 
ENDBRANCH  12  13
ENDBRANCH  11  12
TORSDOF 6
ENDMDL
MODEL 2
REMARK VINA RESULT:     -11.1      1.644      2.538
REMARK  Name = 
REMARK  6 active torsions:
REMARK  status: ('A' for Active; 'I' for Inactive)
REMARK    1  A    between atoms: C_2  and  C_4
REMARK    2  A    between atoms: C_4  and  C_5
REMARK    3  A    between atoms: C_7  and  C_25
REMARK    4  A    between atoms: N_11  and  C_12
REMARK    5  A    between atoms: C_12  and  C_13
REMARK    6  A    between atoms: N_27  and  C_28
REMARK                            x       y       z     vdW  Elec       q    Type
REMARK                         _______ _______ _______ _____ _____    ______ ____
ROOT
ATOM      5  C   UNL     1      -4.069   2.309  24.930  0.00  0.00    +0.095 C 
ATOM      6  N   UNL     1      -3.560   2.924  25.135  0.00  0.00    -0.207 NA
ATOM      7  C   UNL     1      -2.744   2.896  25.262  0.00  0.00    +0.155 C 
ATOM      8  C   UNL     1      -2.239   2.246  25.214  0.00  0.00    +0.055 C 
ATOM      9  C   UNL     1      -2.422   1.464  25.028  0.00  0.00    -0.002 A 
ATOM     10  C   UNL     1      -1.861   0.859  24.999  0.00  0.00    +0.072 A 
ATOM     11  N   UNL     1      -2.250   0.160  24.796  0.00  0.00    -0.319 N 
ATOM     19  C   UNL     1      -3.051   0.332  24.700  0.00  0.00    +0.060 A 
ATOM     20  C   UNL     1      -3.158   1.138  24.844  0.00  0.00    +0.011 A 
ATOM     21  C   UNL     1      -3.891   1.515  24.800  0.00  0.00    -0.005 A 
ATOM     22  C   UNL     1      -4.556   0.998  24.589  0.00  0.00    -0.003 A 
ATOM     23  C   UNL     1      -4.450   0.192  24.446  0.00  0.00    +0.001 A 
ATOM     24  C   UNL     1      -3.697  -0.140  24.501  0.00  0.00    +0.017 A 
ENDROOT
BRANCH   7  25
ATOM     25  C   UNL     1      -2.389   3.613  25.463  0.00  0.00    +0.257 C 
ATOM     26  O   UNL     1      -2.343   3.843  26.254  0.00  0.00    -0.272 OA
ATOM     27  N   UNL     1      -2.080   4.099  24.873  0.00  0.00    -0.206 NA
BRANCH  27  28
ATOM     28  C   UNL     1      -1.724   4.816  25.074  0.00  0.00    +0.095 C 
ATOM     29  C   UNL     1      -0.908   4.907  24.998  0.00  0.00    +0.023 C 
ATOM     30  C   UNL     1      -2.185   5.442  25.352  0.00  0.00    +0.023 C 
ENDBRANCH  27  28
ENDBRANCH   7  25
BRANCH   5   4
ATOM      4  C   UNL     1      -4.863   2.516  24.842  0.00  0.00    +0.022 C 
BRANCH   4   2
ATOM      1  C   UNL     1      -5.335   3.814  25.213  0.00  0.00    +0.000 C 
ATOM      2  C   UNL     1      -5.221   3.017  25.393  0.00  0.00    +0.002 C 
ATOM      3  C   UNL     1      -5.465   2.719  26.123  0.00  0.00    +0.000 C 
ENDBRANCH   4   2
ENDBRANCH   5   4
BRANCH  11  12
ATOM     12  C   UNL     1      -1.899  -0.581  24.705  0.00  0.00    +0.170 C 
BRANCH  12  13
ATOM     13  C   UNL     1      -1.115  -0.639  24.457  0.00  0.00    +0.144 A 
ATOM     14  N   UNL     1      -0.755  -0.182  23.872  0.00  0.00    -0.227 NA
ATOM     15  C   UNL     1       0.029  -0.425  23.804  0.00  0.00    +0.119 A 
ATOM     16  C   UNL     1       0.156  -1.033  24.348  0.00  0.00    +0.098 A 
ATOM     17  N   UNL     1      -0.551  -1.165  24.752  0.00  0.00    -0.310 N 
ATOM     18  C   UNL     1      -0.673  -1.725  25.346  0.00  0.00    +0.132 C 
ENDBRANCH  12  13
ENDBRANCH  11  12
TORSDOF 6
ENDMDL
MODEL 3
REMARK VINA RESULT:     -10.9      1.313      2.975
REMARK  Name = 
REMARK  6 active torsions:
REMARK  status: ('A' for Active; 'I' for Inactive)
REMARK    1  A    between atoms: C_2  and  C_4
REMARK    2  A    between atoms: C_4  and  C_5
REMARK    3  A    between atoms: C_7  and  C_25
REMARK    4  A    between atoms: N_11  and  C_12
REMARK    5  A    between atoms: C_12  and  C_13
REMARK    6  A    between atoms: N_27  and  C_28
REMARK                            x       y       z     vdW  Elec       q    Type
REMARK                         _______ _______ _______ _____ _____    ______ ____
ROOT
ATOM      5  C   UNL     1      -1.973   2.597  24.910  0.00  0.00    +0.095 C 
ATOM      6  N   UNL     1      -2.780   2.766  24.866  0.00  0.00    -0.207 NA
ATOM      7  C   UNL     1      -3.413   2.240  24.801  0.00  0.00    +0.155 C 
ATOM      8  C   UNL     1      -3.395   1.416  24.764  0.00  0.00    +0.055 C 
ATOM      9  C   UNL     1      -2.741   0.914  24.783  0.00  0.00    -0.002 A 
ATOM     10  C   UNL     1      -2.797   0.092  24.741  0.00  0.00    +0.072 A 
ATOM     11  N   UNL     1      -2.033  -0.218  24.776  0.00  0.00    -0.319 N 
ATOM     19  C   UNL     1      -1.504   0.412  24.839  0.00  0.00    +0.060 A 
ATOM     20  C   UNL     1      -1.942   1.112  24.843  0.00  0.00    +0.011 A 
ATOM     21  C   UNL     1      -1.601   1.862  24.899  0.00  0.00    -0.005 A 
ATOM     22  C   UNL     1      -0.734   1.867  24.955  0.00  0.00    -0.003 A 
ATOM     23  C   UNL     1      -0.296   1.167  24.951  0.00  0.00    +0.001 A 
ATOM     24  C   UNL     1      -0.682   0.440  24.892  0.00  0.00    +0.017 A 
ENDROOT
BRANCH   7  25
ATOM     25  C   UNL     1      -4.162   2.584  24.769  0.00  0.00    +0.257 C 
ATOM     26  O   UNL     1      -4.435   2.913  24.062  0.00  0.00    -0.272 OA
ATOM     27  N   UNL     1      -4.637   2.600  25.443  0.00  0.00    -0.206 NA
BRANCH  27  28
ATOM     28  C   UNL     1      -5.387   2.945  25.410  0.00  0.00    +0.095 C 
ATOM     29  C   UNL     1      -6.052   2.474  25.280  0.00  0.00    +0.023 C 
ATOM     30  C   UNL     1      -5.471   3.759  25.506  0.00  0.00    +0.023 C 
ENDBRANCH  27  28
ENDBRANCH   7  25
BRANCH   5   4
ATOM      4  C   UNL     1      -1.475   3.251  24.972  0.00  0.00    +0.022 C 
BRANCH   4   2
ATOM      1  C   UNL     1      -1.799   3.839  26.233  0.00  0.00    +0.000 C 
ATOM      2  C   UNL     1      -1.707   3.906  25.416  0.00  0.00    +0.002 C 
ATOM      3  C   UNL     1      -1.848   4.629  25.043  0.00  0.00    +0.000 C 
ENDBRANCH   4   2
ENDBRANCH   5   4
BRANCH  11  12
ATOM     12  C   UNL     1      -1.832  -1.018  24.751  0.00  0.00    +0.170 C 
BRANCH  12  13
ATOM     13  C   UNL     1      -2.406  -1.592  24.897  0.00  0.00    +0.144 A 
ATOM     14  N   UNL     1      -3.061  -1.510  25.392  0.00  0.00    -0.227 NA
ATOM     15  C   UNL     1      -3.485  -2.217  25.374  0.00  0.00    +0.119 A 
ATOM     16  C   UNL     1      -3.092  -2.736  24.867  0.00  0.00    +0.098 A 
ATOM     17  N   UNL     1      -2.426  -2.350  24.572  0.00  0.00    -0.310 N 
ATOM     18  C   UNL     1      -1.875  -2.667  24.046  0.00  0.00    +0.132 C 
ENDBRANCH  12  13
ENDBRANCH  11  12
TORSDOF 6
ENDMDL
MODEL 4
REMARK VINA RESULT:     -10.8      1.206      4.212
REMARK  Name = 
REMARK  6 active torsions:
REMARK  status: ('A' for Active; 'I' for Inactive)
REMARK    1  A    between atoms: C_2  and  C_4
REMARK    2  A    between atoms: C_4  and  C_5
REMARK    3  A    between atoms: C_7  and  C_25
REMARK    4  A    between atoms: N_11  and  C_12
REMARK    5  A    between atoms: C_12  and  C_13
REMARK    6  A    between atoms: N_27  and  C_28
REMARK                            x       y       z     vdW  Elec       q    Type
REMARK                         _______ _______ _______ _____ _____    ______ ____
ROOT
ATOM      5  C   UNL     1      -4.618   1.829  24.703  0.00  0.00    +0.095 C 
ATOM      6  N   UNL     1      -4.549   1.009  24.766  0.00  0.00    -0.207 NA
ATOM      7  C   UNL     1      -3.864   0.555  24.841  0.00  0.00    +0.155 C 
ATOM      8  C   UNL     1      -3.080   0.808  24.871  0.00  0.00    +0.055 C 
ATOM      9  C   UNL     1      -2.786   1.578  24.834  0.00  0.00    -0.002 A 
ATOM     10  C   UNL     1      -1.982   1.760  24.870  0.00  0.00    +0.072 A 
ATOM     11  N   UNL     1      -1.903   2.579  24.816  0.00  0.00    -0.319 N 
ATOM     19  C   UNL     1      -2.658   2.904  24.747  0.00  0.00    +0.060 A 
ATOM     20  C   UNL     1      -3.204   2.285  24.757  0.00  0.00    +0.011 A 
ATOM     21  C   UNL     1      -4.020   2.396  24.699  0.00  0.00    -0.005 A 
ATOM     22  C   UNL     1      -4.272   3.224  24.624  0.00  0.00    -0.003 A 
ATOM     23  C   UNL     1      -3.727   3.843  24.613  0.00  0.00    +0.001 A 
ATOM     24  C   UNL     1      -2.920   3.683  24.675  0.00  0.00    +0.017 A 
ENDROOT
BRANCH   7  25
ATOM     25  C   UNL     1      -3.980  -0.261  24.892  0.00  0.00    +0.257 C 
ATOM     26  O   UNL     1      -4.211  -0.600  25.608  0.00  0.00    -0.272 OA
ATOM     27  N   UNL     1      -3.865  -0.736  24.228  0.00  0.00    -0.206 NA
BRANCH  27  28
ATOM     28  C   UNL     1      -3.981  -1.552  24.280  0.00  0.00    +0.095 C 
ATOM     29  C   UNL     1      -4.581  -1.911  23.842  0.00  0.00    +0.023 C 
ATOM     30  C   UNL     1      -3.498  -2.007  24.769  0.00  0.00    +0.023 C 
ENDBRANCH  27  28
ENDBRANCH   7  25
BRANCH   5   4
ATOM      4  C   UNL     1      -5.387   2.119  24.635  0.00  0.00    +0.022 C 
BRANCH   4   2
ATOM      1  C   UNL     1      -5.995   1.978  25.920  0.00  0.00    +0.000 C 
ATOM      2  C   UNL     1      -5.987   1.813  25.112  0.00  0.00    +0.002 C 
ATOM      3  C   UNL     1      -6.578   1.342  24.781  0.00  0.00    +0.000 C 
ENDBRANCH   4   2
ENDBRANCH   5   4
BRANCH  11  12
ATOM     12  C   UNL     1      -1.194   3.001  24.830  0.00  0.00    +0.170 C 
BRANCH  12  13
ATOM     13  C   UNL     1      -0.600   2.793  25.364  0.00  0.00    +0.144 A 
ATOM     14  N   UNL     1      -0.672   2.772  26.185  0.00  0.00    -0.227 NA
ATOM     15  C   UNL     1       0.053   2.537  26.499  0.00  0.00    +0.119 A 
ATOM     16  C   UNL     1       0.573   2.412  25.871  0.00  0.00    +0.098 A 
ATOM     17  N   UNL     1       0.170   2.571  25.169  0.00  0.00    -0.310 N 
ATOM     18  C   UNL     1       0.481   2.516  24.407  0.00  0.00    +0.132 C 
ENDBRANCH  12  13
ENDBRANCH  11  12
TORSDOF 6
ENDMDL
MODEL 5
REMARK VINA RESULT:     -10.8      1.520      4.264
REMARK  Name = 
REMARK  6 active torsions:
REMARK  status: ('A' for Active; 'I' for Inactive)
REMARK    1  A    between atoms: C_2  and  C_4
REMARK    2  A    between atoms: C_4  and  C_5
REMARK    3  A    between atoms: C_7  and  C_25
REMARK    4  A    between atoms: N_11  and  C_12
REMARK    5  A    between atoms: C_12  and  C_13
REMARK    6  A    between atoms: N_27  and  C_28
REMARK                            x       y       z     vdW  Elec       q    Type
REMARK                         _______ _______ _______ _____ _____    ______ ____
ROOT
ATOM      5  C   UNL     1      -3.561  -0.305  24.909  0.00  0.00    +0.095 C 
ATOM      6  N   UNL     1      -2.772  -0.545  24.928  0.00  0.00    -0.207 NA
ATOM      7  C   UNL     1      -2.093  -0.078  24.957  0.00  0.00    +0.155 C 
ATOM      8  C   UNL     1      -2.035   0.745  24.974  0.00  0.00    +0.055 C 
ATOM      9  C   UNL     1      -2.642   1.304  24.966  0.00  0.00    -0.002 A 
ATOM     10  C   UNL     1      -2.512   2.118  24.985  0.00  0.00    +0.072 A 
ATOM     11  N   UNL     1      -3.245   2.495  24.970  0.00  0.00    -0.319 N 
ATOM     19  C   UNL     1      -3.830   1.914  24.942  0.00  0.00    +0.060 A 
ATOM     20  C   UNL     1      -3.458   1.177  24.939  0.00  0.00    +0.011 A 
ATOM     21  C   UNL     1      -3.866   0.460  24.914  0.00  0.00    -0.005 A 
ATOM     22  C   UNL     1      -4.731   0.533  24.889  0.00  0.00    -0.003 A 
ATOM     23  C   UNL     1      -5.104   1.269  24.892  0.00  0.00    +0.001 A 
ATOM     24  C   UNL     1      -4.653   1.959  24.918  0.00  0.00    +0.017 A 
ENDROOT
BRANCH   7  25
ATOM     25  C   UNL     1      -1.377  -0.487  24.971  0.00  0.00    +0.257 C 
ATOM     26  O   UNL     1      -1.079  -0.772  25.686  0.00  0.00    -0.272 OA
ATOM     27  N   UNL     1      -0.959  -0.612  24.271  0.00  0.00    -0.206 NA
BRANCH  27  28
ATOM     28  C   UNL     1      -0.243  -1.022  24.286  0.00  0.00    +0.095 C 
ATOM     29  C   UNL     1       0.429  -0.689  23.943  0.00  0.00    +0.023 C 
ATOM     30  C   UNL     1      -0.199  -1.764  24.644  0.00  0.00    +0.023 C 
ENDBRANCH  27  28
ENDBRANCH   7  25
BRANCH   5   4
ATOM      4  C   UNL     1      -4.119  -0.912  24.881  0.00  0.00    +0.022 C 
BRANCH   4   2
ATOM      1  C   UNL     1      -4.009  -1.630  23.650  0.00  0.00    +0.000 C 
ATOM      2  C   UNL     1      -3.949  -1.610  24.473  0.00  0.00    +0.002 C 
ATOM      3  C   UNL     1      -3.720  -2.285  24.888  0.00  0.00    +0.000 C 
ENDBRANCH   4   2
ENDBRANCH   5   4
BRANCH  11  12
ATOM     12  C   UNL     1      -3.373   3.310  24.981  0.00  0.00    +0.170 C 
BRANCH  12  13
ATOM     13  C   UNL     1      -2.736   3.827  25.068  0.00  0.00    +0.144 A 
ATOM     14  N   UNL     1      -2.078   3.874  24.571  0.00  0.00    -0.227 NA
ATOM     15  C   UNL     1      -1.581   4.463  24.863  0.00  0.00    +0.119 A 
ATOM     16  C   UNL     1      -1.930   4.780  25.539  0.00  0.00    +0.098 A 
ATOM     17  N   UNL     1      -2.644   4.387  25.666  0.00  0.00    -0.310 N 
ATOM     18  C   UNL     1      -3.173   4.529  26.283  0.00  0.00    +0.132 C 
ENDBRANCH  12  13
ENDBRANCH  11  12
TORSDOF 6
ENDMDL
MODEL 6
REMARK VINA RESULT:     -10.5      1.729      4.737
REMARK  Name = 
REMARK  6 active torsions:
REMARK  status: ('A' for Active; 'I' for Inactive)
REMARK    1  A    between atoms: C_2  and  C_4
REMARK    2  A    between atoms: C_4  and  C_5
REMARK    3  A    between atoms: C_7  and  C_25
REMARK    4  A    between atoms: N_11  and  C_12
REMARK    5  A    between atoms: C_12  and  C_13
REMARK    6  A    between atoms: N_27  and  C_28
REMARK                            x       y       z     vdW  Elec       q    Type
REMARK                         _______ _______ _______ _____ _____    ______ ____
ROOT
ATOM      5  C   UNL     1      -1.430  -0.119  25.228  0.00  0.00    +0.095 C 
ATOM      6  N   UNL     1      -2.028  -0.678  25.130  0.00  0.00    -0.207 NA
ATOM      7  C   UNL     1      -2.830  -0.553  24.980  0.00  0.00    +0.155 C 
ATOM      8  C   UNL     1      -3.231   0.163  24.892  0.00  0.00    +0.055 C 
ATOM      9  C   UNL     1      -2.930   0.930  24.932  0.00  0.00    -0.002 A 
ATOM     10  C   UNL     1      -3.393   1.606  24.834  0.00  0.00    +0.072 A 
ATOM     11  N   UNL     1      -2.902   2.264  24.911  0.00  0.00    -0.319 N 
ATOM     19  C   UNL     1      -2.135   1.996  25.057  0.00  0.00    +0.060 A 
ATOM     20  C   UNL     1      -2.153   1.170  25.070  0.00  0.00    +0.011 A 
ATOM     21  C   UNL     1      -1.485   0.703  25.202  0.00  0.00    -0.005 A 
ATOM     22  C   UNL     1      -0.748   1.145  25.328  0.00  0.00    -0.003 A 
ATOM     23  C   UNL     1      -0.730   1.969  25.315  0.00  0.00    +0.001 A 
ATOM     24  C   UNL     1      -1.424   2.395  25.180  0.00  0.00    +0.017 A 
ENDROOT
BRANCH   7  25
ATOM     25  C   UNL     1      -3.292  -1.233  24.909  0.00  0.00    +0.257 C 
ATOM     26  O   UNL     1      -3.642  -1.566  25.578  0.00  0.00    -0.272 OA
ATOM     27  N   UNL     1      -3.402  -1.581  24.169  0.00  0.00    -0.206 NA
BRANCH  27  28
ATOM     28  C   UNL     1      -3.864  -2.261  24.099  0.00  0.00    +0.095 C 
ATOM     29  C   UNL     1      -4.606  -2.221  23.742  0.00  0.00    +0.023 C 
ATOM     30  C   UNL     1      -3.583  -2.982  24.386  0.00  0.00    +0.023 C 
ENDBRANCH  27  28
ENDBRANCH   7  25
BRANCH   5   4
ATOM      4  C   UNL     1      -0.677  -0.423  25.372  0.00  0.00    +0.022 C 
BRANCH   4   2
ATOM      1  C   UNL     1      -0.225  -1.058  24.175  0.00  0.00    +0.000 C 
ATOM      2  C   UNL     1      -0.423  -1.100  24.975  0.00  0.00    +0.002 C 
ATOM      3  C   UNL     1      -0.367  -1.818  25.378  0.00  0.00    +0.000 C 
ENDBRANCH   4   2
ENDBRANCH   5   4
BRANCH  11  12
ATOM     12  C   UNL     1      -3.135   3.053  24.853  0.00  0.00    +0.170 C 
BRANCH  12  13
ATOM     13  C   UNL     1      -3.879   3.285  25.123  0.00  0.00    +0.144 A 
ATOM     14  N   UNL     1      -4.224   3.070  25.841  0.00  0.00    -0.227 NA
ATOM     15  C   UNL     1      -4.967   3.425  25.884  0.00  0.00    +0.119 A 
ATOM     16  C   UNL     1      -5.083   3.858  25.192  0.00  0.00    +0.098 A 
ATOM     17  N   UNL     1      -4.411   3.772  24.721  0.00  0.00    -0.310 N 
ATOM     18  C   UNL     1      -4.291   4.113  23.979  0.00  0.00    +0.132 C 
ENDBRANCH  12  13
ENDBRANCH  11  12
TORSDOF 6
ENDMDL
MODEL 7
REMARK VINA RESULT:     -10.2      1.487      3.670
REMARK  Name = 
REMARK  6 active torsions:
REMARK  status: ('A' for Active; 'I' for Inactive)
REMARK    1  A    between atoms: C_2  and  C_4
REMARK    2  A    between atoms: C_4  and  C_5
REMARK    3  A    between atoms: C_7  and  C_25
REMARK    4  A    between atoms: N_11  and  C_12
REMARK    5  A    between atoms: C_12  and  C_13
REMARK    6  A    between atoms: N_27  and  C_28
REMARK                            x       y       z     vdW  Elec       q    Type
REMARK                         _______ _______ _______ _____ _____    ______ ____
ROOT
ATOM      5  C   UNL     1      -2.112  -0.583  24.535  0.00  0.00    +0.095 C 
ATOM      6  N   UNL     1      -1.493  -0.048  24.636  0.00  0.00    -0.207 NA
ATOM      7  C   UNL     1      -1.532   0.763  24.785  0.00  0.00    +0.155 C 
ATOM      8  C   UNL     1      -2.201   1.239  24.868  0.00  0.00    +0.055 C 
ATOM      9  C   UNL     1      -2.996   1.021  24.823  0.00  0.00    -0.002 A 
ATOM     10  C   UNL     1      -3.619   1.553  24.917  0.00  0.00    +0.072 A 
ATOM     11  N   UNL     1      -4.326   1.136  24.836  0.00  0.00    -0.319 N 
ATOM     19  C   UNL     1      -4.140   0.345  24.692  0.00  0.00    +0.060 A 
ATOM     20  C   UNL     1      -3.318   0.274  24.684  0.00  0.00    +0.011 A 
ATOM     21  C   UNL     1      -2.924  -0.440  24.556  0.00  0.00    -0.005 A 
ATOM     22  C   UNL     1      -3.441  -1.126  24.427  0.00  0.00    -0.003 A 
ATOM     23  C   UNL     1      -4.263  -1.055  24.435  0.00  0.00    +0.001 A 
ATOM     24  C   UNL     1      -4.612  -0.319  24.568  0.00  0.00    +0.017 A 
ENDROOT
BRANCH   7  25
ATOM     25  C   UNL     1      -0.807   1.149  24.860  0.00  0.00    +0.257 C 
ATOM     26  O   UNL     1      -0.438   1.194  25.597  0.00  0.00    -0.272 OA
ATOM     27  N   UNL     1      -0.451   1.490  24.198  0.00  0.00    -0.206 NA
BRANCH  27  28
ATOM     28  C   UNL     1       0.275   1.876  24.274  0.00  0.00    +0.095 C 
ATOM     29  C   UNL     1       0.308   2.630  24.606  0.00  0.00    +0.023 C 
ATOM     30  C   UNL     1       0.967   1.508  24.019  0.00  0.00    +0.023 C 
ENDBRANCH  27  28
ENDBRANCH   7  25
BRANCH   5   4
ATOM      4  C   UNL     1      -1.890  -1.364  24.393  0.00  0.00    +0.022 C 
BRANCH   4   2
ATOM      1  C   UNL     1      -0.531  -1.770  24.212  0.00  0.00    +0.000 C 
ATOM      2  C   UNL     1      -1.183  -1.655  24.705  0.00  0.00    +0.002 C 
ATOM      3  C   UNL     1      -1.128  -1.829  25.510  0.00  0.00    +0.000 C 
ENDBRANCH   4   2
ENDBRANCH   5   4
BRANCH  11  12
ATOM     12  C   UNL     1      -5.086   1.452  24.889  0.00  0.00    +0.170 C 
BRANCH  12  13
ATOM     13  C   UNL     1      -5.189   2.248  25.082  0.00  0.00    +0.144 A 
ATOM     14  N   UNL     1      -4.792   2.885  24.740  0.00  0.00    -0.227 NA
ATOM     15  C   UNL     1      -5.065   3.577  25.096  0.00  0.00    +0.119 A 
ATOM     16  C   UNL     1      -5.632   3.367  25.658  0.00  0.00    +0.098 A 
ATOM     17  N   UNL     1      -5.709   2.546  25.649  0.00  0.00    -0.310 N 
ATOM     18  C   UNL     1      -6.216   2.101  26.124  0.00  0.00    +0.132 C 
ENDBRANCH  12  13
ENDBRANCH  11  12
TORSDOF 6
ENDMDL
MODEL 8
REMARK VINA RESULT:      -8.7     15.526     18.432
REMARK  Name = 
REMARK  6 active torsions:
REMARK  status: ('A' for Active; 'I' for Inactive)
REMARK    1  A    between atoms: C_2  and  C_4
REMARK    2  A    between atoms: C_4  and  C_5
REMARK    3  A    between atoms: C_7  and  C_25
REMARK    4  A    between atoms: N_11  and  C_12
REMARK    5  A    between atoms: C_12  and  C_13
REMARK    6  A    between atoms: N_27  and  C_28
REMARK                            x       y       z     vdW  Elec       q    Type
REMARK                         _______ _______ _______ _____ _____    ______ ____
ROOT
ATOM      5  C   UNL     1      13.388   7.968  17.857  0.00  0.00    +0.095 C 
ATOM      6  N   UNL     1      14.076   7.757  18.260  0.00  0.00    -0.207 NA
ATOM      7  C   UNL     1      14.197   7.691  19.073  0.00  0.00    +0.155 C 
ATOM      8  C   UNL     1      13.659   7.818  19.685  0.00  0.00    +0.055 C 
ATOM      9  C   UNL     1      12.867   8.044  19.635  0.00  0.00    -0.002 A 
ATOM     10  C   UNL     1      12.382   8.155  20.293  0.00  0.00    +0.072 A 
ATOM     11  N   UNL     1      11.634   8.377  20.026  0.00  0.00    -0.319 N 
ATOM     19  C   UNL     1      11.656   8.404  19.202  0.00  0.00    +0.060 A 
ATOM     20  C   UNL     1      12.418   8.198  18.960  0.00  0.00    +0.011 A 
ATOM     21  C   UNL     1      12.650   8.164  18.168  0.00  0.00    -0.005 A 
ATOM     22  C   UNL     1      12.029   8.362  17.595  0.00  0.00    -0.003 A 
ATOM     23  C   UNL     1      11.267   8.568  17.836  0.00  0.00    +0.001 A 
ATOM     24  C   UNL     1      11.081   8.588  18.640  0.00  0.00    +0.017 A 
ENDROOT
BRANCH   7  25
ATOM     25  C   UNL     1      14.957   7.467  19.305  0.00  0.00    +0.257 C 
ATOM     26  O   UNL     1      15.531   8.043  19.447  0.00  0.00    -0.272 OA
ATOM     27  N   UNL     1      15.142   6.668  19.396  0.00  0.00    -0.206 NA
BRANCH  27  28
ATOM     28  C   UNL     1      15.902   6.445  19.628  0.00  0.00    +0.095 C 
ATOM     29  C   UNL     1      16.453   6.208  19.061  0.00  0.00    +0.023 C 
ATOM     30  C   UNL     1      16.111   6.460  20.425  0.00  0.00    +0.023 C 
ENDBRANCH  27  28
ENDBRANCH   7  25
BRANCH   5   4
ATOM      4  C   UNL     1      13.446   7.985  17.035  0.00  0.00    +0.022 C 
BRANCH   4   2
ATOM      1  C   UNL     1      14.653   7.768  16.301  0.00  0.00    +0.000 C 
ATOM      2  C   UNL     1      14.127   8.282  16.675  0.00  0.00    +0.002 C 
ATOM      3  C   UNL     1      14.281   9.093  16.690  0.00  0.00    +0.000 C 
ENDBRANCH   4   2
ENDBRANCH   5   4
BRANCH  11  12
ATOM     12  C   UNL     1      10.979   8.543  20.499  0.00  0.00    +0.170 C 
BRANCH  12  13
ATOM     13  C   UNL     1      10.799   8.057  21.140  0.00  0.00    +0.144 A 
ATOM     14  N   UNL     1      10.768   7.232  21.131  0.00  0.00    -0.227 NA
ATOM     15  C   UNL     1      10.568   6.976  21.889  0.00  0.00    +0.119 A 
ATOM     16  C   UNL     1      10.475   7.642  22.367  0.00  0.00    +0.098 A 
ATOM     17  N   UNL     1      10.618   8.310  21.904  0.00  0.00    -0.310 N 
ATOM     18  C   UNL     1      10.586   9.093  22.161  0.00  0.00    +0.132 C 
ENDBRANCH  12  13
ENDBRANCH  11  12
TORSDOF 6
ENDMDL
MODEL 9
REMARK VINA RESULT:      -8.0     15.603     18.965
REMARK  Name = 
REMARK  6 active torsions:
REMARK  status: ('A' for Active; 'I' for Inactive)
REMARK    1  A    between atoms: C_2  and  C_4
REMARK    2  A    between atoms: C_4  and  C_5
REMARK    3  A    between atoms: C_7  and  C_25
REMARK    4  A    between atoms: N_11  and  C_12
REMARK    5  A    between atoms: C_12  and  C_13
REMARK    6  A    between atoms: N_27  and  C_28
REMARK                            x       y       z     vdW  Elec       q    Type
REMARK                         _______ _______ _______ _____ _____    ______ ____
ROOT
ATOM      5  C   UNL     1      12.569   8.219  18.974  0.00  0.00    +0.095 C 
ATOM      6  N   UNL     1      12.156   7.727  19.491  0.00  0.00    -0.207 NA
ATOM      7  C   UNL     1      12.450   7.121  19.970  0.00  0.00    +0.155 C 
ATOM      8  C   UNL     1      13.228   6.859  20.048  0.00  0.00    +0.055 C 
ATOM      9  C   UNL     1      13.905   7.137  19.668  0.00  0.00    -0.002 A 
ATOM     10  C   UNL     1      14.658   6.826  19.795  0.00  0.00    +0.072 A 
ATOM     11  N   UNL     1      15.190   7.242  19.321  0.00  0.00    -0.319 N 
ATOM     19  C   UNL     1      14.766   7.811  18.901  0.00  0.00    +0.060 A 
ATOM     20  C   UNL     1      13.971   7.747  19.115  0.00  0.00    +0.011 A 
ATOM     21  C   UNL     1      13.376   8.228  18.806  0.00  0.00    -0.005 A 
ATOM     22  C   UNL     1      13.645   8.819  18.230  0.00  0.00    -0.003 A 
ATOM     23  C   UNL     1      14.439   8.884  18.015  0.00  0.00    +0.001 A 
ATOM     24  C   UNL     1      14.999   8.380  18.351  0.00  0.00    +0.017 A 
ENDROOT
BRANCH   7  25
ATOM     25  C   UNL     1      11.890   6.726  20.430  0.00  0.00    +0.257 C 
ATOM     26  O   UNL     1      11.555   6.022  20.158  0.00  0.00    -0.272 OA
ATOM     27  N   UNL     1      11.666   7.034  21.161  0.00  0.00    -0.206 NA
BRANCH  27  28
ATOM     28  C   UNL     1      11.107   6.639  21.621  0.00  0.00    +0.095 C 
ATOM     29  C   UNL     1      11.133   5.816  21.686  0.00  0.00    +0.023 C 
ATOM     30  C   UNL     1      10.521   7.064  22.016  0.00  0.00    +0.023 C 
ENDBRANCH  27  28
ENDBRANCH   7  25
BRANCH   5   4
ATOM      4  C   UNL     1      12.113   8.776  18.571  0.00  0.00    +0.022 C 
BRANCH   4   2
ATOM      1  C   UNL     1      11.365   8.143  17.530  0.00  0.00    +0.000 C 
ATOM      2  C   UNL     1      11.388   8.556  18.244  0.00  0.00    +0.002 C 
ATOM      3  C   UNL     1      10.685   8.749  18.631  0.00  0.00    +0.000 C 
ENDBRANCH   4   2
ENDBRANCH   5   4
BRANCH  11  12
ATOM     12  C   UNL     1      16.003   7.113  19.274  0.00  0.00    +0.170 C 
BRANCH  12  13
ATOM     13  C   UNL     1      16.434   6.945  19.957  0.00  0.00    +0.144 A 
ATOM     14  N   UNL     1      16.297   7.260  20.708  0.00  0.00    -0.227 NA
ATOM     15  C   UNL     1      16.856   6.942  21.223  0.00  0.00    +0.119 A 
ATOM     16  C   UNL     1      17.339   6.430  20.793  0.00  0.00    +0.098 A 
ATOM     17  N   UNL     1      17.078   6.432  20.010  0.00  0.00    -0.310 N 
ATOM     18  C   UNL     1      17.405   5.998  19.389  0.00  0.00    +0.132 C 
ENDBRANCH  12  13
ENDBRANCH  11  12
TORSDOF 6
ENDMDL
MODEL 10
REMARK VINA RESULT:      -7.5     15.495     18.772
REMARK  Name = 
REMARK  6 active torsions:
REMARK  status: ('A' for Active; 'I' for Inactive)
REMARK    1  A    between atoms: C_2  and  C_4
REMARK    2  A    between atoms: C_4  and  C_5
REMARK    3  A    between atoms: C_7  and  C_25
REMARK    4  A    between atoms: N_11  and  C_12
REMARK    5  A    between atoms: C_12  and  C_13
REMARK    6  A    between atoms: N_27  and  C_28
REMARK                            x       y       z     vdW  Elec       q    Type
REMARK                         _______ _______ _______ _____ _____    ______ ____
ROOT
ATOM      5  C   UNL     1      14.878   6.866  19.750  0.00  0.00    +0.095 C 
ATOM      6  N   UNL     1      14.598   7.070  19.001  0.00  0.00    -0.207 NA
ATOM      7  C   UNL     1      13.905   7.472  18.803  0.00  0.00    +0.155 C 
ATOM      8  C   UNL     1      13.322   7.769  19.304  0.00  0.00    +0.055 C 
ATOM      9  C   UNL     1      13.286   7.738  20.128  0.00  0.00    -0.002 A 
ATOM     10  C   UNL     1      12.667   8.059  20.568  0.00  0.00    +0.072 A 
ATOM     11  N   UNL     1      12.823   7.921  21.367  0.00  0.00    -0.319 N 
ATOM     19  C   UNL     1      13.540   7.515  21.419  0.00  0.00    +0.060 A 
ATOM     20  C   UNL     1      13.826   7.402  20.653  0.00  0.00    +0.011 A 
ATOM     21  C   UNL     1      14.534   7.014  20.485  0.00  0.00    -0.005 A 
ATOM     22  C   UNL     1      14.969   6.726  21.179  0.00  0.00    -0.003 A 
ATOM     23  C   UNL     1      14.684   6.839  21.945  0.00  0.00    +0.001 A 
ATOM     24  C   UNL     1      13.968   7.233  22.065  0.00  0.00    +0.017 A 
ENDROOT
BRANCH   7  25
ATOM     25  C   UNL     1      13.780   7.593  17.996  0.00  0.00    +0.257 C 
ATOM     26  O   UNL     1      13.491   6.978  17.527  0.00  0.00    -0.272 OA
ATOM     27  N   UNL     1      13.944   8.328  17.659  0.00  0.00    -0.206 NA
BRANCH  27  28
ATOM     28  C   UNL     1      13.819   8.447  16.852  0.00  0.00    +0.095 C 
ATOM     29  C   UNL     1      13.114   8.786  16.590  0.00  0.00    +0.023 C 
ATOM     30  C   UNL     1      14.398   8.229  16.307  0.00  0.00    +0.023 C 
ENDBRANCH  27  28
ENDBRANCH   7  25
BRANCH   5   4
ATOM      4  C   UNL     1      15.596   6.462  19.765  0.00  0.00    +0.022 C 
BRANCH   4   2
ATOM      1  C   UNL     1      16.411   6.198  18.621  0.00  0.00    +0.000 C 
ATOM      2  C   UNL     1      16.206   6.684  19.255  0.00  0.00    +0.002 C 
ATOM      3  C   UNL     1      16.610   7.394  19.380  0.00  0.00    +0.000 C 
ENDBRANCH   4   2
ENDBRANCH   5   4
BRANCH  11  12
ATOM     12  C   UNL     1      12.348   8.148  22.001  0.00  0.00    +0.170 C 
BRANCH  12  13
ATOM     13  C   UNL     1      11.553   7.929  22.021  0.00  0.00    +0.144 A 
ATOM     14  N   UNL     1      11.233   7.237  21.706  0.00  0.00    -0.227 NA
ATOM     15  C   UNL     1      10.421   7.244  21.850  0.00  0.00    +0.119 A 
ATOM     16  C   UNL     1      10.239   7.940  22.254  0.00  0.00    +0.098 A 
ATOM     17  N   UNL     1      10.939   8.364  22.360  0.00  0.00    -0.310 N 
ATOM     18  C   UNL     1      11.012   9.094  22.738  0.00  0.00    +0.132 C 
ENDBRANCH  12  13
ENDBRANCH  11  12
TORSDOF 6
ENDMDL
