REMARK  Name = 
REMARK  7 active torsions:
REMARK  status: ('A' for Active; 'I' for Inactive)
REMARK    1  A    between atoms: C_2  and  N_3
REMARK    2  A    between atoms: C_2  and  C_30
REMARK    3  A    between atoms: C_4  and  C_6
REMARK    4  A    between atoms: C_8  and  N_21
REMARK    5  A    between atoms: C_12  and  C_14
REMARK    6  A    between atoms: N_21  and  S_22
REMARK    7  A    between atoms: S_22  and  C_25
REMARK                            x       y       z     vdW  Elec       q    Type
REMARK                         _______ _______ _______ _____ _____    ______ ____
ROOT
ATOM      6  C   UNL     1      -0.715  -2.888   0.000  0.00  0.00    +0.155 C 
ATOM      7  C   UNL     1       0.000  -3.300   0.000  0.00  0.00    +0.049 C 
ATOM      8  C   UNL     1       0.000  -4.125   0.000  0.00  0.00    +0.102 C 
ATOM      9  C   UNL     1      -0.715  -4.537   0.000  0.00  0.00    +0.041 C 
ATOM     10  C   UNL     1      -1.429  -4.125   0.000  0.00  0.00    +0.096 C 
ATOM     11  N   UNL     1      -1.429  -3.300   0.000  0.00  0.00    -0.268 N 
ATOM     12  C   UNL     1      -2.143  -2.888   0.000  0.00  0.00    +0.267 C 
ATOM     13  O   UNL     1      -2.143  -2.062   0.000  0.00  0.00    -0.268 OA
ENDROOT
BRANCH  12  14
ATOM     14  C   UNL     1      -2.858  -3.300   0.000  0.00  0.00    +0.133 A 
ATOM     15  C   UNL     1      -2.944  -4.120   0.000  0.00  0.00    +0.040 A 
ATOM     16  C   UNL     1      -3.751  -4.292   0.000  0.00  0.00    +0.081 A 
ATOM     17  C   UNL     1      -4.087  -5.046   0.000  0.00  0.00    +0.054 C 
ATOM     18  N   UNL     1      -4.164  -3.578   0.000  0.00  0.00    -0.173 NA
ATOM     19  N   UNL     1      -3.612  -2.964   0.000  0.00  0.00    -0.245 N 
ATOM     20  C   UNL     1      -3.783  -2.158   0.000  0.00  0.00    +0.154 C 
ENDBRANCH  12  14
BRANCH   6   4
ATOM      3  N   UNL     1       0.000  -1.650   0.000  0.00  0.00    -0.196 NA
ATOM      4  C   UNL     1      -0.715  -2.062   0.000  0.00  0.00    +0.260 C 
ATOM      5  O   UNL     1      -1.429  -1.650   0.000  0.00  0.00    -0.272 OA
BRANCH   3   2
ATOM      1  C   UNL     1       0.715  -2.888   0.000  0.00  0.00    +0.033 C 
ATOM      2  C   UNL     1       0.715  -2.062   0.000  0.00  0.00    +0.174 C 
BRANCH   2  30
ATOM     30  C   UNL     1       1.429  -1.650   0.000  0.00  0.00    +0.281 C 
ATOM     31  N   UNL     1       1.429  -0.825   0.000  0.00  0.00    -0.086 NA
ATOM     32  O   UNL     1       2.143  -2.062   0.000  0.00  0.00    -0.270 OA
ENDBRANCH   2  30
ENDBRANCH   3   2
ENDBRANCH   6   4
BRANCH   8  21
ATOM     21  N   UNL     1       0.715  -4.537   0.000  0.00  0.00    -0.079 NA
BRANCH  21  22
ATOM     22  S   UNL     1       0.715  -5.362   0.000  0.00  0.00    +0.082 S 
ATOM     23  O   UNL     1      -0.111  -5.362   0.000  0.00  0.00    -0.151 OA
ATOM     24  O   UNL     1       1.540  -5.362   0.000  0.00  0.00    -0.151 OA
BRANCH  22  25
ATOM     25  C   UNL     1       0.715  -6.188   0.000  0.00  0.00    +0.153 A 
ATOM     26  C   UNL     1       1.382  -6.672   0.000  0.00  0.00    +0.027 A 
ATOM     27  C   UNL     1       1.127  -7.457   0.000  0.00  0.00    +0.009 A 
ATOM     28  C   UNL     1       0.302  -7.457   0.000  0.00  0.00    +0.037 A 
ATOM     29  S   UNL     1       0.047  -6.672   0.000  0.00  0.00    -0.067 S 
ENDBRANCH  22  25
ENDBRANCH  21  22
ENDBRANCH   8  21
TORSDOF 7
