MODEL 1
REMARK VINA RESULT:      -8.2      0.000      0.000
REMARK  Name = 
REMARK  6 active torsions:
REMARK  status: ('A' for Active; 'I' for Inactive)
REMARK    1  A    between atoms: C_3  and  C_4
REMARK    2  A    between atoms: C_4  and  N_5
REMARK    3  A    between atoms: C_6  and  C_8
REMARK    4  A    between atoms: C_15  and  N_16
REMARK    5  A    between atoms: N_16  and  C_17
REMARK    6  A    between atoms: C_17  and  C_18
REMARK                            x       y       z     vdW  Elec       q    Type
REMARK                         _______ _______ _______ _____ _____    ______ ____
ROOT
ATOM      1  O   UNL     1      -3.740   2.199  24.108  0.00  0.00    -0.219 OA
ATOM      2  C   UNL     1      -3.112   1.824  24.490  0.00  0.00    +0.199 C 
ATOM      3  C   UNL     1      -3.058   1.017  24.655  0.00  0.00    +0.169 C 
ATOM     13  O   UNL     1      -2.341   0.884  25.041  0.00  0.00    -0.350 OA
ATOM     14  C   UNL     1      -1.952   1.607  25.114  0.00  0.00    +0.162 C 
ATOM     15  C   UNL     1      -2.429   2.189  24.773  0.00  0.00    +0.135 C 
ENDROOT
BRANCH   3   4
ATOM      4  C   UNL     1      -3.621   0.445  24.468  0.00  0.00    +0.148 C 
BRANCH   4   5
ATOM      5  N   UNL     1      -3.435  -0.355  24.536  0.00  0.00    -0.199 NA
ATOM      6  C   UNL     1      -4.016  -0.927  24.408  0.00  0.00    +0.271 C 
ATOM      7  O   UNL     1      -4.784  -0.698  24.212  0.00  0.00    -0.268 OA
BRANCH   6   8
ATOM      8  C   UNL     1      -3.828  -1.728  24.477  0.00  0.00    +0.084 A 
ATOM      9  C   UNL     1      -3.478  -2.089  25.131  0.00  0.00    +0.012 A 
ATOM     10  C   UNL     1      -3.391  -2.892  24.963  0.00  0.00    +0.008 A 
ATOM     11  C   UNL     1      -3.688  -3.028  24.205  0.00  0.00    +0.036 A 
ATOM     12  S   UNL     1      -3.958  -2.308  23.905  0.00  0.00    -0.082 S 
ENDBRANCH   6   8
ENDBRANCH   4   5
ENDBRANCH   3   4
BRANCH  15  16
ATOM     16  N   UNL     1      -2.253   2.993  24.724  0.00  0.00    -0.209 NA
BRANCH  16  17
ATOM     17  C   UNL     1      -1.659   3.315  25.198  0.00  0.00    +0.122 C 
BRANCH  17  18
ATOM     18  C   UNL     1      -1.440   4.105  25.104  0.00  0.00    +0.025 A 
ATOM     19  C   UNL     1      -1.892   4.762  25.317  0.00  0.00    +0.004 A 
ATOM     20  C   UNL     1      -1.463   5.439  25.126  0.00  0.00    +0.007 A 
ATOM     21  C   UNL     1      -0.745   5.202  24.797  0.00  0.00    +0.035 A 
ATOM     22  S   UNL     1      -0.731   4.377  24.783  0.00  0.00    -0.089 S 
ENDBRANCH  17  18
ENDBRANCH  16  17
ENDBRANCH  15  16
TORSDOF 6
ENDMDL
MODEL 2
REMARK VINA RESULT:      -8.1      0.942      5.769
REMARK  Name = 
REMARK  6 active torsions:
REMARK  status: ('A' for Active; 'I' for Inactive)
REMARK    1  A    between atoms: C_3  and  C_4
REMARK    2  A    between atoms: C_4  and  N_5
REMARK    3  A    between atoms: C_6  and  C_8
REMARK    4  A    between atoms: C_15  and  N_16
REMARK    5  A    between atoms: N_16  and  C_17
REMARK    6  A    between atoms: C_17  and  C_18
REMARK                            x       y       z     vdW  Elec       q    Type
REMARK                         _______ _______ _______ _____ _____    ______ ____
ROOT
ATOM      1  O   UNL     1      -1.172   0.152  25.102  0.00  0.00    -0.219 OA
ATOM      2  C   UNL     1      -1.885   0.554  25.000  0.00  0.00    +0.199 C 
ATOM      3  C   UNL     1      -1.998   1.368  25.080  0.00  0.00    +0.169 C 
ATOM     13  O   UNL     1      -2.793   1.530  24.930  0.00  0.00    -0.350 OA
ATOM     14  C   UNL     1      -3.171   0.817  24.757  0.00  0.00    +0.162 C 
ATOM     15  C   UNL     1      -2.609   0.214  24.801  0.00  0.00    +0.135 C 
ENDROOT
BRANCH   3   4
ATOM      4  C   UNL     1      -1.419   1.921  25.275  0.00  0.00    +0.148 C 
BRANCH   4   5
ATOM      5  N   UNL     1      -1.541   2.720  25.112  0.00  0.00    -0.199 NA
ATOM      6  C   UNL     1      -1.013   3.286  25.402  0.00  0.00    +0.271 C 
ATOM      7  O   UNL     1      -0.364   3.051  25.853  0.00  0.00    -0.268 OA
BRANCH   6   8
ATOM      8  C   UNL     1      -1.136   4.085  25.238  0.00  0.00    +0.084 A 
ATOM      9  C   UNL     1      -1.781   4.537  25.486  0.00  0.00    +0.012 A 
ATOM     10  C   UNL     1      -1.680   5.304  25.201  0.00  0.00    +0.008 A 
ATOM     11  C   UNL     1      -0.972   5.327  24.776  0.00  0.00    +0.036 A 
ATOM     12  S   UNL     1      -0.637   4.574  24.800  0.00  0.00    -0.082 S 
ENDBRANCH   6   8
ENDBRANCH   4   5
ENDBRANCH   3   4
BRANCH  15  16
ATOM     16  N   UNL     1      -2.749  -0.589  24.669  0.00  0.00    -0.209 NA
BRANCH  16  17
ATOM     17  C   UNL     1      -3.506  -0.898  24.770  0.00  0.00    +0.122 C 
BRANCH  17  18
ATOM     18  C   UNL     1      -3.673  -1.668  24.526  0.00  0.00    +0.025 A 
ATOM     19  C   UNL     1      -4.144  -1.882  23.883  0.00  0.00    +0.004 A 
ATOM     20  C   UNL     1      -4.160  -2.705  23.842  0.00  0.00    +0.007 A 
ATOM     21  C   UNL     1      -3.700  -3.000  24.459  0.00  0.00    +0.035 A 
ATOM     22  S   UNL     1      -3.399  -2.359  24.882  0.00  0.00    -0.089 S 
ENDBRANCH  17  18
ENDBRANCH  16  17
ENDBRANCH  15  16
TORSDOF 6
ENDMDL
MODEL 3
REMARK VINA RESULT:      -8.1      0.946      5.615
REMARK  Name = 
REMARK  6 active torsions:
REMARK  status: ('A' for Active; 'I' for Inactive)
REMARK    1  A    between atoms: C_3  and  C_4
REMARK    2  A    between atoms: C_4  and  N_5
REMARK    3  A    between atoms: C_6  and  C_8
REMARK    4  A    between atoms: C_15  and  N_16
REMARK    5  A    between atoms: N_16  and  C_17
REMARK    6  A    between atoms: C_17  and  C_18
REMARK                            x       y       z     vdW  Elec       q    Type
REMARK                         _______ _______ _______ _____ _____    ______ ____
ROOT
ATOM      1  O   UNL     1      -4.193   1.109  25.406  0.00  0.00    -0.219 OA
ATOM      2  C   UNL     1      -3.761   1.175  24.706  0.00  0.00    +0.199 C 
ATOM      3  C   UNL     1      -3.401   1.861  24.422  0.00  0.00    +0.169 C 
ATOM     13  O   UNL     1      -3.031   1.678  23.707  0.00  0.00    -0.350 OA
ATOM     14  C   UNL     1      -3.162   0.878  23.550  0.00  0.00    +0.162 C 
ATOM     15  C   UNL     1      -3.614   0.568  24.168  0.00  0.00    +0.135 C 
ENDROOT
BRANCH   3   4
ATOM      4  C   UNL     1      -3.409   2.600  24.787  0.00  0.00    +0.148 C 
BRANCH   4   5
ATOM      5  N   UNL     1      -2.746   3.089  24.744  0.00  0.00    -0.199 NA
ATOM      6  C   UNL     1      -2.717   3.786  25.185  0.00  0.00    +0.271 C 
ATOM      7  O   UNL     1      -3.352   3.993  25.671  0.00  0.00    -0.268 OA
BRANCH   6   8
ATOM      8  C   UNL     1      -2.054   4.275  25.141  0.00  0.00    +0.084 A 
ATOM      9  C   UNL     1      -2.062   5.099  25.097  0.00  0.00    +0.012 A 
ATOM     10  C   UNL     1      -1.280   5.360  25.062  0.00  0.00    +0.008 A 
ATOM     11  C   UNL     1      -0.788   4.697  25.084  0.00  0.00    +0.036 A 
ATOM     12  S   UNL     1      -1.268   4.027  25.133  0.00  0.00    -0.082 S 
ENDBRANCH   6   8
ENDBRANCH   4   5
ENDBRANCH   3   4
BRANCH  15  16
ATOM     16  N   UNL     1      -3.872  -0.213  24.234  0.00  0.00    -0.209 NA
BRANCH  16  17
ATOM     17  C   UNL     1      -3.447  -0.820  23.873  0.00  0.00    +0.122 C 
BRANCH  17  18
ATOM     18  C   UNL     1      -3.628  -1.607  24.042  0.00  0.00    +0.025 A 
ATOM     19  C   UNL     1      -4.277  -2.028  23.753  0.00  0.00    +0.004 A 
ATOM     20  C   UNL     1      -4.242  -2.792  24.062  0.00  0.00    +0.007 A 
ATOM     21  C   UNL     1      -3.573  -2.843  24.541  0.00  0.00    +0.035 A 
ATOM     22  S   UNL     1      -3.194  -2.111  24.529  0.00  0.00    -0.089 S 
ENDBRANCH  17  18
ENDBRANCH  16  17
ENDBRANCH  15  16
TORSDOF 6
ENDMDL
MODEL 4
REMARK VINA RESULT:      -6.5     17.762     19.170
REMARK  Name = 
REMARK  6 active torsions:
REMARK  status: ('A' for Active; 'I' for Inactive)
REMARK    1  A    between atoms: C_3  and  C_4
REMARK    2  A    between atoms: C_4  and  N_5
REMARK    3  A    between atoms: C_6  and  C_8
REMARK    4  A    between atoms: C_15  and  N_16
REMARK    5  A    between atoms: N_16  and  C_17
REMARK    6  A    between atoms: C_17  and  C_18
REMARK                            x       y       z     vdW  Elec       q    Type
REMARK                         _______ _______ _______ _____ _____    ______ ____
ROOT
ATOM      1  O   UNL     1      12.503   6.786  18.896  0.00  0.00    -0.219 OA
ATOM      2  C   UNL     1      13.090   7.302  18.631  0.00  0.00    +0.199 C 
ATOM      3  C   UNL     1      13.850   7.374  18.945  0.00  0.00    +0.169 C 
ATOM     13  O   UNL     1      14.250   7.953  18.514  0.00  0.00    -0.350 OA
ATOM     14  C   UNL     1      13.738   8.238  17.933  0.00  0.00    +0.162 C 
ATOM     15  C   UNL     1      13.021   7.835  18.006  0.00  0.00    +0.135 C 
ENDROOT
BRANCH   3   4
ATOM      4  C   UNL     1      14.155   6.944  19.579  0.00  0.00    +0.148 C 
BRANCH   4   5
ATOM      5  N   UNL     1      14.971   6.891  19.686  0.00  0.00    -0.199 NA
ATOM      6  C   UNL     1      15.276   6.594  20.393  0.00  0.00    +0.271 C 
ATOM      7  O   UNL     1      14.765   6.349  20.993  0.00  0.00    -0.268 OA
BRANCH   6   8
ATOM      8  C   UNL     1      16.093   6.541  20.500  0.00  0.00    +0.084 A 
ATOM      9  C   UNL     1      16.649   6.389  19.910  0.00  0.00    +0.012 A 
ATOM     10  C   UNL     1      17.397   6.385  20.259  0.00  0.00    +0.008 A 
ATOM     11  C   UNL     1      17.303   6.535  21.066  0.00  0.00    +0.036 A 
ATOM     12  S   UNL     1      16.496   6.632  21.214  0.00  0.00    -0.082 S 
ENDBRANCH   6   8
ENDBRANCH   4   5
ENDBRANCH   3   4
BRANCH  15  16
ATOM     16  N   UNL     1      12.353   7.947  17.535  0.00  0.00    -0.209 NA
BRANCH  16  17
ATOM     17  C   UNL     1      12.159   8.702  17.266  0.00  0.00    +0.122 C 
BRANCH  17  18
ATOM     18  C   UNL     1      11.562   8.799  16.706  0.00  0.00    +0.025 A 
ATOM     19  C   UNL     1      10.763   8.623  16.812  0.00  0.00    +0.004 A 
ATOM     20  C   UNL     1      10.366   8.805  16.113  0.00  0.00    +0.007 A 
ATOM     21  C   UNL     1      10.919   9.094  15.574  0.00  0.00    +0.035 A 
ATOM     22  S   UNL     1      11.658   9.090  15.940  0.00  0.00    -0.089 S 
ENDBRANCH  17  18
ENDBRANCH  16  17
ENDBRANCH  15  16
TORSDOF 6
ENDMDL
MODEL 5
REMARK VINA RESULT:      -5.6     17.558     19.154
REMARK  Name = 
REMARK  6 active torsions:
REMARK  status: ('A' for Active; 'I' for Inactive)
REMARK    1  A    between atoms: C_3  and  C_4
REMARK    2  A    between atoms: C_4  and  N_5
REMARK    3  A    between atoms: C_6  and  C_8
REMARK    4  A    between atoms: C_15  and  N_16
REMARK    5  A    between atoms: N_16  and  C_17
REMARK    6  A    between atoms: C_17  and  C_18
REMARK                            x       y       z     vdW  Elec       q    Type
REMARK                         _______ _______ _______ _____ _____    ______ ____
ROOT
ATOM      1  O   UNL     1      13.413   6.747  19.614  0.00  0.00    -0.219 OA
ATOM      2  C   UNL     1      13.721   7.497  19.460  0.00  0.00    +0.199 C 
ATOM      3  C   UNL     1      13.311   8.130  19.125  0.00  0.00    +0.169 C 
ATOM     13  O   UNL     1      13.830   8.770  19.071  0.00  0.00    -0.350 OA
ATOM     14  C   UNL     1      14.560   8.532  19.372  0.00  0.00    +0.162 C 
ATOM     15  C   UNL     1      14.493   7.745  19.612  0.00  0.00    +0.135 C 
ENDROOT
BRANCH   3   4
ATOM      4  C   UNL     1      12.522   8.125  18.887  0.00  0.00    +0.148 C 
BRANCH   4   5
ATOM      5  N   UNL     1      12.323   8.339  18.115  0.00  0.00    -0.199 NA
ATOM      6  C   UNL     1      11.530   8.368  17.886  0.00  0.00    +0.271 C 
ATOM      7  O   UNL     1      10.937   8.182  18.429  0.00  0.00    -0.268 OA
BRANCH   6   8
ATOM      8  C   UNL     1      11.332   8.582  17.114  0.00  0.00    +0.084 A 
ATOM      9  C   UNL     1      11.812   9.000  16.589  0.00  0.00    +0.012 A 
ATOM     10  C   UNL     1      11.397   9.094  15.883  0.00  0.00    +0.008 A 
ATOM     11  C   UNL     1      10.659   8.733  15.971  0.00  0.00    +0.036 A 
ATOM     12  S   UNL     1      10.620   8.417  16.732  0.00  0.00    -0.082 S 
ENDBRANCH   6   8
ENDBRANCH   4   5
ENDBRANCH   3   4
BRANCH  15  16
ATOM     16  N   UNL     1      15.092   7.287  19.947  0.00  0.00    -0.209 NA
BRANCH  16  17
ATOM     17  C   UNL     1      15.830   7.243  19.581  0.00  0.00    +0.122 C 
BRANCH  17  18
ATOM     18  C   UNL     1      16.433   6.795  19.921  0.00  0.00    +0.025 A 
ATOM     19  C   UNL     1      16.860   6.194  19.550  0.00  0.00    +0.004 A 
ATOM     20  C   UNL     1      17.405   5.897  20.093  0.00  0.00    +0.007 A 
ATOM     21  C   UNL     1      17.316   6.313  20.798  0.00  0.00    +0.035 A 
ATOM     22  S   UNL     1      16.715   6.869  20.692  0.00  0.00    -0.089 S 
ENDBRANCH  17  18
ENDBRANCH  16  17
ENDBRANCH  15  16
TORSDOF 6
ENDMDL
MODEL 6
REMARK VINA RESULT:      -5.3     16.571     19.078
REMARK  Name = 
REMARK  6 active torsions:
REMARK  status: ('A' for Active; 'I' for Inactive)
REMARK    1  A    between atoms: C_3  and  C_4
REMARK    2  A    between atoms: C_4  and  N_5
REMARK    3  A    between atoms: C_6  and  C_8
REMARK    4  A    between atoms: C_15  and  N_16
REMARK    5  A    between atoms: N_16  and  C_17
REMARK    6  A    between atoms: C_17  and  C_18
REMARK                            x       y       z     vdW  Elec       q    Type
REMARK                         _______ _______ _______ _____ _____    ______ ____
ROOT
ATOM      1  O   UNL     1      14.432   7.610  22.173  0.00  0.00    -0.219 OA
ATOM      2  C   UNL     1      14.255   8.022  21.480  0.00  0.00    +0.199 C 
ATOM      3  C   UNL     1      14.779   8.177  20.861  0.00  0.00    +0.169 C 
ATOM     13  O   UNL     1      14.372   8.603  20.283  0.00  0.00    -0.350 OA
ATOM     14  C   UNL     1      13.597   8.711  20.545  0.00  0.00    +0.162 C 
ATOM     15  C   UNL     1      13.525   8.352  21.285  0.00  0.00    +0.135 C 
ENDROOT
BRANCH   3   4
ATOM      4  C   UNL     1      15.570   7.947  20.826  0.00  0.00    +0.148 C 
BRANCH   4   5
ATOM      5  N   UNL     1      15.797   7.328  20.330  0.00  0.00    -0.199 NA
ATOM      6  C   UNL     1      16.595   7.214  20.152  0.00  0.00    +0.271 C 
ATOM      7  O   UNL     1      17.165   7.719  20.470  0.00  0.00    -0.268 OA
BRANCH   6   8
ATOM      8  C   UNL     1      16.822   6.595  19.655  0.00  0.00    +0.084 A 
ATOM      9  C   UNL     1      16.576   6.485  18.876  0.00  0.00    +0.012 A 
ATOM     10  C   UNL     1      16.936   5.800  18.589  0.00  0.00    +0.008 A 
ATOM     11  C   UNL     1      17.405   5.487  19.192  0.00  0.00    +0.036 A 
ATOM     12  S   UNL     1      17.334   5.979  19.851  0.00  0.00    -0.082 S 
ENDBRANCH   6   8
ENDBRANCH   4   5
ENDBRANCH   3   4
BRANCH  15  16
ATOM     16  N   UNL     1      12.843   8.328  21.748  0.00  0.00    -0.209 NA
BRANCH  16  17
ATOM     17  C   UNL     1      12.102   8.279  21.389  0.00  0.00    +0.122 C 
BRANCH  17  18
ATOM     18  C   UNL     1      11.421   8.231  21.852  0.00  0.00    +0.025 A 
ATOM     19  C   UNL     1      11.152   8.805  22.380  0.00  0.00    +0.004 A 
ATOM     20  C   UNL     1      10.455   8.529  22.723  0.00  0.00    +0.007 A 
ATOM     21  C   UNL     1      10.293   7.785  22.408  0.00  0.00    +0.035 A 
ATOM     22  S   UNL     1      10.891   7.600  21.870  0.00  0.00    -0.089 S 
ENDBRANCH  17  18
ENDBRANCH  16  17
ENDBRANCH  15  16
TORSDOF 6
ENDMDL
