REMARK  Name = 
REMARK  7 active torsions:
REMARK  status: ('A' for Active; 'I' for Inactive)
REMARK    1  A    between atoms: O_2  and  C_3
REMARK    2  A    between atoms: C_8  and  C_9
REMARK    3  A    between atoms: C_9  and  N_10
REMARK    4  A    between atoms: C_14  and  C_15
REMARK    5  A    between atoms: C_17  and  C_20
REMARK    6  A    between atoms: C_24  and  N_26
REMARK    7  A    between atoms: C_29  and  C_32
REMARK                            x       y       z     vdW  Elec       q    Type
REMARK                         _______ _______ _______ _____ _____    ______ ____
ROOT
ATOM     15  C   UNL     1       2.206  -4.803   0.000  0.00  0.00    +0.251 A 
ATOM     16  N   UNL     1       1.538  -5.287   0.000  0.00  0.00    -0.190 NA
ATOM     17  C   UNL     1       0.871  -4.803   0.000  0.00  0.00    +0.203 A 
ATOM     18  N   UNL     1       1.126  -4.018   0.000  0.00  0.00    -0.056 NA
ATOM     19  O   UNL     1       1.951  -4.018   0.000  0.00  0.00    -0.336 OA
ENDROOT
BRANCH  17  20
ATOM     20  C   UNL     1       0.086  -5.057   0.000  0.00  0.00    +0.043 A 
ATOM     21  C   UNL     1      -0.086  -5.864   0.000  0.00  0.00    +0.024 A 
ATOM     22  C   UNL     1      -0.870  -6.119   0.000  0.00  0.00    +0.100 A 
ATOM     23  N   UNL     1      -1.483  -5.567   0.000  0.00  0.00    -0.229 NA
ATOM     24  C   UNL     1      -1.312  -4.760   0.000  0.00  0.00    +0.132 A 
ATOM     25  C   UNL     1      -0.527  -4.505   0.000  0.00  0.00    +0.037 A 
BRANCH  24  26
ATOM     26  N   UNL     1      -1.925  -4.208   0.000  0.00  0.00    -0.293 N 
ATOM     27  C   UNL     1      -2.709  -4.463   0.000  0.00  0.00    +0.093 C 
ATOM     28  C   UNL     1      -3.322  -3.911   0.000  0.00  0.00    +0.031 C 
ATOM     29  C   UNL     1      -3.151  -3.104   0.000  0.00  0.00    +0.083 C 
ATOM     30  C   UNL     1      -2.366  -2.849   0.000  0.00  0.00    +0.031 C 
ATOM     31  C   UNL     1      -1.753  -3.401   0.000  0.00  0.00    +0.093 C 
BRANCH  29  32
ATOM     32  C   UNL     1      -3.764  -2.552   0.000  0.00  0.00    +0.260 C 
ATOM     33  N   UNL     1      -4.549  -2.807   0.000  0.00  0.00    -0.088 NA
ATOM     34  O   UNL     1      -3.592  -1.745   0.000  0.00  0.00    -0.272 OA
ENDBRANCH  29  32
ENDBRANCH  24  26
ENDBRANCH  17  20
BRANCH  15  14
ATOM     10  N   UNL     1       3.658  -4.572   0.000  0.00  0.00    -0.263 NA
ATOM     11  C   UNL     1       4.325  -5.057   0.000  0.00  0.00    +0.073 C 
ATOM     12  C   UNL     1       4.070  -5.842   0.000  0.00  0.00    +0.019 C 
ATOM     13  C   UNL     1       3.245  -5.842   0.000  0.00  0.00    +0.027 C 
ATOM     14  C   UNL     1       2.990  -5.057   0.000  0.00  0.00    +0.138 C 
BRANCH  10   9
ATOM      9  C   UNL     1       3.658  -3.748   0.000  0.00  0.00    +0.103 C 
BRANCH   9   8
ATOM      3  C   UNL     1       4.372  -2.510   0.000  0.00  0.00    +0.136 A 
ATOM      4  C   UNL     1       5.087  -2.098   0.000  0.00  0.00    +0.037 A 
ATOM      5  C   UNL     1       5.801  -2.510   0.000  0.00  0.00    +0.003 A 
ATOM      6  C   UNL     1       5.801  -3.335   0.000  0.00  0.00    -0.000 A 
ATOM      7  C   UNL     1       5.087  -3.748   0.000  0.00  0.00    +0.000 A 
ATOM      8  C   UNL     1       4.372  -3.335   0.000  0.00  0.00    +0.028 A 
BRANCH   3   2
ATOM      1  C   UNL     1       3.658  -1.272   0.000  0.00  0.00    +0.252 C 
ATOM      2  O   UNL     1       3.658  -2.098   0.000  0.00  0.00    -0.472 OA
ENDBRANCH   3   2
ENDBRANCH   9   8
ENDBRANCH  10   9
ENDBRANCH  15  14
TORSDOF 7
