MODEL 1
REMARK VINA RESULT:      -8.6      0.000      0.000
REMARK  Name = 
REMARK  4 active torsions:
REMARK  status: ('A' for Active; 'I' for Inactive)
REMARK    1  A    between atoms: O_2  and  C_3
REMARK    2  A    between atoms: N_8  and  C_9
REMARK    3  A    between atoms: C_9  and  C_10
REMARK    4  A    between atoms: C_13  and  N_16
REMARK                            x       y       z     vdW  Elec       q    Type
REMARK                         _______ _______ _______ _____ _____    ______ ____
ROOT
ATOM      9  C   UNL     1      -3.980   2.425  24.143  0.00  0.00    +0.099 C 
ENDROOT
BRANCH   9   8
ATOM      3  C   UNL     1      -2.422   3.640  25.092  0.00  0.00    +0.161 C 
ATOM      4  C   UNL     1      -2.641   4.053  25.772  0.00  0.00    +0.173 C 
ATOM      5  O   UNL     1      -3.375   4.071  26.148  0.00  0.00    -0.350 OA
ATOM      6  C   UNL     1      -4.071   3.682  25.937  0.00  0.00    +0.160 C 
ATOM      7  C   UNL     1      -4.204   3.177  25.298  0.00  0.00    +0.105 C 
ATOM      8  N   UNL     1      -3.676   2.937  24.712  0.00  0.00    -0.265 NA
ATOM     19  C   UNL     1      -2.882   3.143  24.620  0.00  0.00    +0.105 C 
BRANCH   3   2
ATOM      1  C   UNL     1      -1.207   4.394  25.102  0.00  0.00    +0.174 C 
ATOM      2  O   UNL     1      -1.638   3.736  24.852  0.00  0.00    -0.350 OA
ENDBRANCH   3   2
ENDBRANCH   9   8
BRANCH   9  10
ATOM     10  C   UNL     1      -3.968   1.610  24.273  0.00  0.00    -0.006 A 
ATOM     11  C   UNL     1      -3.365   1.149  23.949  0.00  0.00    -0.002 A 
ATOM     12  C   UNL     1      -3.352   0.334  24.079  0.00  0.00    +0.014 A 
ATOM     13  C   UNL     1      -3.943  -0.019  24.534  0.00  0.00    +0.048 A 
ATOM     14  C   UNL     1      -4.546   0.441  24.858  0.00  0.00    +0.014 A 
ATOM     15  C   UNL     1      -4.558   1.255  24.728  0.00  0.00    -0.002 A 
BRANCH  13  16
ATOM     16  N   UNL     1      -3.931  -0.834  24.664  0.00  0.00    -0.304 N 
ATOM     17  C   UNL     1      -4.206  -1.349  24.081  0.00  0.00    +0.112 C 
ATOM     18  C   UNL     1      -3.644  -1.134  25.377  0.00  0.00    +0.112 C 
ENDBRANCH  13  16
ENDBRANCH   9  10
TORSDOF 4
ENDMDL
MODEL 2
REMARK VINA RESULT:      -8.4      1.084      1.998
REMARK  Name = 
REMARK  4 active torsions:
REMARK  status: ('A' for Active; 'I' for Inactive)
REMARK    1  A    between atoms: O_2  and  C_3
REMARK    2  A    between atoms: N_8  and  C_9
REMARK    3  A    between atoms: C_9  and  C_10
REMARK    4  A    between atoms: C_13  and  N_16
REMARK                            x       y       z     vdW  Elec       q    Type
REMARK                         _______ _______ _______ _____ _____    ______ ____
ROOT
ATOM      9  C   UNL     1      -4.427   0.804  24.566  0.00  0.00    +0.099 C 
ENDROOT
BRANCH   9   8
ATOM      3  C   UNL     1      -3.490   2.734  25.019  0.00  0.00    +0.161 C 
ATOM      4  C   UNL     1      -3.009   3.056  24.431  0.00  0.00    +0.173 C 
ATOM      5  O   UNL     1      -2.831   2.748  23.687  0.00  0.00    -0.350 OA
ATOM      6  C   UNL     1      -3.088   2.041  23.347  0.00  0.00    +0.160 C 
ATOM      7  C   UNL     1      -3.588   1.469  23.668  0.00  0.00    +0.105 C 
ATOM      8  N   UNL     1      -3.955   1.461  24.407  0.00  0.00    -0.265 NA
ATOM     19  C   UNL     1      -3.911   2.024  25.009  0.00  0.00    +0.105 C 
BRANCH   3   2
ATOM      1  C   UNL     1      -3.117   3.871  25.801  0.00  0.00    +0.174 C 
ATOM      2  O   UNL     1      -3.560   3.181  25.709  0.00  0.00    -0.350 OA
ENDBRANCH   3   2
ENDBRANCH   9   8
BRANCH   9  10
ATOM     10  C   UNL     1      -4.086   0.054  24.616  0.00  0.00    -0.006 A 
ATOM     11  C   UNL     1      -3.733  -0.193  25.320  0.00  0.00    -0.002 A 
ATOM     12  C   UNL     1      -3.392  -0.942  25.370  0.00  0.00    +0.014 A 
ATOM     13  C   UNL     1      -3.405  -1.445  24.716  0.00  0.00    +0.048 A 
ATOM     14  C   UNL     1      -3.757  -1.199  24.013  0.00  0.00    +0.014 A 
ATOM     15  C   UNL     1      -4.098  -0.449  23.962  0.00  0.00    -0.002 A 
BRANCH  13  16
ATOM     16  N   UNL     1      -3.064  -2.195  24.766  0.00  0.00    -0.304 N 
ATOM     17  C   UNL     1      -3.538  -2.855  24.914  0.00  0.00    +0.112 C 
ATOM     18  C   UNL     1      -2.250  -2.286  24.668  0.00  0.00    +0.112 C 
ENDBRANCH  13  16
ENDBRANCH   9  10
TORSDOF 4
ENDMDL
MODEL 3
REMARK VINA RESULT:      -8.1      1.971      3.184
REMARK  Name = 
REMARK  4 active torsions:
REMARK  status: ('A' for Active; 'I' for Inactive)
REMARK    1  A    between atoms: O_2  and  C_3
REMARK    2  A    between atoms: N_8  and  C_9
REMARK    3  A    between atoms: C_9  and  C_10
REMARK    4  A    between atoms: C_13  and  N_16
REMARK                            x       y       z     vdW  Elec       q    Type
REMARK                         _______ _______ _______ _____ _____    ______ ____
ROOT
ATOM      9  C   UNL     1      -2.714   1.612  23.404  0.00  0.00    +0.099 C 
ENDROOT
BRANCH   9   8
ATOM      3  C   UNL     1      -0.988   0.632  24.335  0.00  0.00    +0.161 C 
ATOM      4  C   UNL     1      -0.374   1.126  24.582  0.00  0.00    +0.173 C 
ATOM      5  O   UNL     1      -0.321   1.947  24.526  0.00  0.00    -0.350 OA
ATOM      6  C   UNL     1      -0.868   2.478  24.209  0.00  0.00    +0.160 C 
ATOM      7  C   UNL     1      -1.602   2.318  23.870  0.00  0.00    +0.105 C 
ATOM      8  N   UNL     1      -1.973   1.588  23.764  0.00  0.00    -0.265 NA
ATOM     19  C   UNL     1      -1.700   0.837  23.972  0.00  0.00    +0.105 C 
BRANCH   3   2
ATOM      1  C   UNL     1      -0.193  -0.548  24.194  0.00  0.00    +0.174 C 
ATOM      2  O   UNL     1      -0.876  -0.174  24.470  0.00  0.00    -0.350 OA
ENDBRANCH   3   2
ENDBRANCH   9   8
BRANCH   9  10
ATOM     10  C   UNL     1      -3.384   1.794  23.850  0.00  0.00    -0.006 A 
ATOM     11  C   UNL     1      -3.662   2.571  23.880  0.00  0.00    -0.002 A 
ATOM     12  C   UNL     1      -4.331   2.753  24.326  0.00  0.00    +0.014 A 
ATOM     13  C   UNL     1      -4.723   2.158  24.743  0.00  0.00    +0.048 A 
ATOM     14  C   UNL     1      -4.446   1.383  24.714  0.00  0.00    +0.014 A 
ATOM     15  C   UNL     1      -3.776   1.200  24.267  0.00  0.00    -0.002 A 
BRANCH  13  16
ATOM     16  N   UNL     1      -5.393   2.341  25.189  0.00  0.00    -0.304 N 
ATOM     17  C   UNL     1      -5.351   2.916  25.780  0.00  0.00    +0.112 C 
ATOM     18  C   UNL     1      -6.104   1.949  25.045  0.00  0.00    +0.112 C 
ENDBRANCH  13  16
ENDBRANCH   9  10
TORSDOF 4
ENDMDL
MODEL 4
REMARK VINA RESULT:      -8.1      2.070      4.120
REMARK  Name = 
REMARK  4 active torsions:
REMARK  status: ('A' for Active; 'I' for Inactive)
REMARK    1  A    between atoms: O_2  and  C_3
REMARK    2  A    between atoms: N_8  and  C_9
REMARK    3  A    between atoms: C_9  and  C_10
REMARK    4  A    between atoms: C_13  and  N_16
REMARK                            x       y       z     vdW  Elec       q    Type
REMARK                         _______ _______ _______ _____ _____    ______ ____
ROOT
ATOM      9  C   UNL     1      -3.591   0.425  23.899  0.00  0.00    +0.099 C 
ENDROOT
BRANCH   9   8
ATOM      3  C   UNL     1      -3.097  -1.426  24.965  0.00  0.00    +0.161 C 
ATOM      4  C   UNL     1      -2.329  -1.485  25.263  0.00  0.00    +0.173 C 
ATOM      5  O   UNL     1      -1.716  -0.936  25.213  0.00  0.00    -0.350 OA
ATOM      6  C   UNL     1      -1.717  -0.193  24.854  0.00  0.00    +0.160 C 
ATOM      7  C   UNL     1      -2.333   0.184  24.456  0.00  0.00    +0.105 C 
ATOM      8  N   UNL     1      -3.100  -0.087  24.318  0.00  0.00    -0.265 NA
ATOM     19  C   UNL     1      -3.440  -0.804  24.545  0.00  0.00    +0.105 C 
BRANCH   3   2
ATOM      1  C   UNL     1      -3.441  -2.793  24.727  0.00  0.00    +0.174 C 
ATOM      2  O   UNL     1      -3.587  -2.075  25.107  0.00  0.00    -0.350 OA
ENDBRANCH   3   2
ENDBRANCH   9   8
BRANCH   9  10
ATOM     10  C   UNL     1      -3.955   1.056  24.287  0.00  0.00    -0.006 A 
ATOM     11  C   UNL     1      -3.615   1.808  24.262  0.00  0.00    -0.002 A 
ATOM     12  C   UNL     1      -3.980   2.439  24.649  0.00  0.00    +0.014 A 
ATOM     13  C   UNL     1      -4.684   2.317  25.061  0.00  0.00    +0.048 A 
ATOM     14  C   UNL     1      -5.024   1.567  25.086  0.00  0.00    +0.014 A 
ATOM     15  C   UNL     1      -4.660   0.936  24.699  0.00  0.00    -0.002 A 
BRANCH  13  16
ATOM     16  N   UNL     1      -5.049   2.948  25.448  0.00  0.00    -0.304 N 
ATOM     17  C   UNL     1      -5.756   2.828  25.858  0.00  0.00    +0.112 C 
ATOM     18  C   UNL     1      -4.708   3.699  25.427  0.00  0.00    +0.112 C 
ENDBRANCH  13  16
ENDBRANCH   9  10
TORSDOF 4
ENDMDL
