MODEL 1
REMARK VINA RESULT:     -10.1      0.000      0.000
REMARK  Name = 
REMARK  4 active torsions:
REMARK  status: ('A' for Active; 'I' for Inactive)
REMARK    1  A    between atoms: C_2  and  C_23
REMARK    2  A    between atoms: N_10  and  C_11
REMARK    3  A    between atoms: C_11  and  C_12
REMARK    4  A    between atoms: C_12  and  N_13
REMARK                            x       y       z     vdW  Elec       q    Type
REMARK                         _______ _______ _______ _____ _____    ______ ____
ROOT
ATOM      1  O   UNL     1      -3.844   3.057  23.740  0.00  0.00    -0.270 OA
ATOM      2  C   UNL     1      -3.920   2.456  24.301  0.00  0.00    +0.249 C 
ATOM      3  N   UNL     1      -3.307   1.914  24.409  0.00  0.00    -0.276 N 
ATOM      4  C   UNL     1      -3.383   1.313  24.969  0.00  0.00    +0.094 C 
ATOM      5  C   UNL     1      -2.771   0.771  25.078  0.00  0.00    +0.022 C 
ATOM      6  C   UNL     1      -2.083   0.829  24.626  0.00  0.00    +0.012 C 
ATOM      7  C   UNL     1      -1.544   0.236  24.821  0.00  0.00    +0.085 C 
ATOM      8  C   UNL     1      -0.795   0.098  24.503  0.00  0.00    +0.226 C 
ATOM      9  O   UNL     1      -0.387  -0.546  24.817  0.00  0.00    -0.275 OA
ATOM     10  N   UNL     1      -0.401   0.517  23.912  0.00  0.00    -0.278 N 
ATOM     19  C   UNL     1      -0.659   1.180  23.494  0.00  0.00    +0.094 C 
ATOM     20  C   UNL     1      -1.373   1.586  23.562  0.00  0.00    +0.023 C 
ATOM     21  C   UNL     1      -2.007   1.430  24.066  0.00  0.00    +0.022 C 
ATOM     22  C   UNL     1      -2.620   1.972  23.958  0.00  0.00    +0.094 C 
ENDROOT
BRANCH   2  23
ATOM     23  C   UNL     1      -4.607   2.398  24.752  0.00  0.00    +0.054 A 
ATOM     24  C   UNL     1      -5.206   1.877  24.528  0.00  0.00    +0.005 A 
ATOM     25  C   UNL     1      -5.893   1.818  24.979  0.00  0.00    +0.000 A 
ATOM     26  C   UNL     1      -5.983   2.282  25.656  0.00  0.00    +0.000 A 
ATOM     27  C   UNL     1      -5.385   2.804  25.881  0.00  0.00    +0.000 A 
ATOM     28  C   UNL     1      -4.697   2.862  25.429  0.00  0.00    +0.005 A 
ENDBRANCH   2  23
BRANCH  10  11
ATOM     11  C   UNL     1       0.349   0.238  23.714  0.00  0.00    +0.115 C 
BRANCH  11  12
ATOM     12  C   UNL     1       0.603   0.258  22.930  0.00  0.00    +0.117 C 
BRANCH  12  13
ATOM     13  N   UNL     1       1.405   0.183  22.754  0.00  0.00    -0.259 N 
ATOM     14  C   UNL     1       2.031   0.454  23.219  0.00  0.00    +0.118 C 
ATOM     15  C   UNL     1       2.736   0.262  22.834  0.00  0.00    +0.138 C 
ATOM     16  N   UNL     1       2.545  -0.127  22.132  0.00  0.00    -0.187 NA
ATOM     17  C   UNL     1       1.723  -0.176  22.083  0.00  0.00    +0.323 C 
ATOM     18  O   UNL     1       1.294  -0.523  21.469  0.00  0.00    -0.251 OA
ENDBRANCH  12  13
ENDBRANCH  11  12
ENDBRANCH  10  11
TORSDOF 4
ENDMDL
MODEL 2
REMARK VINA RESULT:     -10.0      2.739      4.405
REMARK  Name = 
REMARK  4 active torsions:
REMARK  status: ('A' for Active; 'I' for Inactive)
REMARK    1  A    between atoms: C_2  and  C_23
REMARK    2  A    between atoms: N_10  and  C_11
REMARK    3  A    between atoms: C_11  and  C_12
REMARK    4  A    between atoms: C_12  and  N_13
REMARK                            x       y       z     vdW  Elec       q    Type
REMARK                         _______ _______ _______ _____ _____    ______ ____
ROOT
ATOM      1  O   UNL     1      -4.626  -0.543  24.628  0.00  0.00    -0.270 OA
ATOM      2  C   UNL     1      -3.878  -0.889  24.589  0.00  0.00    +0.249 C 
ATOM      3  N   UNL     1      -3.203  -0.415  24.605  0.00  0.00    -0.276 N 
ATOM      4  C   UNL     1      -2.456  -0.761  24.565  0.00  0.00    +0.094 C 
ATOM      5  C   UNL     1      -1.780  -0.288  24.581  0.00  0.00    +0.022 C 
ATOM      6  C   UNL     1      -1.853   0.532  24.637  0.00  0.00    +0.012 C 
ATOM      7  C   UNL     1      -1.114   0.900  24.644  0.00  0.00    +0.085 C 
ATOM      8  C   UNL     1      -0.941   1.705  24.693  0.00  0.00    +0.226 C 
ATOM      9  O   UNL     1      -0.140   1.900  24.688  0.00  0.00    -0.275 OA
ATOM     10  N   UNL     1      -1.464   2.341  24.747  0.00  0.00    -0.278 N 
ATOM     19  C   UNL     1      -2.288   2.329  24.765  0.00  0.00    +0.094 C 
ATOM     20  C   UNL     1      -2.794   1.678  24.733  0.00  0.00    +0.023 C 
ATOM     21  C   UNL     1      -2.600   0.878  24.676  0.00  0.00    +0.022 C 
ATOM     22  C   UNL     1      -3.276   0.404  24.660  0.00  0.00    +0.094 C 
ENDROOT
BRANCH   2  23
ATOM     23  C   UNL     1      -3.806  -1.709  24.533  0.00  0.00    +0.054 A 
ATOM     24  C   UNL     1      -3.561  -2.147  25.188  0.00  0.00    +0.005 A 
ATOM     25  C   UNL     1      -3.489  -2.967  25.132  0.00  0.00    +0.000 A 
ATOM     26  C   UNL     1      -3.662  -3.349  24.421  0.00  0.00    +0.000 A 
ATOM     27  C   UNL     1      -3.907  -2.911  23.766  0.00  0.00    +0.000 A 
ATOM     28  C   UNL     1      -3.979  -2.091  23.822  0.00  0.00    +0.005 A 
ENDBRANCH   2  23
BRANCH  10  11
ATOM     11  C   UNL     1      -1.116   3.088  24.788  0.00  0.00    +0.115 C 
BRANCH  11  12
ATOM     12  C   UNL     1      -1.511   3.706  25.163  0.00  0.00    +0.117 C 
BRANCH  12  13
ATOM     13  N   UNL     1      -1.266   4.485  25.044  0.00  0.00    -0.259 N 
ATOM     14  C   UNL     1      -0.582   4.723  24.647  0.00  0.00    +0.118 C 
ATOM     15  C   UNL     1      -0.554   5.547  24.659  0.00  0.00    +0.138 C 
ATOM     16  N   UNL     1      -1.220   5.819  25.062  0.00  0.00    -0.187 NA
ATOM     17  C   UNL     1      -1.660   5.162  25.300  0.00  0.00    +0.323 C 
ATOM     18  O   UNL     1      -2.370   5.181  25.721  0.00  0.00    -0.251 OA
ENDBRANCH  12  13
ENDBRANCH  11  12
ENDBRANCH  10  11
TORSDOF 4
ENDMDL
MODEL 3
REMARK VINA RESULT:      -9.8      3.082      4.272
REMARK  Name = 
REMARK  4 active torsions:
REMARK  status: ('A' for Active; 'I' for Inactive)
REMARK    1  A    between atoms: C_2  and  C_23
REMARK    2  A    between atoms: N_10  and  C_11
REMARK    3  A    between atoms: C_11  and  C_12
REMARK    4  A    between atoms: C_12  and  N_13
REMARK                            x       y       z     vdW  Elec       q    Type
REMARK                         _______ _______ _______ _____ _____    ______ ____
ROOT
ATOM      1  O   UNL     1      -0.718   3.178  26.069  0.00  0.00    -0.270 OA
ATOM      2  C   UNL     1      -1.212   3.435  25.460  0.00  0.00    +0.249 C 
ATOM      3  N   UNL     1      -1.703   2.897  25.073  0.00  0.00    -0.276 N 
ATOM      4  C   UNL     1      -2.197   3.154  24.464  0.00  0.00    +0.094 C 
ATOM      5  C   UNL     1      -2.689   2.617  24.077  0.00  0.00    +0.022 C 
ATOM      6  C   UNL     1      -2.687   1.821  24.299  0.00  0.00    +0.012 C 
ATOM      7  C   UNL     1      -3.216   1.380  23.844  0.00  0.00    +0.085 C 
ATOM      8  C   UNL     1      -3.382   0.574  23.888  0.00  0.00    +0.226 C 
ATOM      9  O   UNL     1      -3.944   0.295  23.352  0.00  0.00    -0.275 OA
ATOM     10  N   UNL     1      -3.060   0.009  24.395  0.00  0.00    -0.278 N 
ATOM     19  C   UNL     1      -2.493   0.111  24.985  0.00  0.00    +0.094 C 
ATOM     20  C   UNL     1      -2.107   0.803  25.213  0.00  0.00    +0.023 C 
ATOM     21  C   UNL     1      -2.193   1.565  24.908  0.00  0.00    +0.022 C 
ATOM     22  C   UNL     1      -1.702   2.103  25.295  0.00  0.00    +0.094 C 
ENDROOT
BRANCH   2  23
ATOM     23  C   UNL     1      -1.213   4.229  25.238  0.00  0.00    +0.054 A 
ATOM     24  C   UNL     1      -0.607   4.527  24.765  0.00  0.00    +0.005 A 
ATOM     25  C   UNL     1      -0.608   5.321  24.543  0.00  0.00    +0.000 A 
ATOM     26  C   UNL     1      -1.217   5.818  24.794  0.00  0.00    +0.000 A 
ATOM     27  C   UNL     1      -1.824   5.521  25.267  0.00  0.00    +0.000 A 
ATOM     28  C   UNL     1      -1.822   4.726  25.489  0.00  0.00    +0.005 A 
ENDBRANCH   2  23
BRANCH  10  11
ATOM     11  C   UNL     1      -3.343  -0.761  24.300  0.00  0.00    +0.115 C 
BRANCH  11  12
ATOM     12  C   UNL     1      -2.912  -1.398  24.596  0.00  0.00    +0.117 C 
BRANCH  12  13
ATOM     13  N   UNL     1      -3.162  -2.170  24.447  0.00  0.00    -0.259 N 
ATOM     14  C   UNL     1      -3.942  -2.415  24.339  0.00  0.00    +0.118 C 
ATOM     15  C   UNL     1      -3.938  -3.229  24.204  0.00  0.00    +0.138 C 
ATOM     16  N   UNL     1      -3.154  -3.487  24.228  0.00  0.00    -0.187 NA
ATOM     17  C   UNL     1      -2.675  -2.832  24.378  0.00  0.00    +0.323 C 
ATOM     18  O   UNL     1      -1.852  -2.839  24.447  0.00  0.00    -0.251 OA
ENDBRANCH  12  13
ENDBRANCH  11  12
ENDBRANCH  10  11
TORSDOF 4
ENDMDL
MODEL 4
REMARK VINA RESULT:      -7.9      2.173      2.825
REMARK  Name = 
REMARK  4 active torsions:
REMARK  status: ('A' for Active; 'I' for Inactive)
REMARK    1  A    between atoms: C_2  and  C_23
REMARK    2  A    between atoms: N_10  and  C_11
REMARK    3  A    between atoms: C_11  and  C_12
REMARK    4  A    between atoms: C_12  and  N_13
REMARK                            x       y       z     vdW  Elec       q    Type
REMARK                         _______ _______ _______ _____ _____    ______ ____
ROOT
ATOM      1  O   UNL     1      -2.203  -1.848  24.155  0.00  0.00    -0.270 OA
ATOM      2  C   UNL     1      -2.300  -1.070  24.411  0.00  0.00    +0.249 C 
ATOM      3  N   UNL     1      -1.686  -0.526  24.320  0.00  0.00    -0.276 N 
ATOM      4  C   UNL     1      -1.784   0.252  24.575  0.00  0.00    +0.094 C 
ATOM      5  C   UNL     1      -1.170   0.796  24.485  0.00  0.00    +0.022 C 
ATOM      6  C   UNL     1      -0.459   0.561  24.139  0.00  0.00    +0.012 C 
ATOM      7  C   UNL     1       0.079   1.187  24.102  0.00  0.00    +0.085 C 
ATOM      8  C   UNL     1       0.846   1.187  23.799  0.00  0.00    +0.226 C 
ATOM      9  O   UNL     1       1.246   1.907  23.842  0.00  0.00    -0.275 OA
ATOM     10  N   UNL     1       1.266   0.563  23.460  0.00  0.00    -0.278 N 
ATOM     19  C   UNL     1       1.022  -0.215  23.339  0.00  0.00    +0.094 C 
ATOM     20  C   UNL     1       0.298  -0.563  23.528  0.00  0.00    +0.023 C 
ATOM     21  C   UNL     1      -0.361  -0.217  23.884  0.00  0.00    +0.022 C 
ATOM     22  C   UNL     1      -0.975  -0.761  23.974  0.00  0.00    +0.094 C 
ENDROOT
BRANCH   2  23
ATOM     23  C   UNL     1      -3.011  -0.836  24.756  0.00  0.00    +0.054 A 
ATOM     24  C   UNL     1      -3.130  -0.937  25.566  0.00  0.00    +0.005 A 
ATOM     25  C   UNL     1      -3.841  -0.703  25.912  0.00  0.00    +0.000 A 
ATOM     26  C   UNL     1      -4.434  -0.367  25.448  0.00  0.00    +0.000 A 
ATOM     27  C   UNL     1      -4.317  -0.265  24.637  0.00  0.00    +0.000 A 
ATOM     28  C   UNL     1      -3.605  -0.500  24.292  0.00  0.00    +0.005 A 
ENDBRANCH   2  23
BRANCH  10  11
ATOM     11  C   UNL     1       2.031   0.742  23.208  0.00  0.00    +0.115 C 
BRANCH  11  12
ATOM     12  C   UNL     1       2.572   0.135  23.070  0.00  0.00    +0.117 C 
BRANCH  12  13
ATOM     13  N   UNL     1       3.369   0.312  22.955  0.00  0.00    -0.259 N 
ATOM     14  C   UNL     1       3.670   1.009  22.631  0.00  0.00    +0.118 C 
ATOM     15  C   UNL     1       4.493   0.950  22.620  0.00  0.00    +0.138 C 
ATOM     16  N   UNL     1       4.701   0.217  22.937  0.00  0.00    -0.187 NA
ATOM     17  C   UNL     1       4.006  -0.177  23.144  0.00  0.00    +0.323 C 
ATOM     18  O   UNL     1       3.957  -0.929  23.481  0.00  0.00    -0.251 OA
ENDBRANCH  12  13
ENDBRANCH  11  12
ENDBRANCH  10  11
TORSDOF 4
ENDMDL
MODEL 5
REMARK VINA RESULT:      -7.5      1.079      6.030
REMARK  Name = 
REMARK  4 active torsions:
REMARK  status: ('A' for Active; 'I' for Inactive)
REMARK    1  A    between atoms: C_2  and  C_23
REMARK    2  A    between atoms: N_10  and  C_11
REMARK    3  A    between atoms: C_11  and  C_12
REMARK    4  A    between atoms: C_12  and  N_13
REMARK                            x       y       z     vdW  Elec       q    Type
REMARK                         _______ _______ _______ _____ _____    ______ ____
ROOT
ATOM      1  O   UNL     1       0.094  -0.903  23.873  0.00  0.00    -0.270 OA
ATOM      2  C   UNL     1       0.302  -0.168  23.563  0.00  0.00    +0.249 C 
ATOM      3  N   UNL     1      -0.196   0.481  23.673  0.00  0.00    -0.276 N 
ATOM      4  C   UNL     1       0.012   1.217  23.363  0.00  0.00    +0.094 C 
ATOM      5  C   UNL     1      -0.484   1.867  23.473  0.00  0.00    +0.022 C 
ATOM      6  C   UNL     1      -1.190   1.780  23.893  0.00  0.00    +0.012 C 
ATOM      7  C   UNL     1      -1.602   2.493  23.939  0.00  0.00    +0.085 C 
ATOM      8  C   UNL     1      -2.325   2.646  24.306  0.00  0.00    +0.226 C 
ATOM      9  O   UNL     1      -2.595   3.424  24.254  0.00  0.00    -0.275 OA
ATOM     10  N   UNL     1      -2.813   2.124  24.718  0.00  0.00    -0.278 N 
ATOM     19  C   UNL     1      -2.700   1.321  24.864  0.00  0.00    +0.094 C 
ATOM     20  C   UNL     1      -2.070   0.840  24.635  0.00  0.00    +0.023 C 
ATOM     21  C   UNL     1      -1.398   1.044  24.203  0.00  0.00    +0.022 C 
ATOM     22  C   UNL     1      -0.900   0.395  24.093  0.00  0.00    +0.094 C 
ENDROOT
BRANCH   2  23
ATOM     23  C   UNL     1       1.006  -0.082  23.144  0.00  0.00    +0.054 A 
ATOM     24  C   UNL     1       1.670   0.241  23.512  0.00  0.00    +0.005 A 
ATOM     25  C   UNL     1       2.374   0.327  23.093  0.00  0.00    +0.000 A 
ATOM     26  C   UNL     1       2.416   0.091  22.304  0.00  0.00    +0.000 A 
ATOM     27  C   UNL     1       1.753  -0.232  21.934  0.00  0.00    +0.000 A 
ATOM     28  C   UNL     1       1.048  -0.318  22.354  0.00  0.00    +0.005 A 
ENDBRANCH   2  23
BRANCH  10  11
ATOM     11  C   UNL     1      -3.507   2.449  25.024  0.00  0.00    +0.115 C 
BRANCH  11  12
ATOM     12  C   UNL     1      -4.199   2.002  25.041  0.00  0.00    +0.117 C 
BRANCH  12  13
ATOM     13  N   UNL     1      -4.905   2.343  25.300  0.00  0.00    -0.259 N 
ATOM     14  C   UNL     1      -4.973   3.021  25.765  0.00  0.00    +0.118 C 
ATOM     15  C   UNL     1      -5.776   3.163  25.892  0.00  0.00    +0.138 C 
ATOM     16  N   UNL     1      -6.204   2.572  25.505  0.00  0.00    -0.187 NA
ATOM     17  C   UNL     1      -5.665   2.066  25.140  0.00  0.00    +0.323 C 
ATOM     18  O   UNL     1      -5.853   1.398  24.692  0.00  0.00    -0.251 OA
ENDBRANCH  12  13
ENDBRANCH  11  12
ENDBRANCH  10  11
TORSDOF 4
ENDMDL
MODEL 6
REMARK VINA RESULT:      -7.1     18.449     20.015
REMARK  Name = 
REMARK  4 active torsions:
REMARK  status: ('A' for Active; 'I' for Inactive)
REMARK    1  A    between atoms: C_2  and  C_23
REMARK    2  A    between atoms: N_10  and  C_11
REMARK    3  A    between atoms: C_11  and  C_12
REMARK    4  A    between atoms: C_12  and  N_13
REMARK                            x       y       z     vdW  Elec       q    Type
REMARK                         _______ _______ _______ _____ _____    ______ ____
ROOT
ATOM      1  O   UNL     1      16.543  -2.418  25.113  0.00  0.00    -0.270 OA
ATOM      2  C   UNL     1      16.680  -2.675  24.341  0.00  0.00    +0.249 C 
ATOM      3  N   UNL     1      16.811  -3.476  24.191  0.00  0.00    -0.276 N 
ATOM      4  C   UNL     1      16.947  -3.733  23.419  0.00  0.00    +0.094 C 
ATOM      5  C   UNL     1      17.078  -4.533  23.267  0.00  0.00    +0.022 C 
ATOM      6  C   UNL     1      17.072  -5.077  23.889  0.00  0.00    +0.012 C 
ATOM      7  C   UNL     1      17.214  -5.844  23.619  0.00  0.00    +0.085 C 
ATOM      8  C   UNL     1      17.253  -6.543  24.055  0.00  0.00    +0.226 C 
ATOM      9  O   UNL     1      17.405  -7.227  23.621  0.00  0.00    -0.275 OA
ATOM     10  N   UNL     1      17.161  -6.648  24.868  0.00  0.00    -0.278 N 
ATOM     19  C   UNL     1      17.007  -6.080  25.446  0.00  0.00    +0.094 C 
ATOM     20  C   UNL     1      16.906  -5.266  25.354  0.00  0.00    +0.023 C 
ATOM     21  C   UNL     1      16.935  -4.820  24.661  0.00  0.00    +0.022 C 
ATOM     22  C   UNL     1      16.804  -4.019  24.811  0.00  0.00    +0.094 C 
ENDROOT
BRANCH   2  23
ATOM     23  C   UNL     1      16.686  -2.132  23.721  0.00  0.00    +0.054 A 
ATOM     24  C   UNL     1      17.377  -1.719  23.540  0.00  0.00    +0.005 A 
ATOM     25  C   UNL     1      17.383  -1.176  22.920  0.00  0.00    +0.000 A 
ATOM     26  C   UNL     1      16.698  -1.045  22.480  0.00  0.00    +0.000 A 
ATOM     27  C   UNL     1      16.006  -1.457  22.660  0.00  0.00    +0.000 A 
ATOM     28  C   UNL     1      16.000  -2.001  23.281  0.00  0.00    +0.005 A 
ENDBRANCH   2  23
BRANCH  10  11
ATOM     11  C   UNL     1      17.233  -7.424  25.139  0.00  0.00    +0.115 C 
BRANCH  11  12
ATOM     12  C   UNL     1      16.596  -7.791  25.511  0.00  0.00    +0.117 C 
BRANCH  12  13
ATOM     13  N   UNL     1      16.690  -8.538  25.848  0.00  0.00    -0.259 N 
ATOM     14  C   UNL     1      17.404  -8.875  26.089  0.00  0.00    +0.118 C 
ATOM     15  C   UNL     1      17.242  -9.625  26.394  0.00  0.00    +0.138 C 
ATOM     16  N   UNL     1      16.428  -9.751  26.342  0.00  0.00    -0.187 NA
ATOM     17  C   UNL     1      16.087  -9.079  26.005  0.00  0.00    +0.323 C 
ATOM     18  O   UNL     1      15.284  -8.968  25.852  0.00  0.00    -0.251 OA
ENDBRANCH  12  13
ENDBRANCH  11  12
ENDBRANCH  10  11
TORSDOF 4
ENDMDL
