MODEL 1
REMARK VINA RESULT:     -10.1      0.000      0.000
REMARK  Name = 
REMARK  7 active torsions:
REMARK  status: ('A' for Active; 'I' for Inactive)
REMARK    1  A    between atoms: C_2  and  C_4
REMARK    2  A    between atoms: C_7  and  N_8
REMARK    3  A    between atoms: C_9  and  O_11
REMARK    4  A    between atoms: O_11  and  C_12
REMARK    5  A    between atoms: C_16  and  N_20
REMARK    6  A    between atoms: N_20  and  S_21
REMARK    7  A    between atoms: S_21  and  C_24
REMARK                            x       y       z     vdW  Elec       q    Type
REMARK                         _______ _______ _______ _____ _____    ______ ____
ROOT
ATOM     12  C   UNL     1       0.106   0.334  23.356  0.00  0.00    +0.229 C 
ATOM     13  C   UNL     1       0.090  -0.137  24.033  0.00  0.00    +0.188 C 
ATOM     14  O   UNL     1      -0.605   0.030  24.444  0.00  0.00    -0.348 OA
ATOM     15  C   UNL     1      -1.019   0.605  24.021  0.00  0.00    +0.166 C 
ATOM     16  C   UNL     1      -1.706   1.064  24.013  0.00  0.00    +0.157 C 
ATOM     17  C   UNL     1      -1.690   1.534  23.337  0.00  0.00    +0.164 C 
ATOM     18  O   UNL     1      -0.995   1.367  22.926  0.00  0.00    -0.348 OA
ATOM     19  C   UNL     1      -0.580   0.793  23.348  0.00  0.00    +0.186 C 
ENDROOT
BRANCH  12  11
ATOM     11  O   UNL     1       0.702   0.345  22.786  0.00  0.00    -0.432 OA
BRANCH  11   9
ATOM      8  N   UNL     1       2.079   0.043  22.547  0.00  0.00    -0.142 NA
ATOM      9  C   UNL     1       1.492   0.385  23.018  0.00  0.00    +0.425 C 
ATOM     10  O   UNL     1       1.698   0.766  23.720  0.00  0.00    -0.224 OA
BRANCH   8   7
ATOM      4  C   UNL     1       4.451   0.163  23.242  0.00  0.00    -0.022 A 
ATOM      5  C   UNL     1       4.099   0.808  22.866  0.00  0.00    -0.003 A 
ATOM      6  C   UNL     1       3.308   0.768  22.634  0.00  0.00    +0.016 A 
ATOM      7  C   UNL     1       2.869   0.083  22.779  0.00  0.00    +0.077 A 
ATOM     34  C   UNL     1       3.222  -0.560  23.156  0.00  0.00    +0.016 A 
ATOM     35  C   UNL     1       4.013  -0.520  23.387  0.00  0.00    -0.003 A 
BRANCH   4   2
ATOM      1  C   UNL     1       5.454   0.630  24.147  0.00  0.00    +0.005 C 
ATOM      2  C   UNL     1       5.242   0.203  23.474  0.00  0.00    +0.022 C 
ATOM      3  C   UNL     1       5.822  -0.184  23.032  0.00  0.00    +0.005 C 
ENDBRANCH   4   2
ENDBRANCH   8   7
ENDBRANCH  11   9
ENDBRANCH  12  11
BRANCH  16  20
ATOM     20  N   UNL     1      -2.302   1.052  24.584  0.00  0.00    -0.074 NA
BRANCH  20  21
ATOM     21  S   UNL     1      -2.825   1.687  24.645  0.00  0.00    +0.078 S 
ATOM     22  O   UNL     1      -3.205   1.442  23.956  0.00  0.00    -0.152 OA
ATOM     23  O   UNL     1      -2.445   1.933  25.335  0.00  0.00    -0.152 OA
BRANCH  21  24
ATOM     24  C   UNL     1      -3.348   2.323  24.707  0.00  0.00    +0.141 A 
ATOM     25  C   UNL     1      -3.091   3.086  24.529  0.00  0.00    +0.022 A 
ATOM     26  C   UNL     1      -3.614   3.722  24.591  0.00  0.00    +0.001 A 
ATOM     27  C   UNL     1      -4.393   3.593  24.831  0.00  0.00    +0.002 A 
ATOM     28  C   UNL     1      -4.650   2.829  25.008  0.00  0.00    +0.019 A 
ATOM     29  C   UNL     1      -4.127   2.193  24.946  0.00  0.00    +0.100 A 
ATOM     30  N   UNL     1      -4.383   1.430  25.124  0.00  0.00    -0.242 NA
ATOM     31  C   UNL     1      -5.161   1.301  25.363  0.00  0.00    +0.099 A 
ATOM     32  C   UNL     1      -5.685   1.937  25.425  0.00  0.00    +0.021 A 
ATOM     33  C   UNL     1      -5.429   2.700  25.247  0.00  0.00    +0.003 A 
ENDBRANCH  21  24
ENDBRANCH  20  21
ENDBRANCH  16  20
TORSDOF 7
ENDMDL
MODEL 2
REMARK VINA RESULT:      -9.3      0.989      1.561
REMARK  Name = 
REMARK  7 active torsions:
REMARK  status: ('A' for Active; 'I' for Inactive)
REMARK    1  A    between atoms: C_2  and  C_4
REMARK    2  A    between atoms: C_7  and  N_8
REMARK    3  A    between atoms: C_9  and  O_11
REMARK    4  A    between atoms: O_11  and  C_12
REMARK    5  A    between atoms: C_16  and  N_20
REMARK    6  A    between atoms: N_20  and  S_21
REMARK    7  A    between atoms: S_21  and  C_24
REMARK                            x       y       z     vdW  Elec       q    Type
REMARK                         _______ _______ _______ _____ _____    ______ ____
ROOT
ATOM     12  C   UNL     1       0.539   0.713  23.347  0.00  0.00    +0.229 C 
ATOM     13  C   UNL     1       0.512   1.501  23.588  0.00  0.00    +0.188 C 
ATOM     14  O   UNL     1      -0.146   1.597  24.075  0.00  0.00    -0.348 OA
ATOM     15  C   UNL     1      -0.527   0.867  24.135  0.00  0.00    +0.166 C 
ATOM     16  C   UNL     1      -1.170   0.475  24.473  0.00  0.00    +0.157 C 
ATOM     17  C   UNL     1      -1.143  -0.312  24.231  0.00  0.00    +0.164 C 
ATOM     18  O   UNL     1      -0.485  -0.408  23.744  0.00  0.00    -0.348 OA
ATOM     19  C   UNL     1      -0.104   0.321  23.685  0.00  0.00    +0.186 C 
ENDROOT
BRANCH  12  11
ATOM     11  O   UNL     1       1.108   0.376  22.854  0.00  0.00    -0.432 OA
BRANCH  11   9
ATOM      8  N   UNL     1       2.448  -0.108  22.735  0.00  0.00    -0.142 NA
ATOM      9  C   UNL     1       1.907   0.432  23.049  0.00  0.00    +0.425 C 
ATOM     10  O   UNL     1       2.168   1.027  23.557  0.00  0.00    -0.224 OA
BRANCH   8   7
ATOM      4  C   UNL     1       4.847   0.061  23.319  0.00  0.00    -0.022 A 
ATOM      5  C   UNL     1       4.494   0.643  22.853  0.00  0.00    -0.003 A 
ATOM      6  C   UNL     1       3.695   0.587  22.658  0.00  0.00    +0.016 A 
ATOM      7  C   UNL     1       3.247  -0.052  22.930  0.00  0.00    +0.077 A 
ATOM     34  C   UNL     1       3.601  -0.633  23.396  0.00  0.00    +0.016 A 
ATOM     35  C   UNL     1       4.401  -0.577  23.591  0.00  0.00    -0.003 A 
BRANCH   4   2
ATOM      1  C   UNL     1       5.880   0.537  24.184  0.00  0.00    +0.005 C 
ATOM      2  C   UNL     1       5.647   0.117  23.514  0.00  0.00    +0.022 C 
ATOM      3  C   UNL     1       6.214  -0.247  23.038  0.00  0.00    +0.005 C 
ENDBRANCH   4   2
ENDBRANCH   8   7
ENDBRANCH  11   9
ENDBRANCH  12  11
BRANCH  16  20
ATOM     20  N   UNL     1      -1.739   0.813  24.966  0.00  0.00    -0.074 NA
BRANCH  20  21
ATOM     21  S   UNL     1      -2.535   0.620  24.869  0.00  0.00    +0.078 S 
ATOM     22  O   UNL     1      -2.521   0.203  25.580  0.00  0.00    -0.152 OA
ATOM     23  O   UNL     1      -2.550   1.038  24.157  0.00  0.00    -0.152 OA
BRANCH  21  24
ATOM     24  C   UNL     1      -3.331   0.427  24.772  0.00  0.00    +0.141 A 
ATOM     25  C   UNL     1      -3.546  -0.339  24.551  0.00  0.00    +0.022 A 
ATOM     26  C   UNL     1      -4.343  -0.532  24.454  0.00  0.00    +0.001 A 
ATOM     27  C   UNL     1      -4.924   0.041  24.577  0.00  0.00    +0.002 A 
ATOM     28  C   UNL     1      -4.709   0.807  24.797  0.00  0.00    +0.019 A 
ATOM     29  C   UNL     1      -3.912   1.000  24.895  0.00  0.00    +0.100 A 
ATOM     30  N   UNL     1      -3.698   1.765  25.114  0.00  0.00    -0.242 NA
ATOM     31  C   UNL     1      -4.278   2.337  25.237  0.00  0.00    +0.099 A 
ATOM     32  C   UNL     1      -5.075   2.144  25.140  0.00  0.00    +0.021 A 
ATOM     33  C   UNL     1      -5.290   1.379  24.920  0.00  0.00    +0.003 A 
ENDBRANCH  21  24
ENDBRANCH  20  21
ENDBRANCH  16  20
TORSDOF 7
ENDMDL
MODEL 3
REMARK VINA RESULT:      -8.3      3.027      5.153
REMARK  Name = 
REMARK  7 active torsions:
REMARK  status: ('A' for Active; 'I' for Inactive)
REMARK    1  A    between atoms: C_2  and  C_4
REMARK    2  A    between atoms: C_7  and  N_8
REMARK    3  A    between atoms: C_9  and  O_11
REMARK    4  A    between atoms: O_11  and  C_12
REMARK    5  A    between atoms: C_16  and  N_20
REMARK    6  A    between atoms: N_20  and  S_21
REMARK    7  A    between atoms: S_21  and  C_24
REMARK                            x       y       z     vdW  Elec       q    Type
REMARK                         _______ _______ _______ _____ _____    ______ ____
ROOT
ATOM     12  C   UNL     1      -0.204  -0.081  24.565  0.00  0.00    +0.229 C 
ATOM     13  C   UNL     1       0.030   0.250  23.847  0.00  0.00    +0.188 C 
ATOM     14  O   UNL     1       0.056   1.068  23.938  0.00  0.00    -0.348 OA
ATOM     15  C   UNL     1      -0.163   1.245  24.715  0.00  0.00    +0.166 C 
ATOM     16  C   UNL     1      -0.282   1.860  25.251  0.00  0.00    +0.157 C 
ATOM     17  C   UNL     1      -0.517   1.531  25.969  0.00  0.00    +0.164 C 
ATOM     18  O   UNL     1      -0.543   0.711  25.877  0.00  0.00    -0.348 OA
ATOM     19  C   UNL     1      -0.324   0.535  25.102  0.00  0.00    +0.186 C 
ENDROOT
BRANCH  12  11
ATOM     11  O   UNL     1      -0.303  -0.885  24.721  0.00  0.00    -0.432 OA
BRANCH  11   9
ATOM      8  N   UNL     1      -1.602  -1.427  24.967  0.00  0.00    -0.142 NA
ATOM      9  C   UNL     1      -0.976  -1.277  24.450  0.00  0.00    +0.425 C 
ATOM     10  O   UNL     1      -1.024  -1.521  23.664  0.00  0.00    -0.224 OA
BRANCH   8   7
ATOM      4  C   UNL     1      -3.622  -2.606  24.157  0.00  0.00    -0.022 A 
ATOM      5  C   UNL     1      -3.642  -1.790  24.277  0.00  0.00    -0.003 A 
ATOM      6  C   UNL     1      -2.968  -1.397  24.548  0.00  0.00    +0.016 A 
ATOM      7  C   UNL     1      -2.275  -1.820  24.697  0.00  0.00    +0.077 A 
ATOM     34  C   UNL     1      -2.257  -2.636  24.576  0.00  0.00    +0.016 A 
ATOM     35  C   UNL     1      -2.930  -3.029  24.306  0.00  0.00    -0.003 A 
BRANCH   4   2
ATOM      1  C   UNL     1      -4.933  -2.568  23.589  0.00  0.00    +0.005 C 
ATOM      2  C   UNL     1      -4.295  -2.999  23.887  0.00  0.00    +0.022 C 
ATOM      3  C   UNL     1      -4.331  -3.823  23.914  0.00  0.00    +0.005 C 
ENDBRANCH   4   2
ENDBRANCH   8   7
ENDBRANCH  11   9
ENDBRANCH  12  11
BRANCH  16  20
ATOM     20  N   UNL     1      -0.184   2.665  25.095  0.00  0.00    -0.074 NA
BRANCH  20  21
ATOM     21  S   UNL     1      -0.797   3.193  25.254  0.00  0.00    +0.078 S 
ATOM     22  O   UNL     1      -1.090   3.082  24.491  0.00  0.00    -0.152 OA
ATOM     23  O   UNL     1      -0.505   3.305  26.017  0.00  0.00    -0.152 OA
BRANCH  21  24
ATOM     24  C   UNL     1      -1.411   3.721  25.412  0.00  0.00    +0.141 A 
ATOM     25  C   UNL     1      -2.092   3.458  25.796  0.00  0.00    +0.022 A 
ATOM     26  C   UNL     1      -2.707   3.987  25.955  0.00  0.00    +0.001 A 
ATOM     27  C   UNL     1      -2.638   4.778  25.729  0.00  0.00    +0.002 A 
ATOM     28  C   UNL     1      -1.957   5.041  25.345  0.00  0.00    +0.019 A 
ATOM     29  C   UNL     1      -1.342   4.512  25.186  0.00  0.00    +0.100 A 
ATOM     30  N   UNL     1      -0.661   4.774  24.803  0.00  0.00    -0.242 NA
ATOM     31  C   UNL     1      -0.593   5.564  24.577  0.00  0.00    +0.099 A 
ATOM     32  C   UNL     1      -1.208   6.093  24.736  0.00  0.00    +0.021 A 
ATOM     33  C   UNL     1      -1.889   5.831  25.119  0.00  0.00    +0.003 A 
ENDBRANCH  21  24
ENDBRANCH  20  21
ENDBRANCH  16  20
TORSDOF 7
ENDMDL
MODEL 4
REMARK VINA RESULT:      -8.3      4.049      5.731
REMARK  Name = 
REMARK  7 active torsions:
REMARK  status: ('A' for Active; 'I' for Inactive)
REMARK    1  A    between atoms: C_2  and  C_4
REMARK    2  A    between atoms: C_7  and  N_8
REMARK    3  A    between atoms: C_9  and  O_11
REMARK    4  A    between atoms: O_11  and  C_12
REMARK    5  A    between atoms: C_16  and  N_20
REMARK    6  A    between atoms: N_20  and  S_21
REMARK    7  A    between atoms: S_21  and  C_24
REMARK                            x       y       z     vdW  Elec       q    Type
REMARK                         _______ _______ _______ _____ _____    ______ ____
ROOT
ATOM     12  C   UNL     1      -5.004   1.798  25.038  0.00  0.00    +0.229 C 
ATOM     13  C   UNL     1      -5.087   1.987  25.837  0.00  0.00    +0.188 C 
ATOM     14  O   UNL     1      -4.693   2.698  25.974  0.00  0.00    -0.348 OA
ATOM     15  C   UNL     1      -4.365   2.949  25.259  0.00  0.00    +0.166 C 
ATOM     16  C   UNL     1      -3.919   3.545  24.901  0.00  0.00    +0.157 C 
ATOM     17  C   UNL     1      -3.836   3.356  24.103  0.00  0.00    +0.164 C 
ATOM     18  O   UNL     1      -4.230   2.645  23.967  0.00  0.00    -0.348 OA
ATOM     19  C   UNL     1      -4.557   2.393  24.680  0.00  0.00    +0.186 C 
ENDROOT
BRANCH  12  11
ATOM     11  O   UNL     1      -5.312   1.132  24.662  0.00  0.00    -0.432 OA
BRANCH  11   9
ATOM      8  N   UNL     1      -4.510   0.080  24.121  0.00  0.00    -0.142 NA
ATOM      9  C   UNL     1      -4.939   0.401  24.749  0.00  0.00    +0.425 C 
ATOM     10  O   UNL     1      -4.996  -0.010  25.462  0.00  0.00    -0.224 OA
BRANCH   8   7
ATOM      4  C   UNL     1      -3.393  -2.114  24.379  0.00  0.00    -0.022 A 
ATOM      5  C   UNL     1      -4.111  -2.062  23.977  0.00  0.00    -0.003 A 
ATOM      6  C   UNL     1      -4.484  -1.331  23.890  0.00  0.00    +0.016 A 
ATOM      7  C   UNL     1      -4.137  -0.651  24.207  0.00  0.00    +0.077 A 
ATOM     34  C   UNL     1      -3.419  -0.704  24.609  0.00  0.00    +0.016 A 
ATOM     35  C   UNL     1      -3.047  -1.436  24.695  0.00  0.00    -0.003 A 
BRANCH   4   2
ATOM      1  C   UNL     1      -3.470  -3.524  24.599  0.00  0.00    +0.005 C 
ATOM      2  C   UNL     1      -3.021  -2.845  24.465  0.00  0.00    +0.022 C 
ATOM      3  C   UNL     1      -2.198  -2.898  24.417  0.00  0.00    +0.005 C 
ENDBRANCH   4   2
ENDBRANCH   8   7
ENDBRANCH  11   9
ENDBRANCH  12  11
BRANCH  16  20
ATOM     20  N   UNL     1      -3.611   4.211  25.278  0.00  0.00    -0.074 NA
BRANCH  20  21
ATOM     21  S   UNL     1      -2.808   4.389  25.208  0.00  0.00    +0.078 S 
ATOM     22  O   UNL     1      -2.860   4.302  24.389  0.00  0.00    -0.152 OA
ATOM     23  O   UNL     1      -2.757   4.477  26.027  0.00  0.00    -0.152 OA
BRANCH  21  24
ATOM     24  C   UNL     1      -2.006   4.567  25.139  0.00  0.00    +0.141 A 
ATOM     25  C   UNL     1      -1.771   5.293  24.825  0.00  0.00    +0.022 A 
ATOM     26  C   UNL     1      -0.967   5.472  24.755  0.00  0.00    +0.001 A 
ATOM     27  C   UNL     1      -0.401   4.923  24.999  0.00  0.00    +0.002 A 
ATOM     28  C   UNL     1      -0.636   4.197  25.313  0.00  0.00    +0.019 A 
ATOM     29  C   UNL     1      -1.439   4.019  25.383  0.00  0.00    +0.100 A 
ATOM     30  N   UNL     1      -1.675   3.294  25.696  0.00  0.00    -0.242 NA
ATOM     31  C   UNL     1      -1.109   2.746  25.940  0.00  0.00    +0.099 A 
ATOM     32  C   UNL     1      -0.305   2.925  25.870  0.00  0.00    +0.021 A 
ATOM     33  C   UNL     1      -0.070   3.650  25.557  0.00  0.00    +0.003 A 
ENDBRANCH  21  24
ENDBRANCH  20  21
ENDBRANCH  16  20
TORSDOF 7
ENDMDL
MODEL 5
REMARK VINA RESULT:      -7.4     17.081     17.847
REMARK  Name = 
REMARK  7 active torsions:
REMARK  status: ('A' for Active; 'I' for Inactive)
REMARK    1  A    between atoms: C_2  and  C_4
REMARK    2  A    between atoms: C_7  and  N_8
REMARK    3  A    between atoms: C_9  and  O_11
REMARK    4  A    between atoms: O_11  and  C_12
REMARK    5  A    between atoms: C_16  and  N_20
REMARK    6  A    between atoms: N_20  and  S_21
REMARK    7  A    between atoms: S_21  and  C_24
REMARK                            x       y       z     vdW  Elec       q    Type
REMARK                         _______ _______ _______ _____ _____    ______ ____
ROOT
ATOM     12  C   UNL     1      -3.897  -9.689  10.079  0.00  0.00    +0.229 C 
ATOM     13  C   UNL     1      -3.604  -8.932   9.932  0.00  0.00    +0.188 C 
ATOM     14  O   UNL     1      -4.206  -8.487   9.587  0.00  0.00    -0.348 OA
ATOM     15  C   UNL     1      -4.872  -8.969   9.521  0.00  0.00    +0.166 C 
ATOM     16  C   UNL     1      -5.657  -8.993   9.266  0.00  0.00    +0.157 C 
ATOM     17  C   UNL     1      -5.950  -9.749   9.413  0.00  0.00    +0.164 C 
ATOM     18  O   UNL     1      -5.347 -10.194   9.758  0.00  0.00    -0.348 OA
ATOM     19  C   UNL     1      -4.681  -9.712   9.825  0.00  0.00    +0.186 C 
ENDROOT
BRANCH  12  11
ATOM     11  O   UNL     1      -3.479 -10.312  10.421  0.00  0.00    -0.432 OA
BRANCH  11   9
ATOM      8  N   UNL     1      -3.376 -10.772  11.770  0.00  0.00    -0.142 NA
ATOM      9  C   UNL     1      -3.168 -10.233  11.180  0.00  0.00    +0.425 C 
ATOM     10  O   UNL     1      -2.648  -9.616  11.351  0.00  0.00    -0.224 OA
BRANCH   8   7
ATOM      4  C   UNL     1      -2.441 -10.534  14.050  0.00  0.00    -0.022 A 
ATOM      5  C   UNL     1      -3.252 -10.446  13.926  0.00  0.00    -0.003 A 
ATOM      6  C   UNL     1      -3.564 -10.525  13.166  0.00  0.00    +0.016 A 
ATOM      7  C   UNL     1      -3.064 -10.693  12.530  0.00  0.00    +0.077 A 
ATOM     34  C   UNL     1      -2.254 -10.781  12.655  0.00  0.00    +0.016 A 
ATOM     35  C   UNL     1      -1.942 -10.701  13.415  0.00  0.00    -0.003 A 
BRANCH   4   2
ATOM      1  C   UNL     1      -2.620 -10.532  15.467  0.00  0.00    +0.005 C 
ATOM      2  C   UNL     1      -2.129 -10.455  14.809  0.00  0.00    +0.022 C 
ATOM      3  C   UNL     1      -1.325 -10.298  14.911  0.00  0.00    +0.005 C 
ENDBRANCH   4   2
ENDBRANCH   8   7
ENDBRANCH  11   9
ENDBRANCH  12  11
BRANCH  16  20
ATOM     20  N   UNL     1      -6.074  -8.368   8.924  0.00  0.00    -0.074 NA
BRANCH  20  21
ATOM     21  S   UNL     1      -6.896  -8.336   8.992  0.00  0.00    +0.078 S 
ATOM     22  O   UNL     1      -6.821  -7.882   9.678  0.00  0.00    -0.152 OA
ATOM     23  O   UNL     1      -6.971  -8.789   8.307  0.00  0.00    -0.152 OA
BRANCH  21  24
ATOM     24  C   UNL     1      -7.717  -8.303   9.061  0.00  0.00    +0.141 A 
ATOM     25  C   UNL     1      -8.126  -8.925   9.417  0.00  0.00    +0.022 A 
ATOM     26  C   UNL     1      -8.949  -8.892   9.485  0.00  0.00    +0.001 A 
ATOM     27  C   UNL     1      -9.360  -8.237   9.197  0.00  0.00    +0.002 A 
ATOM     28  C   UNL     1      -8.951  -7.616   8.840  0.00  0.00    +0.019 A 
ATOM     29  C   UNL     1      -8.129  -7.648   8.772  0.00  0.00    +0.100 A 
ATOM     30  N   UNL     1      -7.720  -7.027   8.416  0.00  0.00    -0.242 NA
ATOM     31  C   UNL     1      -8.132  -6.374   8.128  0.00  0.00    +0.099 A 
ATOM     32  C   UNL     1      -8.954  -6.341   8.196  0.00  0.00    +0.021 A 
ATOM     33  C   UNL     1      -9.363  -6.962   8.552  0.00  0.00    +0.003 A 
ENDBRANCH  21  24
ENDBRANCH  20  21
ENDBRANCH  16  20
TORSDOF 7
ENDMDL
MODEL 6
REMARK VINA RESULT:      -6.7     15.817     17.540
REMARK  Name = 
REMARK  7 active torsions:
REMARK  status: ('A' for Active; 'I' for Inactive)
REMARK    1  A    between atoms: C_2  and  C_4
REMARK    2  A    between atoms: C_7  and  N_8
REMARK    3  A    between atoms: C_9  and  O_11
REMARK    4  A    between atoms: O_11  and  C_12
REMARK    5  A    between atoms: C_16  and  N_20
REMARK    6  A    between atoms: N_20  and  S_21
REMARK    7  A    between atoms: S_21  and  C_24
REMARK                            x       y       z     vdW  Elec       q    Type
REMARK                         _______ _______ _______ _____ _____    ______ ____
ROOT
ATOM     12  C   UNL     1      -6.574 -10.295  14.579  0.00  0.00    +0.229 C 
ATOM     13  C   UNL     1      -7.283 -10.332  14.158  0.00  0.00    +0.188 C 
ATOM     14  O   UNL     1      -7.103 -10.305  13.354  0.00  0.00    -0.348 OA
ATOM     15  C   UNL     1      -6.283 -10.251  13.278  0.00  0.00    +0.166 C 
ATOM     16  C   UNL     1      -5.665 -10.201  12.733  0.00  0.00    +0.157 C 
ATOM     17  C   UNL     1      -4.957 -10.164  13.154  0.00  0.00    +0.164 C 
ATOM     18  O   UNL     1      -5.137 -10.191  13.959  0.00  0.00    -0.348 OA
ATOM     19  C   UNL     1      -5.956 -10.245  14.035  0.00  0.00    +0.186 C 
ENDROOT
BRANCH  12  11
ATOM     11  O   UNL     1      -6.497 -10.306  15.400  0.00  0.00    -0.432 OA
BRANCH  11   9
ATOM      8  N   UNL     1      -7.137 -10.040  16.650  0.00  0.00    -0.142 NA
ATOM      9  C   UNL     1      -7.170 -10.327  15.877  0.00  0.00    +0.425 C 
ATOM     10  O   UNL     1      -7.876 -10.636  15.582  0.00  0.00    -0.224 OA
BRANCH   8   7
ATOM      4  C   UNL     1      -9.155 -10.104  18.082  0.00  0.00    -0.022 A 
ATOM      5  C   UNL     1      -8.950  -9.407  17.691  0.00  0.00    -0.003 A 
ATOM      6  C   UNL     1      -8.277  -9.386  17.214  0.00  0.00    +0.016 A 
ATOM      7  C   UNL     1      -7.810 -10.061  17.128  0.00  0.00    +0.077 A 
ATOM     34  C   UNL     1      -8.017 -10.757  17.519  0.00  0.00    +0.016 A 
ATOM     35  C   UNL     1      -8.689 -10.779  17.996  0.00  0.00    -0.003 A 
BRANCH   4   2
ATOM      1  C   UNL     1      -9.776 -10.403  19.334  0.00  0.00    +0.005 C 
ATOM      2  C   UNL     1      -9.828 -10.126  18.559  0.00  0.00    +0.022 C 
ATOM      3  C   UNL     1     -10.554  -9.871  18.261  0.00  0.00    +0.005 C 
ENDBRANCH   4   2
ENDBRANCH   8   7
ENDBRANCH  11   9
ENDBRANCH  12  11
BRANCH  16  20
ATOM     20  N   UNL     1      -5.742 -10.190  11.912  0.00  0.00    -0.074 NA
BRANCH  20  21
ATOM     21  S   UNL     1      -5.103  -9.965  11.440  0.00  0.00    +0.078 S 
ATOM     22  O   UNL     1      -4.916 -10.759  11.316  0.00  0.00    -0.152 OA
ATOM     23  O   UNL     1      -5.291  -9.172  11.565  0.00  0.00    -0.152 OA
BRANCH  21  24
ATOM     24  C   UNL     1      -4.465  -9.741  10.969  0.00  0.00    +0.141 A 
ATOM     25  C   UNL     1      -3.712  -9.673  11.301  0.00  0.00    +0.022 A 
ATOM     26  C   UNL     1      -3.072  -9.448  10.829  0.00  0.00    +0.001 A 
ATOM     27  C   UNL     1      -3.187  -9.292  10.027  0.00  0.00    +0.002 A 
ATOM     28  C   UNL     1      -3.940  -9.360   9.695  0.00  0.00    +0.019 A 
ATOM     29  C   UNL     1      -4.579  -9.585  10.167  0.00  0.00    +0.100 A 
ATOM     30  N   UNL     1      -5.331  -9.653   9.836  0.00  0.00    -0.242 NA
ATOM     31  C   UNL     1      -5.445  -9.497   9.035  0.00  0.00    +0.099 A 
ATOM     32  C   UNL     1      -4.806  -9.272   8.563  0.00  0.00    +0.021 A 
ATOM     33  C   UNL     1      -4.054  -9.204   8.894  0.00  0.00    +0.003 A 
ENDBRANCH  21  24
ENDBRANCH  20  21
ENDBRANCH  16  20
TORSDOF 7
ENDMDL
