MODEL 1
REMARK VINA RESULT:     -10.2      0.000      0.000
REMARK  Name = 
REMARK  4 active torsions:
REMARK  status: ('A' for Active; 'I' for Inactive)
REMARK    1  A    between atoms: C_2  and  N_4
REMARK    2  A    between atoms: C_8  and  C_9
REMARK    3  A    between atoms: C_11  and  C_14
REMARK    4  A    between atoms: C_17  and  C_20
REMARK                            x       y       z     vdW  Elec       q    Type
REMARK                         _______ _______ _______ _____ _____    ______ ____
ROOT
ATOM      9  C   UNL     1      -2.918   2.938  24.851  0.00  0.00    +0.251 A 
ATOM     10  N   UNL     1      -3.039   2.159  25.098  0.00  0.00    -0.190 NA
ATOM     11  C   UNL     1      -3.123   1.689  24.427  0.00  0.00    +0.205 A 
ATOM     12  N   UNL     1      -3.054   2.175  23.764  0.00  0.00    -0.056 NA
ATOM     13  O   UNL     1      -2.928   2.946  24.026  0.00  0.00    -0.336 OA
ENDROOT
BRANCH  11  14
ATOM     14  C   UNL     1      -3.254   0.874  24.419  0.00  0.00    +0.058 A 
ATOM     15  C   UNL     1      -4.006   0.575  24.580  0.00  0.00    +0.006 A 
ATOM     16  C   UNL     1      -4.136  -0.240  24.573  0.00  0.00    +0.019 A 
ATOM     17  C   UNL     1      -3.515  -0.755  24.403  0.00  0.00    +0.084 A 
ATOM     18  N   UNL     1      -2.763  -0.457  24.241  0.00  0.00    -0.244 NA
ATOM     19  C   UNL     1      -2.632   0.358  24.249  0.00  0.00    +0.102 A 
BRANCH  17  20
ATOM     20  C   UNL     1      -3.645  -1.570  24.395  0.00  0.00    +0.056 A 
ATOM     21  C   UNL     1      -3.303  -2.048  24.974  0.00  0.00    +0.104 A 
ATOM     22  N   UNL     1      -3.433  -2.863  24.966  0.00  0.00    -0.222 NA
ATOM     23  C   UNL     1      -3.905  -3.199  24.380  0.00  0.00    +0.199 A 
ATOM     24  N   UNL     1      -4.247  -2.722  23.800  0.00  0.00    -0.222 NA
ATOM     25  C   UNL     1      -4.117  -1.907  23.808  0.00  0.00    +0.104 A 
ENDBRANCH  17  20
ENDBRANCH  11  14
BRANCH   9   8
ATOM      4  N   UNL     1      -2.083   3.921  25.552  0.00  0.00    -0.268 NA
ATOM      5  C   UNL     1      -2.228   4.563  26.050  0.00  0.00    +0.072 C 
ATOM      6  C   UNL     1      -3.045   4.629  26.147  0.00  0.00    +0.019 C 
ATOM      7  C   UNL     1      -3.403   4.028  25.710  0.00  0.00    +0.027 C 
ATOM      8  C   UNL     1      -2.808   3.591  25.342  0.00  0.00    +0.138 C 
BRANCH   4   2
ATOM      1  C   UNL     1      -1.013   3.939  24.604  0.00  0.00    +0.017 C 
ATOM      2  C   UNL     1      -1.340   3.657  25.308  0.00  0.00    +0.058 C 
ATOM      3  C   UNL     1      -0.925   3.112  25.766  0.00  0.00    +0.017 C 
ENDBRANCH   4   2
ENDBRANCH   9   8
TORSDOF 4
ENDMDL
MODEL 2
REMARK VINA RESULT:      -9.7      1.190      5.321
REMARK  Name = 
REMARK  4 active torsions:
REMARK  status: ('A' for Active; 'I' for Inactive)
REMARK    1  A    between atoms: C_2  and  N_4
REMARK    2  A    between atoms: C_8  and  C_9
REMARK    3  A    between atoms: C_11  and  C_14
REMARK    4  A    between atoms: C_17  and  C_20
REMARK                            x       y       z     vdW  Elec       q    Type
REMARK                         _______ _______ _______ _____ _____    ______ ____
ROOT
ATOM      9  C   UNL     1      -3.854  -0.417  24.643  0.00  0.00    +0.251 A 
ATOM     10  N   UNL     1      -3.280   0.152  24.476  0.00  0.00    -0.190 NA
ATOM     11  C   UNL     1      -3.458   0.829  24.912  0.00  0.00    +0.205 A 
ATOM     12  N   UNL     1      -4.140   0.678  25.350  0.00  0.00    -0.056 NA
ATOM     13  O   UNL     1      -4.385  -0.091  25.184  0.00  0.00    -0.336 OA
ENDROOT
BRANCH  11  14
ATOM     14  C   UNL     1      -3.028   1.533  24.912  0.00  0.00    +0.058 A 
ATOM     15  C   UNL     1      -3.297   2.180  24.476  0.00  0.00    +0.006 A 
ATOM     16  C   UNL     1      -2.866   2.884  24.475  0.00  0.00    +0.019 A 
ATOM     17  C   UNL     1      -2.168   2.941  24.910  0.00  0.00    +0.084 A 
ATOM     18  N   UNL     1      -1.899   2.295  25.346  0.00  0.00    -0.244 NA
ATOM     19  C   UNL     1      -2.329   1.590  25.346  0.00  0.00    +0.102 A 
BRANCH  17  20
ATOM     20  C   UNL     1      -1.738   3.646  24.909  0.00  0.00    +0.056 A 
ATOM     21  C   UNL     1      -0.969   3.659  24.609  0.00  0.00    +0.104 A 
ATOM     22  N   UNL     1      -0.539   4.363  24.608  0.00  0.00    -0.222 NA
ATOM     23  C   UNL     1      -0.877   5.054  24.907  0.00  0.00    +0.199 A 
ATOM     24  N   UNL     1      -1.646   5.040  25.207  0.00  0.00    -0.222 NA
ATOM     25  C   UNL     1      -2.076   4.336  25.208  0.00  0.00    +0.104 A 
ENDBRANCH  17  20
ENDBRANCH  11  14
BRANCH   9   8
ATOM      4  N   UNL     1      -3.483  -1.838  24.605  0.00  0.00    -0.268 NA
ATOM      5  C   UNL     1      -3.679  -2.481  24.126  0.00  0.00    +0.072 C 
ATOM      6  C   UNL     1      -4.208  -2.216  23.550  0.00  0.00    +0.019 C 
ATOM      7  C   UNL     1      -4.338  -1.411  23.674  0.00  0.00    +0.027 C 
ATOM      8  C   UNL     1      -3.889  -1.178  24.326  0.00  0.00    +0.138 C 
BRANCH   4   2
ATOM      1  C   UNL     1      -3.270  -1.917  26.016  0.00  0.00    +0.017 C 
ATOM      2  C   UNL     1      -2.969  -1.854  25.250  0.00  0.00    +0.058 C 
ATOM      3  C   UNL     1      -2.154  -1.807  25.130  0.00  0.00    +0.017 C 
ENDBRANCH   4   2
ENDBRANCH   9   8
TORSDOF 4
ENDMDL
MODEL 3
REMARK VINA RESULT:      -8.2     17.682     19.602
REMARK  Name = 
REMARK  4 active torsions:
REMARK  status: ('A' for Active; 'I' for Inactive)
REMARK    1  A    between atoms: C_2  and  N_4
REMARK    2  A    between atoms: C_8  and  C_9
REMARK    3  A    between atoms: C_11  and  C_14
REMARK    4  A    between atoms: C_17  and  C_20
REMARK                            x       y       z     vdW  Elec       q    Type
REMARK                         _______ _______ _______ _____ _____    ______ ____
ROOT
ATOM      9  C   UNL     1      15.297   6.828  19.550  0.00  0.00    +0.251 A 
ATOM     10  N   UNL     1      14.924   7.182  18.904  0.00  0.00    -0.190 NA
ATOM     11  C   UNL     1      14.112   7.178  19.046  0.00  0.00    +0.205 A 
ATOM     12  N   UNL     1      13.982   6.824  19.778  0.00  0.00    -0.056 NA
ATOM     13  O   UNL     1      14.714   6.607  20.090  0.00  0.00    -0.336 OA
ENDROOT
BRANCH  11  14
ATOM     14  C   UNL     1      13.530   7.478  18.542  0.00  0.00    +0.058 A 
ATOM     15  C   UNL     1      13.628   8.220  18.195  0.00  0.00    +0.006 A 
ATOM     16  C   UNL     1      13.047   8.519  17.691  0.00  0.00    +0.019 A 
ATOM     17  C   UNL     1      12.368   8.077  17.536  0.00  0.00    +0.084 A 
ATOM     18  N   UNL     1      12.270   7.335  17.883  0.00  0.00    -0.244 NA
ATOM     19  C   UNL     1      12.851   7.036  18.387  0.00  0.00    +0.102 A 
BRANCH  17  20
ATOM     20  C   UNL     1      11.787   8.376  17.032  0.00  0.00    +0.056 A 
ATOM     21  C   UNL     1      12.004   8.794  16.354  0.00  0.00    +0.104 A 
ATOM     22  N   UNL     1      11.422   9.093  15.851  0.00  0.00    -0.222 NA
ATOM     23  C   UNL     1      10.625   8.975  16.026  0.00  0.00    +0.199 A 
ATOM     24  N   UNL     1      10.408   8.558  16.703  0.00  0.00    -0.222 NA
ATOM     25  C   UNL     1      10.989   8.258  17.207  0.00  0.00    +0.104 A 
ENDBRANCH  17  20
ENDBRANCH  11  14
BRANCH   9   8
ATOM      4  N   UNL     1      16.606   7.145  20.137  0.00  0.00    -0.268 NA
ATOM      5  C   UNL     1      17.371   6.851  20.052  0.00  0.00    +0.072 C 
ATOM      6  C   UNL     1      17.348   6.238  19.500  0.00  0.00    +0.019 C 
ATOM      7  C   UNL     1      16.568   6.155  19.244  0.00  0.00    +0.027 C 
ATOM      8  C   UNL     1      16.109   6.716  19.639  0.00  0.00    +0.138 C 
BRANCH   4   2
ATOM      1  C   UNL     1      16.430   8.544  20.375  0.00  0.00    +0.017 C 
ATOM      2  C   UNL     1      16.377   7.762  20.635  0.00  0.00    +0.058 C 
ATOM      3  C   UNL     1      16.095   7.599  21.393  0.00  0.00    +0.017 C 
ENDBRANCH   4   2
ENDBRANCH   9   8
TORSDOF 4
ENDMDL
MODEL 4
REMARK VINA RESULT:      -7.9     16.591     18.983
REMARK  Name = 
REMARK  4 active torsions:
REMARK  status: ('A' for Active; 'I' for Inactive)
REMARK    1  A    between atoms: C_2  and  N_4
REMARK    2  A    between atoms: C_8  and  C_9
REMARK    3  A    between atoms: C_11  and  C_14
REMARK    4  A    between atoms: C_17  and  C_20
REMARK                            x       y       z     vdW  Elec       q    Type
REMARK                         _______ _______ _______ _____ _____    ______ ____
ROOT
ATOM      9  C   UNL     1      15.561   7.014  19.485  0.00  0.00    +0.251 A 
ATOM     10  N   UNL     1      14.903   6.784  19.927  0.00  0.00    -0.190 NA
ATOM     11  C   UNL     1      14.386   7.425  19.967  0.00  0.00    +0.205 A 
ATOM     12  N   UNL     1      14.724   8.051  19.550  0.00  0.00    -0.056 NA
ATOM     13  O   UNL     1      15.449   7.797  19.252  0.00  0.00    -0.336 OA
ENDROOT
BRANCH  11  14
ATOM     14  C   UNL     1      13.658   7.438  20.356  0.00  0.00    +0.058 A 
ATOM     15  C   UNL     1      13.616   7.680  21.143  0.00  0.00    +0.006 A 
ATOM     16  C   UNL     1      12.889   7.693  21.532  0.00  0.00    +0.019 A 
ATOM     17  C   UNL     1      12.204   7.463  21.134  0.00  0.00    +0.084 A 
ATOM     18  N   UNL     1      12.246   7.221  20.347  0.00  0.00    -0.244 NA
ATOM     19  C   UNL     1      12.973   7.208  19.958  0.00  0.00    +0.102 A 
BRANCH  17  20
ATOM     20  C   UNL     1      11.476   7.476  21.523  0.00  0.00    +0.056 A 
ATOM     21  C   UNL     1      10.986   6.813  21.502  0.00  0.00    +0.104 A 
ATOM     22  N   UNL     1      10.258   6.825  21.892  0.00  0.00    -0.222 NA
ATOM     23  C   UNL     1      10.021   7.501  22.301  0.00  0.00    +0.199 A 
ATOM     24  N   UNL     1      10.511   8.164  22.322  0.00  0.00    -0.222 NA
ATOM     25  C   UNL     1      11.239   8.152  21.933  0.00  0.00    +0.104 A 
ENDBRANCH  17  20
ENDBRANCH  11  14
BRANCH   9   8
ATOM      4  N   UNL     1      16.897   6.469  19.764  0.00  0.00    -0.268 NA
ATOM      5  C   UNL     1      17.405   5.944  19.382  0.00  0.00    +0.072 C 
ATOM      6  C   UNL     1      17.036   5.693  18.687  0.00  0.00    +0.019 C 
ATOM      7  C   UNL     1      16.301   6.063  18.641  0.00  0.00    +0.027 C 
ATOM      8  C   UNL     1      16.215   6.543  19.308  0.00  0.00    +0.138 C 
BRANCH   4   2
ATOM      1  C   UNL     1      17.343   7.623  20.480  0.00  0.00    +0.017 C 
ATOM      2  C   UNL     1      17.045   6.853  20.479  0.00  0.00    +0.058 C 
ATOM      3  C   UNL     1      16.896   6.468  21.193  0.00  0.00    +0.017 C 
ENDBRANCH   4   2
ENDBRANCH   9   8
TORSDOF 4
ENDMDL
