REMARK  Name = 
REMARK  9 active torsions:
REMARK  status: ('A' for Active; 'I' for Inactive)
REMARK    1  A    between atoms: C_2  and  C_3
REMARK    2  A    between atoms: N_5  and  S_17
REMARK    3  A    between atoms: C_8  and  C_9
REMARK    4  A    between atoms: C_9  and  C_10
REMARK    5  A    between atoms: N_12  and  C_13
REMARK    6  A    between atoms: C_13  and  C_14
REMARK    7  A    between atoms: C_14  and  S_15
REMARK    8  A    between atoms: S_17  and  C_20
REMARK    9  A    between atoms: C_23  and  O_24
REMARK                            x       y       z     vdW  Elec       q    Type
REMARK                         _______ _______ _______ _____ _____    ______ ____
ROOT
ATOM      3  C   UNL     1      -0.715  -5.362   0.000  0.00  0.00    +0.018 C 
ATOM      4  C   UNL     1      -1.429  -4.950   0.000  0.00  0.00    +0.096 C 
ATOM      5  N   UNL     1      -1.429  -4.125   0.000  0.00  0.00    -0.156 NA
ATOM      6  C   UNL     1      -0.715  -3.712   0.000  0.00  0.00    +0.096 C 
ATOM      7  C   UNL     1       0.000  -4.125   0.000  0.00  0.00    +0.020 C 
ATOM      8  C   UNL     1       0.000  -4.950   0.000  0.00  0.00    +0.012 C 
ENDROOT
BRANCH   5  17
ATOM     17  S   UNL     1      -2.143  -3.712   0.000  0.00  0.00    +0.063 S 
ATOM     18  O   UNL     1      -1.731  -2.998   0.000  0.00  0.00    -0.153 OA
ATOM     19  O   UNL     1      -2.556  -4.427   0.000  0.00  0.00    -0.153 OA
BRANCH  17  20
ATOM     20  C   UNL     1      -2.858  -3.300   0.000  0.00  0.00    +0.122 A 
ATOM     21  C   UNL     1      -3.572  -3.712   0.000  0.00  0.00    +0.023 A 
ATOM     22  C   UNL     1      -4.287  -3.300   0.000  0.00  0.00    +0.038 A 
ATOM     23  C   UNL     1      -4.287  -2.475   0.000  0.00  0.00    +0.139 A 
ATOM     26  C   UNL     1      -3.572  -2.062   0.000  0.00  0.00    +0.038 A 
ATOM     27  C   UNL     1      -2.858  -2.475   0.000  0.00  0.00    +0.023 A 
BRANCH  23  24
ATOM     24  O   UNL     1      -5.001  -2.062   0.000  0.00  0.00    -0.471 OA
ATOM     25  C   UNL     1      -5.716  -2.475   0.000  0.00  0.00    +0.252 C 
ENDBRANCH  23  24
ENDBRANCH  17  20
ENDBRANCH   5  17
BRANCH   3   2
ATOM      1  C   UNL     1       0.000  -6.600   0.000  0.00  0.00    +0.000 C 
ATOM      2  C   UNL     1      -0.715  -6.188   0.000  0.00  0.00    +0.001 C 
ENDBRANCH   3   2
BRANCH   8   9
ATOM      9  C   UNL     1       0.715  -5.362   0.000  0.00  0.00    +0.087 C 
BRANCH   9  10
ATOM     10  C   UNL     1       1.429  -4.950   0.000  0.00  0.00    +0.241 C 
ATOM     11  O   UNL     1       1.429  -4.125   0.000  0.00  0.00    -0.273 OA
ATOM     12  N   UNL     1       2.143  -5.362   0.000  0.00  0.00    -0.204 NA
BRANCH  12  13
ATOM     13  C   UNL     1       2.858  -4.950   0.000  0.00  0.00    +0.127 C 
BRANCH  13  14
ATOM     14  C   UNL     1       3.572  -5.362   0.000  0.00  0.00    +0.081 C 
BRANCH  14  15
ATOM     15  S   UNL     1       4.287  -4.950   0.000  0.00  0.00    -0.137 S 
ATOM     16  C   UNL     1       5.001  -5.362   0.000  0.00  0.00    +0.069 C 
ENDBRANCH  14  15
ENDBRANCH  13  14
ENDBRANCH  12  13
ENDBRANCH   9  10
ENDBRANCH   8   9
TORSDOF 9
