MODEL 1
REMARK VINA RESULT:     -13.2      0.000      0.000
REMARK  Name = 
REMARK  8 active torsions:
REMARK  status: ('A' for Active; 'I' for Inactive)
REMARK    1  A    between atoms: C_2  and  N_3
REMARK    2  A    between atoms: C_4  and  O_6
REMARK    3  A    between atoms: O_6  and  C_7
REMARK    4  A    between atoms: C_12  and  C_13
REMARK    5  A    between atoms: C_13  and  C_14
REMARK    6  A    between atoms: N_16  and  C_17
REMARK    7  A    between atoms: C_17  and  C_18
REMARK    8  A    between atoms: C_30  and  C_32
REMARK                            x       y       z     vdW  Elec       q    Type
REMARK                         _______ _______ _______ _____ _____    ______ ____
ROOT
ATOM      7  C   UNL     1      -2.335   3.345  25.314  0.00  0.00    +0.173 C 
ATOM      8  C   UNL     1      -2.299   2.626  24.910  0.00  0.00    +0.044 C 
ATOM      9  C   UNL     1      -2.993   2.224  24.719  0.00  0.00    +0.004 C 
ATOM     10  C   UNL     1      -3.724   2.539  24.932  0.00  0.00    +0.003 C 
ATOM     11  C   UNL     1      -3.687   1.821  24.529  0.00  0.00    +0.000 C 
ATOM     12  C   UNL     1      -4.419   2.136  24.741  0.00  0.00    +0.040 C 
ATOM     25  C   UNL     1      -5.151   2.453  24.955  0.00  0.00    +0.152 C 
ATOM     26  O   UNL     1      -5.845   2.050  24.764  0.00  0.00    -0.223 OA
ATOM     27  C   UNL     1      -5.188   3.171  25.358  0.00  0.00    +0.033 C 
ATOM     28  C   UNL     1      -4.493   3.574  25.549  0.00  0.00    +0.003 C 
ATOM     29  C   UNL     1      -3.762   3.258  25.336  0.00  0.00    +0.006 C 
ATOM     30  C   UNL     1      -3.068   3.661  25.527  0.00  0.00    +0.068 C 
ATOM     31  C   UNL     1      -3.487   4.271  25.889  0.00  0.00    +0.006 C 
ENDROOT
BRANCH  30  32
ATOM     32  C   UNL     1      -2.714   4.319  25.877  0.00  0.00    +0.185 C 
ATOM     33  O   UNL     1      -3.153   4.808  26.374  0.00  0.00    -0.220 OA
ENDBRANCH  30  32
BRANCH   7   6
ATOM      6  O   UNL     1      -1.642   3.747  25.504  0.00  0.00    -0.437 OA
BRANCH   6   4
ATOM      3  N   UNL     1      -0.558   3.051  26.122  0.00  0.00    -0.169 NA
ATOM      4  C   UNL     1      -0.913   3.364  25.446  0.00  0.00    +0.421 C 
ATOM      5  O   UNL     1      -0.540   3.294  24.714  0.00  0.00    -0.225 OA
BRANCH   3   2
ATOM      1  C   UNL     1       0.552   2.402  26.747  0.00  0.00    +0.025 C 
ATOM      2  C   UNL     1       0.171   2.668  26.064  0.00  0.00    +0.119 C 
ENDBRANCH   3   2
ENDBRANCH   6   4
ENDBRANCH   7   6
BRANCH  12  13
ATOM     13  C   UNL     1      -4.382   1.418  24.338  0.00  0.00    +0.089 C 
BRANCH  13  14
ATOM     14  C   UNL     1      -4.588   0.718  24.722  0.00  0.00    +0.242 C 
ATOM     15  O   UNL     1      -5.113   0.736  25.359  0.00  0.00    -0.273 OA
ATOM     16  N   UNL     1      -4.270  -0.000  24.470  0.00  0.00    -0.201 NA
BRANCH  16  17
ATOM     17  C   UNL     1      -4.476  -0.701  24.853  0.00  0.00    +0.141 C 
BRANCH  17  18
ATOM     18  C   UNL     1      -4.105  -1.408  24.649  0.00  0.00    -0.000 A 
ATOM     19  C   UNL     1      -4.335  -1.814  23.969  0.00  0.00    -0.000 A 
ATOM     20  C   UNL     1      -3.964  -2.522  23.765  0.00  0.00    +0.029 A 
ATOM     21  C   UNL     1      -3.361  -2.824  24.241  0.00  0.00    +0.140 A 
ATOM     22  F   UNL     1      -2.989  -3.531  24.037  0.00  0.00    -0.204 F 
ATOM     23  C   UNL     1      -3.130  -2.418  24.921  0.00  0.00    +0.029 A 
ATOM     24  C   UNL     1      -3.502  -1.710  25.125  0.00  0.00    -0.000 A 
ENDBRANCH  17  18
ENDBRANCH  16  17
ENDBRANCH  13  14
ENDBRANCH  12  13
TORSDOF 8
ENDMDL
MODEL 2
REMARK VINA RESULT:     -12.7      1.598      3.221
REMARK  Name = 
REMARK  8 active torsions:
REMARK  status: ('A' for Active; 'I' for Inactive)
REMARK    1  A    between atoms: C_2  and  N_3
REMARK    2  A    between atoms: C_4  and  O_6
REMARK    3  A    between atoms: O_6  and  C_7
REMARK    4  A    between atoms: C_12  and  C_13
REMARK    5  A    between atoms: C_13  and  C_14
REMARK    6  A    between atoms: N_16  and  C_17
REMARK    7  A    between atoms: C_17  and  C_18
REMARK    8  A    between atoms: C_30  and  C_32
REMARK                            x       y       z     vdW  Elec       q    Type
REMARK                         _______ _______ _______ _____ _____    ______ ____
ROOT
ATOM      7  C   UNL     1      -2.684   3.435  24.919  0.00  0.00    +0.173 C 
ATOM      8  C   UNL     1      -2.882   2.703  24.596  0.00  0.00    +0.044 C 
ATOM      9  C   UNL     1      -2.294   2.141  24.455  0.00  0.00    +0.004 C 
ATOM     10  C   UNL     1      -1.508   2.312  24.637  0.00  0.00    +0.003 C 
ATOM     11  C   UNL     1      -1.706   1.579  24.314  0.00  0.00    +0.000 C 
ATOM     12  C   UNL     1      -0.920   1.750  24.496  0.00  0.00    +0.040 C 
ATOM     25  C   UNL     1      -0.134   1.921  24.679  0.00  0.00    +0.152 C 
ATOM     26  O   UNL     1       0.454   1.360  24.538  0.00  0.00    -0.223 OA
ATOM     27  C   UNL     1       0.065   2.653  25.002  0.00  0.00    +0.033 C 
ATOM     28  C   UNL     1      -0.524   3.215  25.144  0.00  0.00    +0.003 C 
ATOM     29  C   UNL     1      -1.309   3.044  24.961  0.00  0.00    +0.006 C 
ATOM     30  C   UNL     1      -1.897   3.606  25.102  0.00  0.00    +0.068 C 
ATOM     31  C   UNL     1      -1.350   4.146  25.399  0.00  0.00    +0.006 C 
ENDROOT
BRANCH  30  32
ATOM     32  C   UNL     1      -2.094   4.359  25.377  0.00  0.00    +0.185 C 
ATOM     33  O   UNL     1      -1.520   4.949  25.412  0.00  0.00    -0.220 OA
ENDBRANCH  30  32
BRANCH   7   6
ATOM      6  O   UNL     1      -3.271   3.996  25.060  0.00  0.00    -0.437 OA
BRANCH   6   4
ATOM      3  N   UNL     1      -4.563   3.620  25.536  0.00  0.00    -0.169 NA
ATOM      4  C   UNL     1      -4.061   3.813  24.911  0.00  0.00    +0.421 C 
ATOM      5  O   UNL     1      -4.349   3.823  24.138  0.00  0.00    -0.225 OA
BRANCH   3   2
ATOM      1  C   UNL     1      -5.794   3.020  25.948  0.00  0.00    +0.025 C 
ATOM      2  C   UNL     1      -5.355   3.437  25.387  0.00  0.00    +0.119 C 
ENDBRANCH   3   2
ENDBRANCH   6   4
ENDBRANCH   7   6
BRANCH  12  13
ATOM     13  C   UNL     1      -1.118   1.018  24.173  0.00  0.00    +0.089 C 
BRANCH  13  14
ATOM     14  C   UNL     1      -1.078   0.337  24.636  0.00  0.00    +0.242 C 
ATOM     15  O   UNL     1      -0.513   0.279  25.236  0.00  0.00    -0.273 OA
ATOM     16  N   UNL     1      -1.601  -0.287  24.501  0.00  0.00    -0.201 NA
BRANCH  16  17
ATOM     17  C   UNL     1      -1.560  -0.968  24.965  0.00  0.00    +0.141 C 
BRANCH  17  18
ATOM     18  C   UNL     1      -2.139  -1.550  24.895  0.00  0.00    -0.000 A 
ATOM     19  C   UNL     1      -2.005  -2.211  24.420  0.00  0.00    -0.000 A 
ATOM     20  C   UNL     1      -2.585  -2.794  24.349  0.00  0.00    +0.029 A 
ATOM     21  C   UNL     1      -3.299  -2.716  24.754  0.00  0.00    +0.140 A 
ATOM     22  F   UNL     1      -3.879  -3.298  24.684  0.00  0.00    -0.204 F 
ATOM     23  C   UNL     1      -3.434  -2.054  25.230  0.00  0.00    +0.029 A 
ATOM     24  C   UNL     1      -2.854  -1.472  25.300  0.00  0.00    -0.000 A 
ENDBRANCH  17  18
ENDBRANCH  16  17
ENDBRANCH  13  14
ENDBRANCH  12  13
TORSDOF 8
ENDMDL
MODEL 3
REMARK VINA RESULT:     -12.5      1.177      1.513
REMARK  Name = 
REMARK  8 active torsions:
REMARK  status: ('A' for Active; 'I' for Inactive)
REMARK    1  A    between atoms: C_2  and  N_3
REMARK    2  A    between atoms: C_4  and  O_6
REMARK    3  A    between atoms: O_6  and  C_7
REMARK    4  A    between atoms: C_12  and  C_13
REMARK    5  A    between atoms: C_13  and  C_14
REMARK    6  A    between atoms: N_16  and  C_17
REMARK    7  A    between atoms: C_17  and  C_18
REMARK    8  A    between atoms: C_30  and  C_32
REMARK                            x       y       z     vdW  Elec       q    Type
REMARK                         _______ _______ _______ _____ _____    ______ ____
ROOT
ATOM      7  C   UNL     1      -3.616   3.544  25.377  0.00  0.00    +0.173 C 
ATOM      8  C   UNL     1      -3.187   2.911  25.069  0.00  0.00    +0.044 C 
ATOM      9  C   UNL     1      -3.574   2.213  24.860  0.00  0.00    +0.004 C 
ATOM     10  C   UNL     1      -4.390   2.148  24.959  0.00  0.00    +0.003 C 
ATOM     11  C   UNL     1      -3.961   1.515  24.651  0.00  0.00    +0.000 C 
ATOM     12  C   UNL     1      -4.777   1.450  24.750  0.00  0.00    +0.040 C 
ATOM     25  C   UNL     1      -5.594   1.386  24.850  0.00  0.00    +0.152 C 
ATOM     26  O   UNL     1      -5.981   0.688  24.641  0.00  0.00    -0.223 OA
ATOM     27  C   UNL     1      -6.023   2.019  25.157  0.00  0.00    +0.033 C 
ATOM     28  C   UNL     1      -5.636   2.718  25.366  0.00  0.00    +0.003 C 
ATOM     29  C   UNL     1      -4.820   2.782  25.267  0.00  0.00    +0.006 C 
ATOM     30  C   UNL     1      -4.433   3.480  25.476  0.00  0.00    +0.068 C 
ATOM     31  C   UNL     1      -5.138   3.832  25.718  0.00  0.00    +0.006 C 
ENDROOT
BRANCH  30  32
ATOM     32  C   UNL     1      -4.485   4.246  25.778  0.00  0.00    +0.185 C 
ATOM     33  O   UNL     1      -5.223   4.575  25.943  0.00  0.00    -0.220 OA
ENDBRANCH  30  32
BRANCH   7   6
ATOM      6  O   UNL     1      -3.229   4.241  25.585  0.00  0.00    -0.437 OA
BRANCH   6   4
ATOM      3  N   UNL     1      -1.979   4.739  25.107  0.00  0.00    -0.169 NA
ATOM      4  C   UNL     1      -2.405   4.261  25.626  0.00  0.00    +0.421 C 
ATOM      5  O   UNL     1      -2.008   3.802  26.185  0.00  0.00    -0.225 OA
BRANCH   3   2
ATOM      1  C   UNL     1      -0.734   5.322  24.714  0.00  0.00    +0.025 C 
ATOM      2  C   UNL     1      -1.155   4.759  25.147  0.00  0.00    +0.119 C 
ENDBRANCH   3   2
ENDBRANCH   6   4
ENDBRANCH   7   6
BRANCH  12  13
ATOM     13  C   UNL     1      -4.348   0.817  24.442  0.00  0.00    +0.089 C 
BRANCH  13  14
ATOM     14  C   UNL     1      -4.274   0.119  24.876  0.00  0.00    +0.242 C 
ATOM     15  O   UNL     1      -4.641   0.050  25.612  0.00  0.00    -0.273 OA
ATOM     16  N   UNL     1      -3.832  -0.510  24.574  0.00  0.00    -0.201 NA
BRANCH  16  17
ATOM     17  C   UNL     1      -3.757  -1.208  25.008  0.00  0.00    +0.141 C 
BRANCH  17  18
ATOM     18  C   UNL     1      -3.236  -1.795  24.757  0.00  0.00    -0.000 A 
ATOM     19  C   UNL     1      -3.527  -2.480  24.402  0.00  0.00    -0.000 A 
ATOM     20  C   UNL     1      -3.006  -3.069  24.151  0.00  0.00    +0.029 A 
ATOM     21  C   UNL     1      -2.193  -2.972  24.256  0.00  0.00    +0.140 A 
ATOM     22  F   UNL     1      -1.671  -3.559  24.005  0.00  0.00    -0.204 F 
ATOM     23  C   UNL     1      -1.902  -2.286  24.611  0.00  0.00    +0.029 A 
ATOM     24  C   UNL     1      -2.424  -1.698  24.862  0.00  0.00    -0.000 A 
ENDBRANCH  17  18
ENDBRANCH  16  17
ENDBRANCH  13  14
ENDBRANCH  12  13
TORSDOF 8
ENDMDL
MODEL 4
REMARK VINA RESULT:     -12.0      2.006      2.679
REMARK  Name = 
REMARK  8 active torsions:
REMARK  status: ('A' for Active; 'I' for Inactive)
REMARK    1  A    between atoms: C_2  and  N_3
REMARK    2  A    between atoms: C_4  and  O_6
REMARK    3  A    between atoms: O_6  and  C_7
REMARK    4  A    between atoms: C_12  and  C_13
REMARK    5  A    between atoms: C_13  and  C_14
REMARK    6  A    between atoms: N_16  and  C_17
REMARK    7  A    between atoms: C_17  and  C_18
REMARK    8  A    between atoms: C_30  and  C_32
REMARK                            x       y       z     vdW  Elec       q    Type
REMARK                         _______ _______ _______ _____ _____    ______ ____
ROOT
ATOM      7  C   UNL     1      -0.186   1.482  24.181  0.00  0.00    +0.173 C 
ATOM      8  C   UNL     1      -0.718   1.116  23.667  0.00  0.00    +0.044 C 
ATOM      9  C   UNL     1      -1.525   1.281  23.723  0.00  0.00    +0.004 C 
ATOM     10  C   UNL     1      -1.799   1.811  24.292  0.00  0.00    +0.003 C 
ATOM     11  C   UNL     1      -2.331   1.445  23.779  0.00  0.00    +0.000 C 
ATOM     12  C   UNL     1      -2.607   1.975  24.348  0.00  0.00    +0.040 C 
ATOM     25  C   UNL     1      -2.881   2.506  24.917  0.00  0.00    +0.152 C 
ATOM     26  O   UNL     1      -3.687   2.670  24.973  0.00  0.00    -0.223 OA
ATOM     27  C   UNL     1      -2.349   2.871  25.430  0.00  0.00    +0.033 C 
ATOM     28  C   UNL     1      -1.542   2.707  25.375  0.00  0.00    +0.003 C 
ATOM     29  C   UNL     1      -1.268   2.177  24.806  0.00  0.00    +0.006 C 
ATOM     30  C   UNL     1      -0.461   2.013  24.750  0.00  0.00    +0.068 C 
ATOM     31  C   UNL     1      -0.284   2.524  25.373  0.00  0.00    +0.006 C 
ENDROOT
BRANCH  30  32
ATOM     32  C   UNL     1       0.302   2.147  25.034  0.00  0.00    +0.185 C 
ATOM     33  O   UNL     1       0.413   2.550  25.745  0.00  0.00    -0.220 OA
ENDBRANCH  30  32
BRANCH   7   6
ATOM      6  O   UNL     1       0.620   1.318  24.125  0.00  0.00    -0.437 OA
BRANCH   6   4
ATOM      3  N   UNL     1       1.518   0.763  23.163  0.00  0.00    -0.169 NA
ATOM      4  C   UNL     1       0.880   0.675  23.679  0.00  0.00    +0.421 C 
ATOM      5  O   UNL     1       0.504  -0.056  23.749  0.00  0.00    -0.225 OA
BRANCH   3   2
ATOM      1  C   UNL     1       2.535   0.128  22.385  0.00  0.00    +0.025 C 
ATOM      2  C   UNL     1       1.779   0.120  22.717  0.00  0.00    +0.119 C 
ENDBRANCH   3   2
ENDBRANCH   6   4
ENDBRANCH   7   6
BRANCH  12  13
ATOM     13  C   UNL     1      -3.138   1.610  23.834  0.00  0.00    +0.089 C 
BRANCH  13  14
ATOM     14  C   UNL     1      -3.723   1.111  24.132  0.00  0.00    +0.242 C 
ATOM     15  O   UNL     1      -4.416   1.430  24.448  0.00  0.00    -0.273 OA
ATOM     16  N   UNL     1      -3.616   0.293  24.115  0.00  0.00    -0.201 NA
BRANCH  16  17
ATOM     17  C   UNL     1      -4.201  -0.207  24.414  0.00  0.00    +0.141 C 
BRANCH  17  18
ATOM     18  C   UNL     1      -4.066  -1.019  24.461  0.00  0.00    -0.000 A 
ATOM     19  C   UNL     1      -4.291  -1.512  23.840  0.00  0.00    -0.000 A 
ATOM     20  C   UNL     1      -4.156  -2.325  23.887  0.00  0.00    +0.029 A 
ATOM     21  C   UNL     1      -3.795  -2.644  24.557  0.00  0.00    +0.140 A 
ATOM     22  F   UNL     1      -3.659  -3.456  24.606  0.00  0.00    -0.204 F 
ATOM     23  C   UNL     1      -3.569  -2.150  25.179  0.00  0.00    +0.029 A 
ATOM     24  C   UNL     1      -3.705  -1.338  25.131  0.00  0.00    -0.000 A 
ENDBRANCH  17  18
ENDBRANCH  16  17
ENDBRANCH  13  14
ENDBRANCH  12  13
TORSDOF 8
ENDMDL
MODEL 5
REMARK VINA RESULT:     -11.9      2.423      4.757
REMARK  Name = 
REMARK  8 active torsions:
REMARK  status: ('A' for Active; 'I' for Inactive)
REMARK    1  A    between atoms: C_2  and  N_3
REMARK    2  A    between atoms: C_4  and  O_6
REMARK    3  A    between atoms: O_6  and  C_7
REMARK    4  A    between atoms: C_12  and  C_13
REMARK    5  A    between atoms: C_13  and  C_14
REMARK    6  A    between atoms: N_16  and  C_17
REMARK    7  A    between atoms: C_17  and  C_18
REMARK    8  A    between atoms: C_30  and  C_32
REMARK                            x       y       z     vdW  Elec       q    Type
REMARK                         _______ _______ _______ _____ _____    ______ ____
ROOT
ATOM      7  C   UNL     1      -0.523   0.103  24.642  0.00  0.00    +0.173 C 
ATOM      8  C   UNL     1      -1.045   0.316  25.244  0.00  0.00    +0.044 C 
ATOM      9  C   UNL     1      -1.183   1.112  25.410  0.00  0.00    +0.004 C 
ATOM     10  C   UNL     1      -0.798   1.696  24.973  0.00  0.00    +0.003 C 
ATOM     11  C   UNL     1      -1.320   1.908  25.575  0.00  0.00    +0.000 C 
ATOM     12  C   UNL     1      -0.936   2.493  25.139  0.00  0.00    +0.040 C 
ATOM     25  C   UNL     1      -0.550   3.078  24.701  0.00  0.00    +0.152 C 
ATOM     26  O   UNL     1      -0.688   3.874  24.867  0.00  0.00    -0.223 OA
ATOM     27  C   UNL     1      -0.028   2.866  24.100  0.00  0.00    +0.033 C 
ATOM     28  C   UNL     1       0.109   2.069  23.934  0.00  0.00    +0.003 C 
ATOM     29  C   UNL     1      -0.275   1.485  24.370  0.00  0.00    +0.006 C 
ATOM     30  C   UNL     1      -0.138   0.688  24.205  0.00  0.00    +0.068 C 
ATOM     31  C   UNL     1       0.390   0.875  23.600  0.00  0.00    +0.006 C 
ENDROOT
BRANCH  30  32
ATOM     32  C   UNL     1       0.257   0.127  23.747  0.00  0.00    +0.185 C 
ATOM     33  O   UNL     1       0.800   0.368  23.175  0.00  0.00    -0.220 OA
ENDBRANCH  30  32
BRANCH   7   6
ATOM      6  O   UNL     1      -0.385  -0.692  24.477  0.00  0.00    -0.437 OA
BRANCH   6   4
ATOM      3  N   UNL     1      -1.407  -1.689  24.448  0.00  0.00    -0.169 NA
ATOM      4  C   UNL     1      -0.824  -1.276  24.860  0.00  0.00    +0.421 C 
ATOM      5  O   UNL     1      -0.681  -1.446  25.654  0.00  0.00    -0.225 OA
BRANCH   3   2
ATOM      1  C   UNL     1      -2.472  -2.644  24.439  0.00  0.00    +0.025 C 
ATOM      2  C   UNL     1      -1.847  -2.273  24.832  0.00  0.00    +0.119 C 
ENDBRANCH   3   2
ENDBRANCH   6   4
ENDBRANCH   7   6
BRANCH  12  13
ATOM     13  C   UNL     1      -1.458   2.705  25.741  0.00  0.00    +0.089 C 
BRANCH  13  14
ATOM     14  C   UNL     1      -2.100   3.194  25.576  0.00  0.00    +0.242 C 
ATOM     15  O   UNL     1      -1.991   4.010  25.505  0.00  0.00    -0.273 OA
ATOM     16  N   UNL     1      -2.853   2.870  25.482  0.00  0.00    -0.201 NA
BRANCH  16  17
ATOM     17  C   UNL     1      -3.497   3.359  25.318  0.00  0.00    +0.141 C 
BRANCH  17  18
ATOM     18  C   UNL     1      -4.254   3.039  25.255  0.00  0.00    -0.000 A 
ATOM     19  C   UNL     1      -4.463   2.600  24.590  0.00  0.00    -0.000 A 
ATOM     20  C   UNL     1      -5.221   2.280  24.527  0.00  0.00    +0.029 A 
ATOM     21  C   UNL     1      -5.770   2.398  25.132  0.00  0.00    +0.140 A 
ATOM     22  F   UNL     1      -6.527   2.078  25.070  0.00  0.00    -0.204 F 
ATOM     23  C   UNL     1      -5.561   2.838  25.799  0.00  0.00    +0.029 A 
ATOM     24  C   UNL     1      -4.803   3.158  25.860  0.00  0.00    -0.000 A 
ENDBRANCH  17  18
ENDBRANCH  16  17
ENDBRANCH  13  14
ENDBRANCH  12  13
TORSDOF 8
ENDMDL
MODEL 6
REMARK VINA RESULT:     -11.7      2.617      4.809
REMARK  Name = 
REMARK  8 active torsions:
REMARK  status: ('A' for Active; 'I' for Inactive)
REMARK    1  A    between atoms: C_2  and  N_3
REMARK    2  A    between atoms: C_4  and  O_6
REMARK    3  A    between atoms: O_6  and  C_7
REMARK    4  A    between atoms: C_12  and  C_13
REMARK    5  A    between atoms: C_13  and  C_14
REMARK    6  A    between atoms: N_16  and  C_17
REMARK    7  A    between atoms: C_17  and  C_18
REMARK    8  A    between atoms: C_30  and  C_32
REMARK                            x       y       z     vdW  Elec       q    Type
REMARK                         _______ _______ _______ _____ _____    ______ ____
ROOT
ATOM      7  C   UNL     1      -2.391  -0.486  24.639  0.00  0.00    +0.173 C 
ATOM      8  C   UNL     1      -2.213   0.258  24.330  0.00  0.00    +0.044 C 
ATOM      9  C   UNL     1      -2.783   0.854  24.333  0.00  0.00    +0.004 C 
ATOM     10  C   UNL     1      -3.532   0.706  24.645  0.00  0.00    +0.003 C 
ATOM     11  C   UNL     1      -3.353   1.450  24.336  0.00  0.00    +0.000 C 
ATOM     12  C   UNL     1      -4.103   1.303  24.648  0.00  0.00    +0.040 C 
ATOM     25  C   UNL     1      -4.852   1.155  24.961  0.00  0.00    +0.152 C 
ATOM     26  O   UNL     1      -5.422   1.751  24.963  0.00  0.00    -0.223 OA
ATOM     27  C   UNL     1      -5.031   0.412  25.270  0.00  0.00    +0.033 C 
ATOM     28  C   UNL     1      -4.459  -0.185  25.267  0.00  0.00    +0.003 C 
ATOM     29  C   UNL     1      -3.711  -0.037  24.955  0.00  0.00    +0.006 C 
ATOM     30  C   UNL     1      -3.140  -0.633  24.952  0.00  0.00    +0.068 C 
ATOM     31  C   UNL     1      -3.655  -1.168  25.310  0.00  0.00    +0.006 C 
ENDROOT
BRANCH  30  32
ATOM     32  C   UNL     1      -2.940  -1.412  25.139  0.00  0.00    +0.185 C 
ATOM     33  O   UNL     1      -3.527  -1.948  25.357  0.00  0.00    -0.220 OA
ENDBRANCH  30  32
BRANCH   7   6
ATOM      6  O   UNL     1      -1.821  -1.081  24.636  0.00  0.00    -0.437 OA
BRANCH   6   4
ATOM      3  N   UNL     1      -0.584  -0.920  23.941  0.00  0.00    -0.169 NA
ATOM      4  C   UNL     1      -1.019  -0.886  24.641  0.00  0.00    +0.421 C 
ATOM      5  O   UNL     1      -0.654  -0.656  25.344  0.00  0.00    -0.225 OA
BRANCH   3   2
ATOM      1  C   UNL     1       0.603  -0.546  23.236  0.00  0.00    +0.025 C 
ATOM      2  C   UNL     1       0.218  -0.725  23.945  0.00  0.00    +0.119 C 
ENDBRANCH   3   2
ENDBRANCH   6   4
ENDBRANCH   7   6
BRANCH  12  13
ATOM     13  C   UNL     1      -3.924   2.046  24.339  0.00  0.00    +0.089 C 
BRANCH  13  14
ATOM     14  C   UNL     1      -3.803   2.685  24.845  0.00  0.00    +0.242 C 
ATOM     15  O   UNL     1      -4.362   2.863  25.426  0.00  0.00    -0.273 OA
ATOM     16  N   UNL     1      -3.124   3.148  24.771  0.00  0.00    -0.201 NA
BRANCH  16  17
ATOM     17  C   UNL     1      -3.002   3.788  25.278  0.00  0.00    +0.141 C 
BRANCH  17  18
ATOM     18  C   UNL     1      -2.325   4.252  25.202  0.00  0.00    -0.000 A 
ATOM     19  C   UNL     1      -1.580   3.898  25.201  0.00  0.00    -0.000 A 
ATOM     20  C   UNL     1      -0.902   4.362  25.125  0.00  0.00    +0.029 A 
ATOM     21  C   UNL     1      -0.970   5.181  25.050  0.00  0.00    +0.140 A 
ATOM     22  F   UNL     1      -0.293   5.646  24.973  0.00  0.00    -0.204 F 
ATOM     23  C   UNL     1      -1.716   5.536  25.050  0.00  0.00    +0.029 A 
ATOM     24  C   UNL     1      -2.393   5.071  25.126  0.00  0.00    -0.000 A 
ENDBRANCH  17  18
ENDBRANCH  16  17
ENDBRANCH  13  14
ENDBRANCH  12  13
TORSDOF 8
ENDMDL
