REMARK  Name = 
REMARK  6 active torsions:
REMARK  status: ('A' for Active; 'I' for Inactive)
REMARK    1  A    between atoms: C_2  and  C_5
REMARK    2  A    between atoms: C_5  and  C_6
REMARK    3  A    between atoms: N_8  and  C_9
REMARK    4  A    between atoms: C_9  and  C_10
REMARK    5  A    between atoms: C_13  and  N_14
REMARK    6  A    between atoms: N_14  and  C_15
REMARK                            x       y       z     vdW  Elec       q    Type
REMARK                         _______ _______ _______ _____ _____    ______ ____
ROOT
ATOM     10  C   UNL     1      -0.608  -1.299   0.000  0.00  0.00    +0.169 C 
ATOM     11  O   UNL     1       0.060  -1.784   0.000  0.00  0.00    -0.350 OA
ATOM     12  C   UNL     1      -0.195  -2.569   0.000  0.00  0.00    +0.162 C 
ATOM     13  C   UNL     1      -1.020  -2.569   0.000  0.00  0.00    +0.135 C 
ATOM     23  C   UNL     1      -1.275  -1.784   0.000  0.00  0.00    +0.199 C 
ATOM     24  O   UNL     1      -2.060  -1.529   0.000  0.00  0.00    -0.219 OA
ENDROOT
BRANCH  10   9
ATOM      9  C   UNL     1      -0.608  -0.474   0.000  0.00  0.00    +0.147 C 
BRANCH   9   8
ATOM      6  C   UNL     1       0.107   0.763   0.000  0.00  0.00    +0.241 C 
ATOM      7  O   UNL     1      -0.608   1.176   0.000  0.00  0.00    -0.273 OA
ATOM      8  N   UNL     1       0.107  -0.062   0.000  0.00  0.00    -0.203 NA
BRANCH   6   5
ATOM      5  C   UNL     1       0.821   1.176   0.000  0.00  0.00    +0.087 C 
BRANCH   5   2
ATOM      1  C   UNL     1       0.821   2.826   0.000  0.00  0.00    +0.000 C 
ATOM      2  C   UNL     1       0.821   2.001   0.000  0.00  0.00    +0.009 C 
ATOM      3  C   UNL     1      -0.004   2.001   0.000  0.00  0.00    +0.000 C 
ATOM      4  C   UNL     1       1.646   2.001   0.000  0.00  0.00    +0.000 C 
ENDBRANCH   5   2
ENDBRANCH   6   5
ENDBRANCH   9   8
ENDBRANCH  10   9
BRANCH  13  14
ATOM     14  N   UNL     1      -1.505  -3.236   0.000  0.00  0.00    -0.216 NA
BRANCH  14  15
ATOM     15  C   UNL     1      -1.170  -3.990   0.000  0.00  0.00    +0.073 C 
ATOM     16  C   UNL     1      -0.349  -4.076   0.000  0.00  0.00    +0.023 C 
ATOM     17  C   UNL     1      -0.014  -4.830   0.000  0.00  0.00    +0.068 C 
ATOM     18  C   UNL     1      -0.498  -5.497   0.000  0.00  0.00    +0.264 C 
ATOM     19  F   UNL     1       0.243  -5.859   0.000  0.00  0.00    -0.204 F 
ATOM     20  F   UNL     1      -0.726  -6.290   0.000  0.00  0.00    -0.204 F 
ATOM     21  C   UNL     1      -1.319  -5.411   0.000  0.00  0.00    +0.068 C 
ATOM     22  C   UNL     1      -1.655  -4.657   0.000  0.00  0.00    +0.023 C 
ENDBRANCH  14  15
ENDBRANCH  13  14
TORSDOF 6
