MODEL 1
REMARK VINA RESULT:      -9.4      0.000      0.000
REMARK  Name = 
REMARK  4 active torsions:
REMARK  status: ('A' for Active; 'I' for Inactive)
REMARK    1  A    between atoms: C_1  and  N_2
REMARK    2  A    between atoms: C_1  and  C_16
REMARK    3  A    between atoms: C_7  and  O_9
REMARK    4  A    between atoms: O_9  and  C_10
REMARK                            x       y       z     vdW  Elec       q    Type
REMARK                         _______ _______ _______ _____ _____    ______ ____
ROOT
ATOM      2  N   UNL     1      -3.385   0.026  25.064  0.00  0.00    -0.264 NA
ATOM      3  C   UNL     1      -2.567  -0.013  25.167  0.00  0.00    +0.105 C 
ATOM      4  C   UNL     1      -1.996   0.545  24.961  0.00  0.00    +0.160 C 
ATOM      5  O   UNL     1      -2.100   1.280  24.601  0.00  0.00    -0.348 OA
ATOM      6  C   UNL     1      -2.803   1.638  24.358  0.00  0.00    +0.187 C 
ATOM      7  C   UNL     1      -3.573   1.350  24.415  0.00  0.00    +0.213 C 
ATOM      8  C   UNL     1      -3.833   0.632  24.729  0.00  0.00    +0.119 C 
ENDROOT
BRANCH   2   1
ATOM      1  C   UNL     1      -3.811  -0.628  25.331  0.00  0.00    +0.101 C 
BRANCH   1  16
ATOM     16  C   UNL     1      -3.809  -1.328  24.893  0.00  0.00    +0.013 A 
ATOM     17  C   UNL     1      -3.364  -1.973  25.148  0.00  0.00    +0.000 A 
ATOM     18  C   UNL     1      -3.363  -2.673  24.711  0.00  0.00    +0.020 A 
ATOM     19  C   UNL     1      -3.808  -2.726  24.019  0.00  0.00    +0.099 A 
ATOM     20  N   UNL     1      -4.253  -2.081  23.764  0.00  0.00    -0.243 NA
ATOM     21  C   UNL     1      -4.254  -1.381  24.201  0.00  0.00    +0.096 A 
ENDBRANCH   1  16
ENDBRANCH   2   1
BRANCH   7   9
ATOM      9  O   UNL     1      -4.164   1.845  24.118  0.00  0.00    -0.459 OA
BRANCH   9  10
ATOM     10  C   UNL     1      -4.476   2.445  24.592  0.00  0.00    +0.245 A 
ATOM     11  C   UNL     1      -4.124   3.191  24.596  0.00  0.00    +0.156 A 
ATOM     12  N   UNL     1      -4.436   3.791  25.069  0.00  0.00    -0.236 NA
ATOM     13  C   UNL     1      -5.100   3.643  25.538  0.00  0.00    +0.120 A 
ATOM     14  C   UNL     1      -5.450   2.897  25.533  0.00  0.00    +0.123 A 
ATOM     15  N   UNL     1      -5.138   2.297  25.060  0.00  0.00    -0.207 NA
ENDBRANCH   9  10
ENDBRANCH   7   9
TORSDOF 4
ENDMDL
MODEL 2
REMARK VINA RESULT:      -9.0      0.891      4.227
REMARK  Name = 
REMARK  4 active torsions:
REMARK  status: ('A' for Active; 'I' for Inactive)
REMARK    1  A    between atoms: C_1  and  N_2
REMARK    2  A    between atoms: C_1  and  C_16
REMARK    3  A    between atoms: C_7  and  O_9
REMARK    4  A    between atoms: O_9  and  C_10
REMARK                            x       y       z     vdW  Elec       q    Type
REMARK                         _______ _______ _______ _____ _____    ______ ____
ROOT
ATOM      2  N   UNL     1      -3.555   1.377  24.460  0.00  0.00    -0.264 NA
ATOM      3  C   UNL     1      -2.776   1.644  24.418  0.00  0.00    +0.105 C 
ATOM      4  C   UNL     1      -2.089   1.268  24.677  0.00  0.00    +0.160 C 
ATOM      5  O   UNL     1      -2.011   0.531  25.041  0.00  0.00    -0.348 OA
ATOM      6  C   UNL     1      -2.602  -0.011  25.236  0.00  0.00    +0.187 C 
ATOM      7  C   UNL     1      -3.415   0.050  25.115  0.00  0.00    +0.213 C 
ATOM      8  C   UNL     1      -3.840   0.667  24.770  0.00  0.00    +0.119 C 
ENDROOT
BRANCH   2   1
ATOM      1  C   UNL     1      -4.125   1.886  24.151  0.00  0.00    +0.101 C 
BRANCH   1  16
ATOM     16  C   UNL     1      -4.492   2.441  24.639  0.00  0.00    +0.013 A 
ATOM     17  C   UNL     1      -5.230   2.277  24.969  0.00  0.00    +0.000 A 
ATOM     18  C   UNL     1      -5.596   2.832  25.457  0.00  0.00    +0.020 A 
ATOM     19  C   UNL     1      -5.224   3.551  25.615  0.00  0.00    +0.099 A 
ATOM     20  N   UNL     1      -4.486   3.715  25.285  0.00  0.00    -0.243 NA
ATOM     21  C   UNL     1      -4.120   3.160  24.797  0.00  0.00    +0.096 A 
ENDBRANCH   1  16
ENDBRANCH   2   1
BRANCH   7   9
ATOM      9  O   UNL     1      -3.864  -0.593  25.374  0.00  0.00    -0.459 OA
BRANCH   9  10
ATOM     10  C   UNL     1      -3.828  -1.311  24.970  0.00  0.00    +0.245 A 
ATOM     11  C   UNL     1      -3.390  -1.938  25.280  0.00  0.00    +0.156 A 
ATOM     12  N   UNL     1      -3.355  -2.656  24.875  0.00  0.00    -0.236 NA
ATOM     13  C   UNL     1      -3.758  -2.747  24.160  0.00  0.00    +0.120 A 
ATOM     14  C   UNL     1      -4.195  -2.120  23.851  0.00  0.00    +0.123 A 
ATOM     15  N   UNL     1      -4.230  -1.402  24.256  0.00  0.00    -0.207 NA
ENDBRANCH   9  10
ENDBRANCH   7   9
TORSDOF 4
ENDMDL
MODEL 3
REMARK VINA RESULT:      -8.9      1.783      2.818
REMARK  Name = 
REMARK  4 active torsions:
REMARK  status: ('A' for Active; 'I' for Inactive)
REMARK    1  A    between atoms: C_1  and  N_2
REMARK    2  A    between atoms: C_1  and  C_16
REMARK    3  A    between atoms: C_7  and  O_9
REMARK    4  A    between atoms: O_9  and  C_10
REMARK                            x       y       z     vdW  Elec       q    Type
REMARK                         _______ _______ _______ _____ _____    ______ ____
ROOT
ATOM      2  N   UNL     1      -3.126   0.311  24.509  0.00  0.00    -0.264 NA
ATOM      3  C   UNL     1      -3.537   0.738  23.935  0.00  0.00    +0.105 C 
ATOM      4  C   UNL     1      -3.244   1.289  23.396  0.00  0.00    +0.160 C 
ATOM      5  O   UNL     1      -2.468   1.551  23.297  0.00  0.00    -0.348 OA
ATOM      6  C   UNL     1      -1.792   1.325  23.714  0.00  0.00    +0.187 C 
ATOM      7  C   UNL     1      -1.727   0.783  24.332  0.00  0.00    +0.213 C 
ATOM      8  C   UNL     1      -2.320   0.331  24.686  0.00  0.00    +0.119 C 
ENDROOT
BRANCH   2   1
ATOM      1  C   UNL     1      -3.580  -0.203  24.967  0.00  0.00    +0.101 C 
BRANCH   1  16
ATOM     16  C   UNL     1      -3.675  -0.988  24.734  0.00  0.00    +0.013 A 
ATOM     17  C   UNL     1      -3.269  -1.588  25.128  0.00  0.00    +0.000 A 
ATOM     18  C   UNL     1      -3.365  -2.374  24.894  0.00  0.00    +0.020 A 
ATOM     19  C   UNL     1      -3.867  -2.558  24.267  0.00  0.00    +0.099 A 
ATOM     20  N   UNL     1      -4.274  -1.959  23.873  0.00  0.00    -0.243 NA
ATOM     21  C   UNL     1      -4.178  -1.173  24.106  0.00  0.00    +0.096 A 
ENDBRANCH   1  16
ENDBRANCH   2   1
BRANCH   7   9
ATOM      9  O   UNL     1      -0.967   0.678  24.636  0.00  0.00    -0.459 OA
BRANCH   9  10
ATOM     10  C   UNL     1      -0.590   1.298  25.028  0.00  0.00    +0.245 A 
ATOM     11  C   UNL     1       0.008   1.722  24.649  0.00  0.00    +0.156 A 
ATOM     12  N   UNL     1       0.385   2.343  25.041  0.00  0.00    -0.236 NA
ATOM     13  C   UNL     1       0.165   2.539  25.812  0.00  0.00    +0.120 A 
ATOM     14  C   UNL     1      -0.433   2.114  26.190  0.00  0.00    +0.123 A 
ATOM     15  N   UNL     1      -0.810   1.494  25.798  0.00  0.00    -0.207 NA
ENDBRANCH   9  10
ENDBRANCH   7   9
TORSDOF 4
ENDMDL
MODEL 4
REMARK VINA RESULT:      -8.8      1.600      2.034
REMARK  Name = 
REMARK  4 active torsions:
REMARK  status: ('A' for Active; 'I' for Inactive)
REMARK    1  A    between atoms: C_1  and  N_2
REMARK    2  A    between atoms: C_1  and  C_16
REMARK    3  A    between atoms: C_7  and  O_9
REMARK    4  A    between atoms: O_9  and  C_10
REMARK                            x       y       z     vdW  Elec       q    Type
REMARK                         _______ _______ _______ _____ _____    ______ ____
ROOT
ATOM      2  N   UNL     1      -2.323  -0.447  25.064  0.00  0.00    -0.264 NA
ATOM      3  C   UNL     1      -1.637  -0.880  25.215  0.00  0.00    +0.105 C 
ATOM      4  C   UNL     1      -0.857  -0.690  25.023  0.00  0.00    +0.160 C 
ATOM      5  O   UNL     1      -0.571  -0.022  24.633  0.00  0.00    -0.348 OA
ATOM      6  C   UNL     1      -0.994   0.622  24.339  0.00  0.00    +0.187 C 
ATOM      7  C   UNL     1      -1.807   0.757  24.361  0.00  0.00    +0.213 C 
ATOM      8  C   UNL     1      -2.399   0.281  24.684  0.00  0.00    +0.119 C 
ENDROOT
BRANCH   2   1
ATOM      1  C   UNL     1      -3.026  -0.788  25.328  0.00  0.00    +0.101 C 
BRANCH   1  16
ATOM     16  C   UNL     1      -3.398  -1.370  24.876  0.00  0.00    +0.013 A 
ATOM     17  C   UNL     1      -3.973  -1.160  24.324  0.00  0.00    +0.000 A 
ATOM     18  C   UNL     1      -4.344  -1.743  23.873  0.00  0.00    +0.020 A 
ATOM     19  C   UNL     1      -4.139  -2.535  23.974  0.00  0.00    +0.099 A 
ATOM     20  N   UNL     1      -3.564  -2.745  24.527  0.00  0.00    -0.243 NA
ATOM     21  C   UNL     1      -3.193  -2.163  24.978  0.00  0.00    +0.096 A 
ENDBRANCH   1  16
ENDBRANCH   2   1
BRANCH   7   9
ATOM      9  O   UNL     1      -2.063   1.462  24.015  0.00  0.00    -0.459 OA
BRANCH   9  10
ATOM     10  C   UNL     1      -1.957   2.178  24.411  0.00  0.00    +0.245 A 
ATOM     11  C   UNL     1      -1.284   2.633  24.266  0.00  0.00    +0.156 A 
ATOM     12  N   UNL     1      -1.178   3.349  24.661  0.00  0.00    -0.236 NA
ATOM     13  C   UNL     1      -1.745   3.610  25.202  0.00  0.00    +0.120 A 
ATOM     14  C   UNL     1      -2.417   3.155  25.346  0.00  0.00    +0.123 A 
ATOM     15  N   UNL     1      -2.523   2.438  24.950  0.00  0.00    -0.207 NA
ENDBRANCH   9  10
ENDBRANCH   7   9
TORSDOF 4
ENDMDL
MODEL 5
REMARK VINA RESULT:      -8.7      1.903      4.646
REMARK  Name = 
REMARK  4 active torsions:
REMARK  status: ('A' for Active; 'I' for Inactive)
REMARK    1  A    between atoms: C_1  and  N_2
REMARK    2  A    between atoms: C_1  and  C_16
REMARK    3  A    between atoms: C_7  and  O_9
REMARK    4  A    between atoms: O_9  and  C_10
REMARK                            x       y       z     vdW  Elec       q    Type
REMARK                         _______ _______ _______ _____ _____    ______ ____
ROOT
ATOM      2  N   UNL     1      -3.027   3.018  25.316  0.00  0.00    -0.264 NA
ATOM      3  C   UNL     1      -3.708   3.484  25.320  0.00  0.00    +0.105 C 
ATOM      4  C   UNL     1      -4.420   3.357  24.923  0.00  0.00    +0.160 C 
ATOM      5  O   UNL     1      -4.628   2.733  24.425  0.00  0.00    -0.348 OA
ATOM      6  C   UNL     1      -4.174   2.081  24.201  0.00  0.00    +0.187 C 
ATOM      7  C   UNL     1      -3.401   1.893  24.419  0.00  0.00    +0.213 C 
ATOM      8  C   UNL     1      -2.890   2.310  24.915  0.00  0.00    +0.119 C 
ENDROOT
BRANCH   2   1
ATOM      1  C   UNL     1      -2.400   3.297  25.774  0.00  0.00    +0.101 C 
BRANCH   1  16
ATOM     16  C   UNL     1      -1.857   3.826  25.451  0.00  0.00    +0.013 A 
ATOM     17  C   UNL     1      -2.014   4.636  25.459  0.00  0.00    +0.000 A 
ATOM     18  C   UNL     1      -1.471   5.166  25.135  0.00  0.00    +0.020 A 
ATOM     19  C   UNL     1      -0.770   4.885  24.804  0.00  0.00    +0.099 A 
ATOM     20  N   UNL     1      -0.612   4.076  24.796  0.00  0.00    -0.243 NA
ATOM     21  C   UNL     1      -1.155   3.546  25.119  0.00  0.00    +0.096 A 
ENDBRANCH   1  16
ENDBRANCH   2   1
BRANCH   7   9
ATOM      9  O   UNL     1      -3.099   1.195  24.098  0.00  0.00    -0.459 OA
BRANCH   9  10
ATOM     10  C   UNL     1      -3.314   0.466  24.419  0.00  0.00    +0.245 A 
ATOM     11  C   UNL     1      -3.967   0.060  24.119  0.00  0.00    +0.156 A 
ATOM     12  N   UNL     1      -4.181  -0.669  24.440  0.00  0.00    -0.236 NA
ATOM     13  C   UNL     1      -3.743  -0.992  25.061  0.00  0.00    +0.120 A 
ATOM     14  C   UNL     1      -3.091  -0.585  25.359  0.00  0.00    +0.123 A 
ATOM     15  N   UNL     1      -2.876   0.144  25.038  0.00  0.00    -0.207 NA
ENDBRANCH   9  10
ENDBRANCH   7   9
TORSDOF 4
ENDMDL
MODEL 6
REMARK VINA RESULT:      -8.6      2.071      4.163
REMARK  Name = 
REMARK  4 active torsions:
REMARK  status: ('A' for Active; 'I' for Inactive)
REMARK    1  A    between atoms: C_1  and  N_2
REMARK    2  A    between atoms: C_1  and  C_16
REMARK    3  A    between atoms: C_7  and  O_9
REMARK    4  A    between atoms: O_9  and  C_10
REMARK                            x       y       z     vdW  Elec       q    Type
REMARK                         _______ _______ _______ _____ _____    ______ ____
ROOT
ATOM      2  N   UNL     1      -3.191   3.363  24.700  0.00  0.00    -0.264 NA
ATOM      3  C   UNL     1      -2.956   3.819  25.346  0.00  0.00    +0.105 C 
ATOM      4  C   UNL     1      -2.214   3.859  25.704  0.00  0.00    +0.160 C 
ATOM      5  O   UNL     1      -1.524   3.453  25.506  0.00  0.00    -0.348 OA
ATOM      6  C   UNL     1      -1.406   2.906  24.899  0.00  0.00    +0.187 C 
ATOM      7  C   UNL     1      -1.948   2.630  24.342  0.00  0.00    +0.213 C 
ATOM      8  C   UNL     1      -2.743   2.834  24.253  0.00  0.00    +0.119 C 
ENDROOT
BRANCH   2   1
ATOM      1  C   UNL     1      -3.979   3.447  24.470  0.00  0.00    +0.101 C 
BRANCH   1  16
ATOM     16  C   UNL     1      -4.574   3.054  24.886  0.00  0.00    +0.013 A 
ATOM     17  C   UNL     1      -4.870   2.337  24.605  0.00  0.00    +0.000 A 
ATOM     18  C   UNL     1      -5.465   1.945  25.021  0.00  0.00    +0.020 A 
ATOM     19  C   UNL     1      -5.763   2.270  25.717  0.00  0.00    +0.099 A 
ATOM     20  N   UNL     1      -5.468   2.987  25.998  0.00  0.00    -0.243 NA
ATOM     21  C   UNL     1      -4.873   3.379  25.583  0.00  0.00    +0.096 A 
ENDBRANCH   1  16
ENDBRANCH   2   1
BRANCH   7   9
ATOM      9  O   UNL     1      -1.657   2.078  23.802  0.00  0.00    -0.459 OA
BRANCH   9  10
ATOM     10  C   UNL     1      -1.386   1.345  24.066  0.00  0.00    +0.245 A 
ATOM     11  C   UNL     1      -0.577   1.212  24.155  0.00  0.00    +0.156 A 
ATOM     12  N   UNL     1      -0.307   0.478  24.420  0.00  0.00    -0.236 NA
ATOM     13  C   UNL     1      -0.846  -0.121  24.596  0.00  0.00    +0.120 A 
ATOM     14  C   UNL     1      -1.655   0.013  24.507  0.00  0.00    +0.123 A 
ATOM     15  N   UNL     1      -1.925   0.746  24.242  0.00  0.00    -0.207 NA
ENDBRANCH   9  10
ENDBRANCH   7   9
TORSDOF 4
ENDMDL
MODEL 7
REMARK VINA RESULT:      -8.6      1.527      4.247
REMARK  Name = 
REMARK  4 active torsions:
REMARK  status: ('A' for Active; 'I' for Inactive)
REMARK    1  A    between atoms: C_1  and  N_2
REMARK    2  A    between atoms: C_1  and  C_16
REMARK    3  A    between atoms: C_7  and  O_9
REMARK    4  A    between atoms: O_9  and  C_10
REMARK                            x       y       z     vdW  Elec       q    Type
REMARK                         _______ _______ _______ _____ _____    ______ ____
ROOT
ATOM      2  N   UNL     1      -3.692   0.836  24.537  0.00  0.00    -0.264 NA
ATOM      3  C   UNL     1      -4.233   0.213  24.562  0.00  0.00    +0.105 C 
ATOM      4  C   UNL     1      -4.119  -0.557  24.837  0.00  0.00    +0.160 C 
ATOM      5  O   UNL     1      -3.436  -0.894  25.155  0.00  0.00    -0.348 OA
ATOM      6  C   UNL     1      -2.698  -0.545  25.276  0.00  0.00    +0.187 C 
ATOM      7  C   UNL     1      -2.462   0.228  25.110  0.00  0.00    +0.213 C 
ATOM      8  C   UNL     1      -2.903   0.842  24.781  0.00  0.00    +0.119 C 
ENDROOT
BRANCH   2   1
ATOM      1  C   UNL     1      -3.976   1.545  24.227  0.00  0.00    +0.101 C 
BRANCH   1  16
ATOM     16  C   UNL     1      -4.403   2.063  24.707  0.00  0.00    +0.013 A 
ATOM     17  C   UNL     1      -5.218   1.970  24.792  0.00  0.00    +0.000 A 
ATOM     18  C   UNL     1      -5.645   2.488  25.272  0.00  0.00    +0.020 A 
ATOM     19  C   UNL     1      -5.255   3.099  25.667  0.00  0.00    +0.099 A 
ATOM     20  N   UNL     1      -4.440   3.192  25.582  0.00  0.00    -0.243 NA
ATOM     21  C   UNL     1      -4.014   2.674  25.102  0.00  0.00    +0.096 A 
ENDBRANCH   1  16
ENDBRANCH   2   1
BRANCH   7   9
ATOM      9  O   UNL     1      -1.679   0.410  25.298  0.00  0.00    -0.459 OA
BRANCH   9  10
ATOM     10  C   UNL     1      -1.070   0.196  24.783  0.00  0.00    +0.245 A 
ATOM     11  C   UNL     1      -0.733  -0.555  24.834  0.00  0.00    +0.156 A 
ATOM     12  N   UNL     1      -0.125  -0.770  24.320  0.00  0.00    -0.236 NA
ATOM     13  C   UNL     1       0.146  -0.232  23.754  0.00  0.00    +0.120 A 
ATOM     14  C   UNL     1      -0.192   0.518  23.704  0.00  0.00    +0.123 A 
ATOM     15  N   UNL     1      -0.800   0.733  24.219  0.00  0.00    -0.207 NA
ENDBRANCH   9  10
ENDBRANCH   7   9
TORSDOF 4
ENDMDL
MODEL 8
REMARK VINA RESULT:      -8.6      1.498      2.428
REMARK  Name = 
REMARK  4 active torsions:
REMARK  status: ('A' for Active; 'I' for Inactive)
REMARK    1  A    between atoms: C_1  and  N_2
REMARK    2  A    between atoms: C_1  and  C_16
REMARK    3  A    between atoms: C_7  and  O_9
REMARK    4  A    between atoms: O_9  and  C_10
REMARK                            x       y       z     vdW  Elec       q    Type
REMARK                         _______ _______ _______ _____ _____    ______ ____
ROOT
ATOM      2  N   UNL     1      -4.224   1.153  24.487  0.00  0.00    -0.264 NA
ATOM      3  C   UNL     1      -4.879   1.149  24.988  0.00  0.00    +0.105 C 
ATOM      4  C   UNL     1      -5.241   1.786  25.367  0.00  0.00    +0.160 C 
ATOM      5  O   UNL     1      -5.037   2.585  25.340  0.00  0.00    -0.348 OA
ATOM      6  C   UNL     1      -4.420   2.944  24.925  0.00  0.00    +0.187 C 
ATOM      7  C   UNL     1      -3.856   2.593  24.437  0.00  0.00    +0.213 C 
ATOM      8  C   UNL     1      -3.768   1.796  24.242  0.00  0.00    +0.119 C 
ENDROOT
BRANCH   2   1
ATOM      1  C   UNL     1      -3.993   0.418  24.193  0.00  0.00    +0.101 C 
BRANCH   1  16
ATOM     16  C   UNL     1      -3.567  -0.103  24.670  0.00  0.00    +0.013 A 
ATOM     17  C   UNL     1      -3.966  -0.626  25.168  0.00  0.00    +0.000 A 
ATOM     18  C   UNL     1      -3.540  -1.147  25.646  0.00  0.00    +0.020 A 
ATOM     19  C   UNL     1      -2.716  -1.144  25.625  0.00  0.00    +0.099 A 
ATOM     20  N   UNL     1      -2.317  -0.621  25.127  0.00  0.00    -0.243 NA
ATOM     21  C   UNL     1      -2.743  -0.100  24.650  0.00  0.00    +0.096 A 
ENDBRANCH   1  16
ENDBRANCH   2   1
BRANCH   7   9
ATOM      9  O   UNL     1      -3.306   3.107  24.099  0.00  0.00    -0.459 OA
BRANCH   9  10
ATOM     10  C   UNL     1      -2.694   3.416  24.557  0.00  0.00    +0.245 A 
ATOM     11  C   UNL     1      -2.819   4.097  25.007  0.00  0.00    +0.156 A 
ATOM     12  N   UNL     1      -2.207   4.406  25.466  0.00  0.00    -0.236 NA
ATOM     13  C   UNL     1      -1.470   4.035  25.475  0.00  0.00    +0.120 A 
ATOM     14  C   UNL     1      -1.345   3.355  25.025  0.00  0.00    +0.123 A 
ATOM     15  N   UNL     1      -1.957   3.046  24.566  0.00  0.00    -0.207 NA
ENDBRANCH   9  10
ENDBRANCH   7   9
TORSDOF 4
ENDMDL
