REMARK  Name = 
REMARK  4 active torsions:
REMARK  status: ('A' for Active; 'I' for Inactive)
REMARK    1  A    between atoms: C_2  and  C_3
REMARK    2  A    between atoms: C_3  and  N_4
REMARK    3  A    between atoms: N_12  and  C_13
REMARK    4  A    between atoms: C_13  and  C_14
REMARK                            x       y       z     vdW  Elec       q    Type
REMARK                         _______ _______ _______ _____ _____    ______ ____
ROOT
ATOM      4  N   UNL     1       2.070   1.110   0.000  0.00  0.00    -0.213 N 
ATOM      5  C   UNL     1       1.356   0.698   0.000  0.00  0.00    +0.250 C 
ATOM      6  O   UNL     1       1.356  -0.127   0.000  0.00  0.00    -0.273 OA
ATOM      7  C   UNL     1       0.641   1.110   0.000  0.00  0.00    +0.168 C 
ATOM      8  N   UNL     1      -0.143   0.856   0.000  0.00  0.00    -0.209 NA
ATOM      9  C   UNL     1      -0.628   1.523   0.000  0.00  0.00    +0.091 C 
ATOM     10  C   UNL     1      -0.143   2.190   0.000  0.00  0.00    +0.041 C 
ATOM     11  C   UNL     1       0.641   1.935   0.000  0.00  0.00    +0.103 C 
ATOM     12  N   UNL     1       1.356   2.348   0.000  0.00  0.00    -0.259 N 
ATOM     19  C   UNL     1       2.070   1.935   0.000  0.00  0.00    +0.313 C 
ATOM     20  O   UNL     1       2.784   2.348   0.000  0.00  0.00    -0.252 OA
ENDROOT
BRANCH   4   3
ATOM      3  C   UNL     1       2.784   0.698   0.000  0.00  0.00    +0.102 C 
BRANCH   3   2
ATOM      1  C   UNL     1       3.499  -0.540   0.000  0.00  0.00    +0.002 C 
ATOM      2  C   UNL     1       2.784  -0.127   0.000  0.00  0.00    +0.022 C 
ENDBRANCH   3   2
ENDBRANCH   4   3
BRANCH  12  13
ATOM     13  C   UNL     1       1.356   3.173   0.000  0.00  0.00    +0.128 C 
BRANCH  13  14
ATOM     14  C   UNL     1       2.070   3.585   0.000  0.00  0.00    +0.027 A 
ATOM     15  C   UNL     1       2.156   4.406   0.000  0.00  0.00    +0.004 A 
ATOM     16  C   UNL     1       2.963   4.577   0.000  0.00  0.00    +0.007 A 
ATOM     17  C   UNL     1       3.376   3.863   0.000  0.00  0.00    +0.035 A 
ATOM     18  S   UNL     1       2.824   3.250   0.000  0.00  0.00    -0.089 S 
ENDBRANCH  13  14
ENDBRANCH  12  13
TORSDOF 4
