MODEL 1
REMARK VINA RESULT:     -12.7      0.000      0.000
REMARK  Name = 
REMARK  10 active torsions:
REMARK  status: ('A' for Active; 'I' for Inactive)
REMARK    1  A    between atoms: O_2  and  C_3
REMARK    2  A    between atoms: C_6  and  C_7
REMARK    3  A    between atoms: C_7  and  C_8
REMARK    4  A    between atoms: C_8  and  N_9
REMARK    5  A    between atoms: C_8  and  C_35
REMARK    6  A    between atoms: C_10  and  C_12
REMARK    7  A    between atoms: C_14  and  N_15
REMARK    8  A    between atoms: N_18  and  C_19
REMARK    9  A    between atoms: C_22  and  O_23
REMARK   10  A    between atoms: O_23  and  C_24
REMARK                            x       y       z     vdW  Elec       q    Type
REMARK                         _______ _______ _______ _____ _____    ______ ____
ROOT
ATOM     12  C   UNL     1      -4.052   3.085  25.038  0.00  0.00    +0.033 C 
ATOM     13  C   UNL     1      -4.238   2.332  24.759  0.00  0.00    -0.002 C 
ATOM     14  C   UNL     1      -4.957   1.981  24.966  0.00  0.00    +0.152 C 
ATOM     30  C   UNL     1      -5.488   2.386  25.451  0.00  0.00    +0.206 C 
ATOM     31  O   UNL     1      -6.206   2.035  25.657  0.00  0.00    -0.218 OA
ATOM     32  C   UNL     1      -5.301   3.139  25.730  0.00  0.00    +0.189 C 
ATOM     33  O   UNL     1      -5.832   3.542  26.215  0.00  0.00    -0.220 OA
ATOM     34  C   UNL     1      -4.583   3.489  25.523  0.00  0.00    +0.066 C 
ENDROOT
BRANCH  14  15
ATOM     15  N   UNL     1      -5.144   1.229  24.687  0.00  0.00    -0.181 NA
ATOM     16  C   UNL     1      -4.608   0.609  24.781  0.00  0.00    +0.344 C 
ATOM     17  O   UNL     1      -3.885   0.744  25.155  0.00  0.00    -0.249 OA
ATOM     18  N   UNL     1      -4.795  -0.145  24.502  0.00  0.00    -0.161 NA
BRANCH  18  19
ATOM     19  C   UNL     1      -4.259  -0.764  24.597  0.00  0.00    +0.075 A 
ATOM     20  C   UNL     1      -4.021  -1.207  23.943  0.00  0.00    +0.020 A 
ATOM     21  C   UNL     1      -3.484  -1.827  24.037  0.00  0.00    +0.039 A 
ATOM     22  C   UNL     1      -3.185  -2.003  24.786  0.00  0.00    +0.147 A 
ATOM     28  C   UNL     1      -3.422  -1.560  25.440  0.00  0.00    +0.039 A 
ATOM     29  C   UNL     1      -3.959  -0.940  25.345  0.00  0.00    +0.020 A 
BRANCH  22  23
ATOM     23  O   UNL     1      -2.648  -2.623  24.880  0.00  0.00    -0.404 OA
BRANCH  23  24
ATOM     24  C   UNL     1      -1.886  -2.559  24.571  0.00  0.00    +0.575 C 
ATOM     25  F   UNL     1      -1.124  -2.496  24.262  0.00  0.00    -0.133 F 
ATOM     26  F   UNL     1      -1.653  -2.126  25.233  0.00  0.00    -0.133 F 
ATOM     27  F   UNL     1      -2.118  -2.993  23.909  0.00  0.00    -0.133 F 
ENDBRANCH  23  24
ENDBRANCH  22  23
ENDBRANCH  18  19
ENDBRANCH  14  15
BRANCH  12  10
ATOM      9  N   UNL     1      -2.624   3.110  25.101  0.00  0.00    -0.194 NA
ATOM     10  C   UNL     1      -3.334   3.435  24.832  0.00  0.00    +0.261 C 
ATOM     11  O   UNL     1      -3.324   4.109  24.356  0.00  0.00    -0.269 OA
BRANCH   9   8
ATOM      8  C   UNL     1      -1.906   3.460  24.894  0.00  0.00    +0.179 C 
BRANCH   8  35
ATOM     35  C   UNL     1      -1.578   4.044  25.375  0.00  0.00    +0.281 C 
ATOM     36  N   UNL     1      -1.293   4.743  25.039  0.00  0.00    -0.086 NA
ATOM     37  O   UNL     1      -1.534   3.932  26.191  0.00  0.00    -0.270 OA
ENDBRANCH   8  35
BRANCH   8   7
ATOM      7  C   UNL     1      -1.516   3.225  24.206  0.00  0.00    +0.057 C 
BRANCH   7   6
ATOM      3  C   UNL     1      -0.378   1.030  24.114  0.00  0.00    +0.139 A 
ATOM      4  C   UNL     1      -0.939   1.227  23.544  0.00  0.00    +0.037 A 
ATOM      5  C   UNL     1      -1.318   1.959  23.574  0.00  0.00    -0.001 A 
ATOM      6  C   UNL     1      -1.136   2.493  24.176  0.00  0.00    -0.020 A 
ATOM     38  C   UNL     1      -0.576   2.296  24.747  0.00  0.00    -0.001 A 
ATOM     39  C   UNL     1      -0.196   1.563  24.716  0.00  0.00    +0.037 A 
BRANCH   3   2
ATOM      1  C   UNL     1       0.500   0.117  23.451  0.00  0.00    +0.252 C 
ATOM      2  O   UNL     1       0.002   0.297  24.084  0.00  0.00    -0.471 OA
ENDBRANCH   3   2
ENDBRANCH   7   6
ENDBRANCH   8   7
ENDBRANCH   9   8
ENDBRANCH  12  10
TORSDOF 10
ENDMDL
MODEL 2
REMARK VINA RESULT:     -12.2      1.488      3.751
REMARK  Name = 
REMARK  10 active torsions:
REMARK  status: ('A' for Active; 'I' for Inactive)
REMARK    1  A    between atoms: O_2  and  C_3
REMARK    2  A    between atoms: C_6  and  C_7
REMARK    3  A    between atoms: C_7  and  C_8
REMARK    4  A    between atoms: C_8  and  N_9
REMARK    5  A    between atoms: C_8  and  C_35
REMARK    6  A    between atoms: C_10  and  C_12
REMARK    7  A    between atoms: C_14  and  N_15
REMARK    8  A    between atoms: N_18  and  C_19
REMARK    9  A    between atoms: C_22  and  O_23
REMARK   10  A    between atoms: O_23  and  C_24
REMARK                            x       y       z     vdW  Elec       q    Type
REMARK                         _______ _______ _______ _____ _____    ______ ____
ROOT
ATOM     12  C   UNL     1      -0.891   2.555  24.738  0.00  0.00    +0.033 C 
ATOM     13  C   UNL     1      -1.070   1.862  25.149  0.00  0.00    -0.002 C 
ATOM     14  C   UNL     1      -0.563   1.212  25.103  0.00  0.00    +0.152 C 
ATOM     30  C   UNL     1       0.121   1.255  24.645  0.00  0.00    +0.206 C 
ATOM     31  O   UNL     1       0.627   0.605  24.599  0.00  0.00    -0.218 OA
ATOM     32  C   UNL     1       0.300   1.947  24.234  0.00  0.00    +0.189 C 
ATOM     33  O   UNL     1       0.985   1.990  23.776  0.00  0.00    -0.220 OA
ATOM     34  C   UNL     1      -0.205   2.597  24.280  0.00  0.00    +0.066 C 
ENDROOT
BRANCH  14  15
ATOM     15  N   UNL     1      -0.742   0.520  25.513  0.00  0.00    -0.181 NA
ATOM     16  C   UNL     1      -1.371   0.046  25.269  0.00  0.00    +0.344 C 
ATOM     17  O   UNL     1      -1.821   0.264  24.613  0.00  0.00    -0.249 OA
ATOM     18  N   UNL     1      -1.550  -0.647  25.680  0.00  0.00    -0.161 NA
BRANCH  18  19
ATOM     19  C   UNL     1      -2.179  -1.121  25.436  0.00  0.00    +0.075 A 
ATOM     20  C   UNL     1      -2.947  -0.947  25.684  0.00  0.00    +0.020 A 
ATOM     21  C   UNL     1      -3.577  -1.422  25.439  0.00  0.00    +0.039 A 
ATOM     22  C   UNL     1      -3.438  -2.069  24.945  0.00  0.00    +0.147 A 
ATOM     28  C   UNL     1      -2.671  -2.242  24.697  0.00  0.00    +0.039 A 
ATOM     29  C   UNL     1      -2.042  -1.768  24.942  0.00  0.00    +0.020 A 
BRANCH  22  23
ATOM     23  O   UNL     1      -4.068  -2.542  24.701  0.00  0.00    -0.404 OA
BRANCH  23  24
ATOM     24  C   UNL     1      -4.304  -2.540  23.910  0.00  0.00    +0.575 C 
ATOM     25  F   UNL     1      -4.539  -2.538  23.120  0.00  0.00    -0.133 F 
ATOM     26  F   UNL     1      -3.892  -3.244  23.786  0.00  0.00    -0.133 F 
ATOM     27  F   UNL     1      -4.715  -1.836  24.035  0.00  0.00    -0.133 F 
ENDBRANCH  23  24
ENDBRANCH  22  23
ENDBRANCH  18  19
ENDBRANCH  14  15
BRANCH  12  10
ATOM      9  N   UNL     1      -2.128   3.131  25.162  0.00  0.00    -0.194 NA
ATOM     10  C   UNL     1      -1.396   3.204  24.785  0.00  0.00    +0.261 C 
ATOM     11  O   UNL     1      -1.173   3.927  24.455  0.00  0.00    -0.269 OA
BRANCH   9   8
ATOM      8  C   UNL     1      -2.633   3.782  25.209  0.00  0.00    +0.179 C 
BRANCH   8  35
ATOM     35  C   UNL     1      -2.522   4.350  25.795  0.00  0.00    +0.281 C 
ATOM     36  N   UNL     1      -2.376   5.136  25.586  0.00  0.00    -0.086 NA
ATOM     37  O   UNL     1      -2.557   4.135  26.591  0.00  0.00    -0.270 OA
ENDBRANCH   8  35
BRANCH   8   7
ATOM      7  C   UNL     1      -3.251   3.863  24.668  0.00  0.00    +0.057 C 
BRANCH   7   6
ATOM      3  C   UNL     1      -5.259   2.429  24.855  0.00  0.00    +0.139 A 
ATOM      4  C   UNL     1      -4.736   2.325  24.227  0.00  0.00    +0.037 A 
ATOM      5  C   UNL     1      -4.066   2.802  24.164  0.00  0.00    -0.001 A 
ATOM      6  C   UNL     1      -3.921   3.385  24.731  0.00  0.00    -0.020 A 
ATOM     38  C   UNL     1      -4.444   3.490  25.358  0.00  0.00    -0.001 A 
ATOM     39  C   UNL     1      -5.115   3.012  25.421  0.00  0.00    +0.037 A 
BRANCH   3   2
ATOM      1  C   UNL     1      -6.093   1.561  25.626  0.00  0.00    +0.252 C 
ATOM      2  O   UNL     1      -5.929   1.951  24.918  0.00  0.00    -0.471 OA
ENDBRANCH   3   2
ENDBRANCH   7   6
ENDBRANCH   8   7
ENDBRANCH   9   8
ENDBRANCH  12  10
TORSDOF 10
ENDMDL
MODEL 3
REMARK VINA RESULT:     -11.2      2.549      5.942
REMARK  Name = 
REMARK  10 active torsions:
REMARK  status: ('A' for Active; 'I' for Inactive)
REMARK    1  A    between atoms: O_2  and  C_3
REMARK    2  A    between atoms: C_6  and  C_7
REMARK    3  A    between atoms: C_7  and  C_8
REMARK    4  A    between atoms: C_8  and  N_9
REMARK    5  A    between atoms: C_8  and  C_35
REMARK    6  A    between atoms: C_10  and  C_12
REMARK    7  A    between atoms: C_14  and  N_15
REMARK    8  A    between atoms: N_18  and  C_19
REMARK    9  A    between atoms: C_22  and  O_23
REMARK   10  A    between atoms: O_23  and  C_24
REMARK                            x       y       z     vdW  Elec       q    Type
REMARK                         _______ _______ _______ _____ _____    ______ ____
ROOT
ATOM     12  C   UNL     1      -0.321  -0.505  24.305  0.00  0.00    +0.033 C 
ATOM     13  C   UNL     1      -0.198   0.233  24.653  0.00  0.00    -0.002 C 
ATOM     14  C   UNL     1       0.319   0.773  24.303  0.00  0.00    +0.152 C 
ATOM     30  C   UNL     1       0.712   0.574  23.605  0.00  0.00    +0.206 C 
ATOM     31  O   UNL     1       1.228   1.114  23.256  0.00  0.00    -0.218 OA
ATOM     32  C   UNL     1       0.588  -0.163  23.257  0.00  0.00    +0.189 C 
ATOM     33  O   UNL     1       0.980  -0.361  22.560  0.00  0.00    -0.220 OA
ATOM     34  C   UNL     1       0.072  -0.702  23.607  0.00  0.00    +0.066 C 
ENDROOT
BRANCH  14  15
ATOM     15  N   UNL     1       0.443   1.510  24.651  0.00  0.00    -0.181 NA
ATOM     16  C   UNL     1      -0.198   2.003  24.812  0.00  0.00    +0.344 C 
ATOM     17  O   UNL     1      -0.963   1.759  24.624  0.00  0.00    -0.249 OA
ATOM     18  N   UNL     1      -0.074   2.741  25.160  0.00  0.00    -0.161 NA
BRANCH  18  19
ATOM     19  C   UNL     1      -0.715   3.234  25.320  0.00  0.00    +0.075 A 
ATOM     20  C   UNL     1      -0.870   3.880  24.832  0.00  0.00    +0.020 A 
ATOM     21  C   UNL     1      -1.513   4.374  24.992  0.00  0.00    +0.039 A 
ATOM     22  C   UNL     1      -1.999   4.221  25.642  0.00  0.00    +0.147 A 
ATOM     28  C   UNL     1      -1.843   3.574  26.130  0.00  0.00    +0.039 A 
ATOM     29  C   UNL     1      -1.201   3.081  25.969  0.00  0.00    +0.020 A 
BRANCH  22  23
ATOM     23  O   UNL     1      -2.640   4.714  25.802  0.00  0.00    -0.404 OA
BRANCH  23  24
ATOM     24  C   UNL     1      -3.391   4.392  25.917  0.00  0.00    +0.575 C 
ATOM     25  F   UNL     1      -4.141   4.070  26.032  0.00  0.00    -0.133 F 
ATOM     26  F   UNL     1      -3.288   4.445  26.734  0.00  0.00    -0.133 F 
ATOM     27  F   UNL     1      -3.493   4.339  25.100  0.00  0.00    -0.133 F 
ENDBRANCH  23  24
ENDBRANCH  22  23
ENDBRANCH  18  19
ENDBRANCH  14  15
BRANCH  12  10
ATOM      9  N   UNL     1      -1.613  -1.113  24.378  0.00  0.00    -0.194 NA
ATOM     10  C   UNL     1      -0.838  -1.044  24.655  0.00  0.00    +0.261 C 
ATOM     11  O   UNL     1      -0.581  -1.515  25.282  0.00  0.00    -0.269 OA
BRANCH   9   8
ATOM      8  C   UNL     1      -2.129  -1.653  24.729  0.00  0.00    +0.179 C 
BRANCH   8  35
ATOM     35  C   UNL     1      -2.113  -2.446  24.504  0.00  0.00    +0.281 C 
ATOM     36  N   UNL     1      -2.143  -3.038  25.078  0.00  0.00    -0.086 NA
ATOM     37  O   UNL     1      -2.066  -2.648  23.705  0.00  0.00    -0.270 OA
ENDBRANCH   8  35
BRANCH   8   7
ATOM      7  C   UNL     1      -2.662  -1.398  25.305  0.00  0.00    +0.057 C 
BRANCH   7   6
ATOM      3  C   UNL     1      -4.497   0.149  24.700  0.00  0.00    +0.139 A 
ATOM      4  C   UNL     1      -4.005   0.322  25.338  0.00  0.00    +0.037 A 
ATOM      5  C   UNL     1      -3.393  -0.193  25.540  0.00  0.00    -0.001 A 
ATOM      6  C   UNL     1      -3.274  -0.883  25.103  0.00  0.00    -0.020 A 
ATOM     38  C   UNL     1      -3.766  -1.057  24.465  0.00  0.00    -0.001 A 
ATOM     39  C   UNL     1      -4.378  -0.541  24.263  0.00  0.00    +0.037 A 
BRANCH   3   2
ATOM      1  C   UNL     1      -5.249   1.337  24.955  0.00  0.00    +0.252 C 
ATOM      2  O   UNL     1      -5.109   0.665  24.498  0.00  0.00    -0.471 OA
ENDBRANCH   3   2
ENDBRANCH   7   6
ENDBRANCH   8   7
ENDBRANCH   9   8
ENDBRANCH  12  10
TORSDOF 10
ENDMDL
MODEL 4
REMARK VINA RESULT:     -11.2      2.349      4.560
REMARK  Name = 
REMARK  10 active torsions:
REMARK  status: ('A' for Active; 'I' for Inactive)
REMARK    1  A    between atoms: O_2  and  C_3
REMARK    2  A    between atoms: C_6  and  C_7
REMARK    3  A    between atoms: C_7  and  C_8
REMARK    4  A    between atoms: C_8  and  N_9
REMARK    5  A    between atoms: C_8  and  C_35
REMARK    6  A    between atoms: C_10  and  C_12
REMARK    7  A    between atoms: C_14  and  N_15
REMARK    8  A    between atoms: N_18  and  C_19
REMARK    9  A    between atoms: C_22  and  O_23
REMARK   10  A    between atoms: O_23  and  C_24
REMARK                            x       y       z     vdW  Elec       q    Type
REMARK                         _______ _______ _______ _____ _____    ______ ____
ROOT
ATOM     12  C   UNL     1      -1.749  -1.099  24.544  0.00  0.00    +0.033 C 
ATOM     13  C   UNL     1      -2.446  -0.703  24.349  0.00  0.00    -0.002 C 
ATOM     14  C   UNL     1      -3.168  -1.102  24.378  0.00  0.00    +0.152 C 
ATOM     30  C   UNL     1      -3.193  -1.895  24.602  0.00  0.00    +0.206 C 
ATOM     31  O   UNL     1      -3.915  -2.292  24.631  0.00  0.00    -0.218 OA
ATOM     32  C   UNL     1      -2.496  -2.291  24.798  0.00  0.00    +0.189 C 
ATOM     33  O   UNL     1      -2.521  -3.083  25.022  0.00  0.00    -0.220 OA
ATOM     34  C   UNL     1      -1.774  -1.893  24.769  0.00  0.00    +0.066 C 
ENDROOT
BRANCH  14  15
ATOM     15  N   UNL     1      -3.865  -0.707  24.183  0.00  0.00    -0.181 NA
ATOM     16  C   UNL     1      -4.026   0.032  24.512  0.00  0.00    +0.344 C 
ATOM     17  O   UNL     1      -3.490   0.375  25.036  0.00  0.00    -0.249 OA
ATOM     18  N   UNL     1      -4.724   0.428  24.316  0.00  0.00    -0.161 NA
BRANCH  18  19
ATOM     19  C   UNL     1      -4.884   1.167  24.645  0.00  0.00    +0.075 A 
ATOM     20  C   UNL     1      -4.574   1.848  24.300  0.00  0.00    +0.020 A 
ATOM     21  C   UNL     1      -4.735   2.588  24.629  0.00  0.00    +0.039 A 
ATOM     22  C   UNL     1      -5.206   2.646  25.304  0.00  0.00    +0.147 A 
ATOM     28  C   UNL     1      -5.517   1.964  25.650  0.00  0.00    +0.039 A 
ATOM     29  C   UNL     1      -5.355   1.225  25.320  0.00  0.00    +0.020 A 
BRANCH  22  23
ATOM     23  O   UNL     1      -5.367   3.385  25.633  0.00  0.00    -0.404 OA
BRANCH  23  24
ATOM     24  C   UNL     1      -4.748   3.862  25.899  0.00  0.00    +0.575 C 
ATOM     25  F   UNL     1      -4.130   4.338  26.165  0.00  0.00    -0.133 F 
ATOM     26  F   UNL     1      -4.772   4.287  25.193  0.00  0.00    -0.133 F 
ATOM     27  F   UNL     1      -4.725   3.436  26.606  0.00  0.00    -0.133 F 
ENDBRANCH  23  24
ENDBRANCH  22  23
ENDBRANCH  18  19
ENDBRANCH  14  15
BRANCH  12  10
ATOM      9  N   UNL     1      -0.991   0.066  24.212  0.00  0.00    -0.194 NA
ATOM     10  C   UNL     1      -1.027  -0.701  24.516  0.00  0.00    +0.261 C 
ATOM     11  O   UNL     1      -0.341  -1.069  24.790  0.00  0.00    -0.269 OA
BRANCH   9   8
ATOM      8  C   UNL     1      -0.268   0.464  24.183  0.00  0.00    +0.179 C 
BRANCH   8  35
ATOM     35  C   UNL     1       0.221   0.384  23.525  0.00  0.00    +0.281 C 
ATOM     36  N   UNL     1       1.022   0.207  23.624  0.00  0.00    -0.086 NA
ATOM     37  O   UNL     1      -0.088   0.481  22.766  0.00  0.00    -0.270 OA
ENDBRANCH   8  35
BRANCH   8   7
ATOM      7  C   UNL     1      -0.036   0.942  24.814  0.00  0.00    +0.057 C 
BRANCH   7   6
ATOM      3  C   UNL     1      -1.066   3.170  25.128  0.00  0.00    +0.139 A 
ATOM      4  C   UNL     1      -0.975   2.664  25.771  0.00  0.00    +0.037 A 
ATOM      5  C   UNL     1      -0.632   1.921  25.668  0.00  0.00    -0.001 A 
ATOM      6  C   UNL     1      -0.379   1.685  24.918  0.00  0.00    -0.020 A 
ATOM     38  C   UNL     1      -0.470   2.191  24.274  0.00  0.00    -0.001 A 
ATOM     39  C   UNL     1      -0.813   2.935  24.379  0.00  0.00    +0.037 A 
BRANCH   3   2
ATOM      1  C   UNL     1      -0.991   4.594  25.027  0.00  0.00    +0.252 C 
ATOM      2  O   UNL     1      -1.410   3.913  25.232  0.00  0.00    -0.471 OA
ENDBRANCH   3   2
ENDBRANCH   7   6
ENDBRANCH   8   7
ENDBRANCH   9   8
ENDBRANCH  12  10
TORSDOF 10
ENDMDL
MODEL 5
REMARK VINA RESULT:     -11.2      2.362      5.023
REMARK  Name = 
REMARK  10 active torsions:
REMARK  status: ('A' for Active; 'I' for Inactive)
REMARK    1  A    between atoms: O_2  and  C_3
REMARK    2  A    between atoms: C_6  and  C_7
REMARK    3  A    between atoms: C_7  and  C_8
REMARK    4  A    between atoms: C_8  and  N_9
REMARK    5  A    between atoms: C_8  and  C_35
REMARK    6  A    between atoms: C_10  and  C_12
REMARK    7  A    between atoms: C_14  and  N_15
REMARK    8  A    between atoms: N_18  and  C_19
REMARK    9  A    between atoms: C_22  and  O_23
REMARK   10  A    between atoms: O_23  and  C_24
REMARK                            x       y       z     vdW  Elec       q    Type
REMARK                         _______ _______ _______ _____ _____    ______ ____
ROOT
ATOM     12  C   UNL     1      -0.692   1.264  24.907  0.00  0.00    +0.033 C 
ATOM     13  C   UNL     1      -1.359   1.655  24.621  0.00  0.00    -0.002 C 
ATOM     14  C   UNL     1      -1.288   2.413  24.301  0.00  0.00    +0.152 C 
ATOM     30  C   UNL     1      -0.549   2.778  24.267  0.00  0.00    +0.206 C 
ATOM     31  O   UNL     1      -0.478   3.535  23.947  0.00  0.00    -0.218 OA
ATOM     32  C   UNL     1       0.118   2.386  24.553  0.00  0.00    +0.189 C 
ATOM     33  O   UNL     1       0.856   2.752  24.519  0.00  0.00    -0.220 OA
ATOM     34  C   UNL     1       0.047   1.630  24.873  0.00  0.00    +0.066 C 
ENDROOT
BRANCH  14  15
ATOM     15  N   UNL     1      -1.955   2.804  24.015  0.00  0.00    -0.181 NA
ATOM     16  C   UNL     1      -2.676   2.732  24.408  0.00  0.00    +0.344 C 
ATOM     17  O   UNL     1      -2.730   2.267  25.088  0.00  0.00    -0.249 OA
ATOM     18  N   UNL     1      -3.344   3.123  24.122  0.00  0.00    -0.161 NA
BRANCH  18  19
ATOM     19  C   UNL     1      -4.064   3.050  24.516  0.00  0.00    +0.075 A 
ATOM     20  C   UNL     1      -4.260   3.577  25.120  0.00  0.00    +0.020 A 
ATOM     21  C   UNL     1      -4.982   3.504  25.514  0.00  0.00    +0.039 A 
ATOM     22  C   UNL     1      -5.508   2.904  25.304  0.00  0.00    +0.147 A 
ATOM     28  C   UNL     1      -5.313   2.377  24.699  0.00  0.00    +0.039 A 
ATOM     29  C   UNL     1      -4.591   2.451  24.306  0.00  0.00    +0.020 A 
BRANCH  22  23
ATOM     23  O   UNL     1      -6.229   2.831  25.698  0.00  0.00    -0.404 OA
BRANCH  23  24
ATOM     24  C   UNL     1      -6.377   2.170  26.169  0.00  0.00    +0.575 C 
ATOM     25  F   UNL     1      -6.526   1.510  26.640  0.00  0.00    -0.133 F 
ATOM     26  F   UNL     1      -6.003   2.540  26.805  0.00  0.00    -0.133 F 
ATOM     27  F   UNL     1      -6.751   1.801  25.533  0.00  0.00    -0.133 F 
ENDBRANCH  23  24
ENDBRANCH  22  23
ENDBRANCH  18  19
ENDBRANCH  14  15
BRANCH  12  10
ATOM      9  N   UNL     1      -1.061  -0.110  24.764  0.00  0.00    -0.194 NA
ATOM     10  C   UNL     1      -0.764   0.507  25.226  0.00  0.00    +0.261 C 
ATOM     11  O   UNL     1      -0.538   0.365  26.007  0.00  0.00    -0.269 OA
BRANCH   9   8
ATOM      8  C   UNL     1      -1.132  -0.867  25.085  0.00  0.00    +0.179 C 
BRANCH   8  35
ATOM     35  C   UNL     1      -0.535  -1.423  24.968  0.00  0.00    +0.281 C 
ATOM     36  N   UNL     1      -0.249  -1.862  25.606  0.00  0.00    -0.086 NA
ATOM     37  O   UNL     1      -0.222  -1.541  24.213  0.00  0.00    -0.270 OA
ENDBRANCH   8  35
BRANCH   8   7
ATOM      7  C   UNL     1      -1.802  -1.067  25.522  0.00  0.00    +0.057 C 
BRANCH   7   6
ATOM      3  C   UNL     1      -3.881  -1.750  24.366  0.00  0.00    +0.139 A 
ATOM      4  C   UNL     1      -3.880  -1.087  24.855  0.00  0.00    +0.037 A 
ATOM      5  C   UNL     1      -3.188  -0.859  25.241  0.00  0.00    -0.001 A 
ATOM      6  C   UNL     1      -2.495  -1.295  25.137  0.00  0.00    -0.020 A 
ATOM     38  C   UNL     1      -2.495  -1.958  24.647  0.00  0.00    -0.001 A 
ATOM     39  C   UNL     1      -3.189  -2.186  24.261  0.00  0.00    +0.037 A 
BRANCH   3   2
ATOM      1  C   UNL     1      -4.598  -2.686  23.558  0.00  0.00    +0.252 C 
ATOM      2  O   UNL     1      -4.574  -1.978  23.980  0.00  0.00    -0.471 OA
ENDBRANCH   3   2
ENDBRANCH   7   6
ENDBRANCH   8   7
ENDBRANCH   9   8
ENDBRANCH  12  10
TORSDOF 10
ENDMDL
MODEL 6
REMARK VINA RESULT:     -11.2      1.384      3.586
REMARK  Name = 
REMARK  10 active torsions:
REMARK  status: ('A' for Active; 'I' for Inactive)
REMARK    1  A    between atoms: O_2  and  C_3
REMARK    2  A    between atoms: C_6  and  C_7
REMARK    3  A    between atoms: C_7  and  C_8
REMARK    4  A    between atoms: C_8  and  N_9
REMARK    5  A    between atoms: C_8  and  C_35
REMARK    6  A    between atoms: C_10  and  C_12
REMARK    7  A    between atoms: C_14  and  N_15
REMARK    8  A    between atoms: N_18  and  C_19
REMARK    9  A    between atoms: C_22  and  O_23
REMARK   10  A    between atoms: O_23  and  C_24
REMARK                            x       y       z     vdW  Elec       q    Type
REMARK                         _______ _______ _______ _____ _____    ______ ____
ROOT
ATOM     12  C   UNL     1      -2.598   3.801  25.121  0.00  0.00    +0.033 C 
ATOM     13  C   UNL     1      -2.150   3.170  25.407  0.00  0.00    -0.002 C 
ATOM     14  C   UNL     1      -1.340   3.266  25.541  0.00  0.00    +0.152 C 
ATOM     30  C   UNL     1      -0.981   3.993  25.388  0.00  0.00    +0.206 C 
ATOM     31  O   UNL     1      -0.173   4.089  25.522  0.00  0.00    -0.218 OA
ATOM     32  C   UNL     1      -1.430   4.624  25.102  0.00  0.00    +0.189 C 
ATOM     33  O   UNL     1      -1.071   5.350  24.950  0.00  0.00    -0.220 OA
ATOM     34  C   UNL     1      -2.238   4.528  24.969  0.00  0.00    +0.066 C 
ENDROOT
BRANCH  14  15
ATOM     15  N   UNL     1      -0.892   2.637  25.826  0.00  0.00    -0.181 NA
ATOM     16  C   UNL     1      -0.940   1.898  25.463  0.00  0.00    +0.344 C 
ATOM     17  O   UNL     1      -1.437   1.790  24.813  0.00  0.00    -0.249 OA
ATOM     18  N   UNL     1      -0.491   1.267  25.748  0.00  0.00    -0.161 NA
BRANCH  18  19
ATOM     19  C   UNL     1      -0.540   0.529  25.385  0.00  0.00    +0.075 A 
ATOM     20  C   UNL     1      -0.194   0.410  24.645  0.00  0.00    +0.020 A 
ATOM     21  C   UNL     1      -0.243  -0.329  24.280  0.00  0.00    +0.039 A 
ATOM     22  C   UNL     1      -0.636  -0.950  24.656  0.00  0.00    +0.147 A 
ATOM     28  C   UNL     1      -0.982  -0.831  25.396  0.00  0.00    +0.039 A 
ATOM     29  C   UNL     1      -0.933  -0.092  25.760  0.00  0.00    +0.020 A 
BRANCH  22  23
ATOM     23  O   UNL     1      -0.684  -1.688  24.292  0.00  0.00    -0.404 OA
BRANCH  23  24
ATOM     24  C   UNL     1      -1.272  -2.222  24.516  0.00  0.00    +0.575 C 
ATOM     25  F   UNL     1      -1.859  -2.756  24.741  0.00  0.00    -0.133 F 
ATOM     26  F   UNL     1      -0.780  -2.513  25.112  0.00  0.00    -0.133 F 
ATOM     27  F   UNL     1      -1.763  -1.932  23.921  0.00  0.00    -0.133 F 
ENDBRANCH  23  24
ENDBRANCH  22  23
ENDBRANCH  18  19
ENDBRANCH  14  15
BRANCH  12  10
ATOM      9  N   UNL     1      -3.817   3.096  25.365  0.00  0.00    -0.194 NA
ATOM     10  C   UNL     1      -3.406   3.705  24.988  0.00  0.00    +0.261 C 
ATOM     11  O   UNL     1      -3.805   4.216  24.477  0.00  0.00    -0.269 OA
BRANCH   9   8
ATOM      8  C   UNL     1      -4.626   3.000  25.231  0.00  0.00    +0.179 C 
BRANCH   8  35
ATOM     35  C   UNL     1      -5.173   3.388  25.711  0.00  0.00    +0.281 C 
ATOM     36  N   UNL     1      -5.777   3.835  25.369  0.00  0.00    -0.086 NA
ATOM     37  O   UNL     1      -5.117   3.331  26.532  0.00  0.00    -0.270 OA
ENDBRANCH   8  35
BRANCH   8   7
ATOM      7  C   UNL     1      -4.887   2.515  24.617  0.00  0.00    +0.057 C 
BRANCH   7   6
ATOM      3  C   UNL     1      -4.508   0.072  24.719  0.00  0.00    +0.139 A 
ATOM      4  C   UNL     1      -4.228   0.506  24.078  0.00  0.00    +0.037 A 
ATOM      5  C   UNL     1      -4.353   1.320  24.043  0.00  0.00    -0.001 A 
ATOM      6  C   UNL     1      -4.761   1.701  24.652  0.00  0.00    -0.020 A 
ATOM     38  C   UNL     1      -5.042   1.267  25.294  0.00  0.00    -0.001 A 
ATOM     39  C   UNL     1      -4.916   0.452  25.328  0.00  0.00    +0.037 A 
BRANCH   3   2
ATOM      1  C   UNL     1      -4.574  -1.218  24.107  0.00  0.00    +0.252 C 
ATOM      2  O   UNL     1      -4.382  -0.743  24.754  0.00  0.00    -0.471 OA
ENDBRANCH   3   2
ENDBRANCH   7   6
ENDBRANCH   8   7
ENDBRANCH   9   8
ENDBRANCH  12  10
TORSDOF 10
ENDMDL
MODEL 7
REMARK VINA RESULT:     -11.1      1.694      4.100
REMARK  Name = 
REMARK  10 active torsions:
REMARK  status: ('A' for Active; 'I' for Inactive)
REMARK    1  A    between atoms: O_2  and  C_3
REMARK    2  A    between atoms: C_6  and  C_7
REMARK    3  A    between atoms: C_7  and  C_8
REMARK    4  A    between atoms: C_8  and  N_9
REMARK    5  A    between atoms: C_8  and  C_35
REMARK    6  A    between atoms: C_10  and  C_12
REMARK    7  A    between atoms: C_14  and  N_15
REMARK    8  A    between atoms: N_18  and  C_19
REMARK    9  A    between atoms: C_22  and  O_23
REMARK   10  A    between atoms: O_23  and  C_24
REMARK                            x       y       z     vdW  Elec       q    Type
REMARK                         _______ _______ _______ _____ _____    ______ ____
ROOT
ATOM     12  C   UNL     1      -3.135   3.086  24.908  0.00  0.00    +0.033 C 
ATOM     13  C   UNL     1      -2.449   2.653  25.060  0.00  0.00    -0.002 C 
ATOM     14  C   UNL     1      -1.748   3.044  25.250  0.00  0.00    +0.152 C 
ATOM     30  C   UNL     1      -1.733   3.868  25.288  0.00  0.00    +0.206 C 
ATOM     31  O   UNL     1      -1.032   4.259  25.478  0.00  0.00    -0.218 OA
ATOM     32  C   UNL     1      -2.418   4.301  25.135  0.00  0.00    +0.189 C 
ATOM     33  O   UNL     1      -2.403   5.124  25.173  0.00  0.00    -0.220 OA
ATOM     34  C   UNL     1      -3.119   3.910  24.945  0.00  0.00    +0.066 C 
ENDROOT
BRANCH  14  15
ATOM     15  N   UNL     1      -1.063   2.612  25.403  0.00  0.00    -0.181 NA
ATOM     16  C   UNL     1      -0.782   2.074  24.845  0.00  0.00    +0.344 C 
ATOM     17  O   UNL     1      -1.187   1.969  24.134  0.00  0.00    -0.249 OA
ATOM     18  N   UNL     1      -0.096   1.641  24.997  0.00  0.00    -0.161 NA
BRANCH  18  19
ATOM     19  C   UNL     1       0.184   1.103  24.439  0.00  0.00    +0.075 A 
ATOM     20  C   UNL     1      -0.132   0.342  24.404  0.00  0.00    +0.020 A 
ATOM     21  C   UNL     1       0.149  -0.197  23.845  0.00  0.00    +0.039 A 
ATOM     22  C   UNL     1       0.746   0.026  23.321  0.00  0.00    +0.147 A 
ATOM     28  C   UNL     1       1.063   0.788  23.355  0.00  0.00    +0.039 A 
ATOM     29  C   UNL     1       0.781   1.326  23.914  0.00  0.00    +0.020 A 
BRANCH  22  23
ATOM     23  O   UNL     1       1.026  -0.512  22.762  0.00  0.00    -0.404 OA
BRANCH  23  24
ATOM     24  C   UNL     1       1.586  -0.276  22.205  0.00  0.00    +0.575 C 
ATOM     25  F   UNL     1       2.146  -0.039  21.647  0.00  0.00    -0.133 F 
ATOM     26  F   UNL     1       2.188  -0.399  22.756  0.00  0.00    -0.133 F 
ATOM     27  F   UNL     1       0.985  -0.152  21.653  0.00  0.00    -0.133 F 
ENDBRANCH  23  24
ENDBRANCH  22  23
ENDBRANCH  18  19
ENDBRANCH  14  15
BRANCH  12  10
ATOM      9  N   UNL     1      -4.052   2.013  25.130  0.00  0.00    -0.194 NA
ATOM     10  C   UNL     1      -3.836   2.695  24.718  0.00  0.00    +0.261 C 
ATOM     11  O   UNL     1      -4.321   2.984  24.117  0.00  0.00    -0.269 OA
BRANCH   9   8
ATOM      8  C   UNL     1      -4.754   1.621  24.940  0.00  0.00    +0.179 C 
BRANCH   8  35
ATOM     35  C   UNL     1      -5.463   1.852  25.291  0.00  0.00    +0.281 C 
ATOM     36  N   UNL     1      -6.148   1.915  24.833  0.00  0.00    -0.086 NA
ATOM     37  O   UNL     1      -5.490   2.020  26.098  0.00  0.00    -0.270 OA
ENDBRANCH   8  35
BRANCH   8   7
ATOM      7  C   UNL     1      -4.744   0.999  24.399  0.00  0.00    +0.057 C 
BRANCH   7   6
ATOM      3  C   UNL     1      -3.580  -1.112  24.955  0.00  0.00    +0.139 A 
ATOM      4  C   UNL     1      -3.570  -0.828  24.182  0.00  0.00    +0.037 A 
ATOM      5  C   UNL     1      -3.958  -0.124  23.996  0.00  0.00    -0.001 A 
ATOM      6  C   UNL     1      -4.356   0.295  24.585  0.00  0.00    -0.020 A 
ATOM     38  C   UNL     1      -4.366   0.011  25.358  0.00  0.00    -0.001 A 
ATOM     39  C   UNL     1      -3.978  -0.693  25.544  0.00  0.00    +0.037 A 
BRANCH   3   2
ATOM      1  C   UNL     1      -3.490  -2.536  24.870  0.00  0.00    +0.252 C 
ATOM      2  O   UNL     1      -3.192  -1.817  25.141  0.00  0.00    -0.471 OA
ENDBRANCH   3   2
ENDBRANCH   7   6
ENDBRANCH   8   7
ENDBRANCH   9   8
ENDBRANCH  12  10
TORSDOF 10
ENDMDL
