REMARK  Name = 
REMARK  4 active torsions:
REMARK  status: ('A' for Active; 'I' for Inactive)
REMARK    1  A    between atoms: C_5  and  N_6
REMARK    2  A    between atoms: C_14  and  O_16
REMARK    3  A    between atoms: O_16  and  C_17
REMARK    4  A    between atoms: C_20  and  C_23
REMARK                            x       y       z     vdW  Elec       q    Type
REMARK                         _______ _______ _______ _____ _____    ______ ____
ROOT
ATOM      6  N   UNL     1      -0.694  -4.821   0.000  0.00  0.00    -0.160 NA
ATOM      7  C   UNL     1      -1.409  -5.233   0.000  0.00  0.00    +0.328 C 
ATOM      8  O   UNL     1      -2.123  -4.821   0.000  0.00  0.00    -0.250 OA
ATOM      9  N   UNL     1      -1.409  -6.058   0.000  0.00  0.00    -0.256 N 
ATOM     10  C   UNL     1      -0.665  -6.416   0.000  0.00  0.00    +0.127 C 
ATOM     11  C   UNL     1      -0.482  -7.220   0.000  0.00  0.00    +0.164 C 
ATOM     12  O   UNL     1      -0.996  -7.865   0.000  0.00  0.00    -0.348 OA
ATOM     13  C   UNL     1      -1.821  -7.865   0.000  0.00  0.00    +0.187 C 
ATOM     14  C   UNL     1      -2.335  -7.220   0.000  0.00  0.00    +0.217 C 
ATOM     15  C   UNL     1      -2.152  -6.416   0.000  0.00  0.00    +0.141 C 
ENDROOT
BRANCH   6   5
ATOM      1  F   UNL     1      -0.694  -1.520   0.000  0.00  0.00    -0.204 F 
ATOM      2  C   UNL     1      -0.694  -2.345   0.000  0.00  0.00    +0.142 A 
ATOM      3  C   UNL     1       0.020  -2.758   0.000  0.00  0.00    +0.031 A 
ATOM      4  C   UNL     1       0.020  -3.583   0.000  0.00  0.00    +0.021 A 
ATOM      5  C   UNL     1      -0.694  -3.995   0.000  0.00  0.00    +0.102 A 
ATOM     27  C   UNL     1      -1.409  -3.583   0.000  0.00  0.00    +0.158 A 
ATOM     28  F   UNL     1      -2.123  -3.995   0.000  0.00  0.00    -0.203 F 
ATOM     29  C   UNL     1      -1.409  -2.758   0.000  0.00  0.00    +0.061 A 
ENDBRANCH   6   5
BRANCH  14  16
ATOM     16  O   UNL     1      -3.140  -7.404   0.000  0.00  0.00    -0.460 OA
BRANCH  16  17
ATOM     17  C   UNL     1      -3.701  -6.799   0.000  0.00  0.00    +0.225 A 
ATOM     18  C   UNL     1      -4.505  -6.983   0.000  0.00  0.00    +0.058 A 
ATOM     19  C   UNL     1      -5.066  -6.378   0.000  0.00  0.00    +0.010 A 
ATOM     20  C   UNL     1      -4.823  -5.590   0.000  0.00  0.00    +0.091 A 
ATOM     21  C   UNL     1      -4.019  -5.406   0.000  0.00  0.00    +0.106 A 
ATOM     22  N   UNL     1      -3.458  -6.011   0.000  0.00  0.00    -0.210 NA
BRANCH  20  23
ATOM     23  C   UNL     1      -5.384  -4.985   0.000  0.00  0.00    +0.420 C 
ATOM     24  F   UNL     1      -5.946  -4.380   0.000  0.00  0.00    -0.166 F 
ATOM     25  F   UNL     1      -4.779  -4.424   0.000  0.00  0.00    -0.166 F 
ATOM     26  F   UNL     1      -5.989  -5.546   0.000  0.00  0.00    -0.166 F 
ENDBRANCH  20  23
ENDBRANCH  16  17
ENDBRANCH  14  16
TORSDOF 4
