MODEL 1
REMARK VINA RESULT:     -12.2      0.000      0.000
REMARK  Name = 
REMARK  9 active torsions:
REMARK  status: ('A' for Active; 'I' for Inactive)
REMARK    1  A    between atoms: C_2  and  C_3
REMARK    2  A    between atoms: C_3  and  N_4
REMARK    3  A    between atoms: C_5  and  O_7
REMARK    4  A    between atoms: O_7  and  C_8
REMARK    5  A    between atoms: C_13  and  C_14
REMARK    6  A    between atoms: C_14  and  C_15
REMARK    7  A    between atoms: N_17  and  C_18
REMARK    8  A    between atoms: C_18  and  C_19
REMARK    9  A    between atoms: C_31  and  C_33
REMARK                            x       y       z     vdW  Elec       q    Type
REMARK                         _______ _______ _______ _____ _____    ______ ____
ROOT
ATOM      8  C   UNL     1      -2.626   3.407  24.788  0.00  0.00    +0.173 C 
ATOM      9  C   UNL     1      -2.795   2.701  24.395  0.00  0.00    +0.044 C 
ATOM     10  C   UNL     1      -2.188   2.163  24.235  0.00  0.00    +0.004 C 
ATOM     11  C   UNL     1      -1.415   2.333  24.468  0.00  0.00    +0.003 C 
ATOM     12  C   UNL     1      -1.584   1.627  24.075  0.00  0.00    +0.000 C 
ATOM     13  C   UNL     1      -0.810   1.796  24.308  0.00  0.00    +0.040 C 
ATOM     26  C   UNL     1      -0.036   1.964  24.540  0.00  0.00    +0.152 C 
ATOM     27  O   UNL     1       0.569   1.428  24.380  0.00  0.00    -0.223 OA
ATOM     28  C   UNL     1       0.132   2.671  24.932  0.00  0.00    +0.033 C 
ATOM     29  C   UNL     1      -0.474   3.208  25.092  0.00  0.00    +0.003 C 
ATOM     30  C   UNL     1      -1.247   3.038  24.860  0.00  0.00    +0.006 C 
ATOM     31  C   UNL     1      -1.853   3.576  25.020  0.00  0.00    +0.068 C 
ATOM     32  C   UNL     1      -1.330   4.099  25.386  0.00  0.00    +0.006 C 
ENDROOT
BRANCH  31  33
ATOM     33  C   UNL     1      -2.078   4.299  25.347  0.00  0.00    +0.185 C 
ATOM     34  O   UNL     1      -1.534   4.920  25.386  0.00  0.00    -0.220 OA
ENDBRANCH  31  33
BRANCH   8   7
ATOM      7  O   UNL     1      -3.231   3.944  24.948  0.00  0.00    -0.437 OA
BRANCH   7   5
ATOM      4  N   UNL     1      -4.487   3.455  25.423  0.00  0.00    -0.169 NA
ATOM      5  C   UNL     1      -4.017   3.734  24.806  0.00  0.00    +0.421 C 
ATOM      6  O   UNL     1      -4.331   3.802  24.047  0.00  0.00    -0.225 OA
BRANCH   4   3
ATOM      3  C   UNL     1      -5.273   3.245  25.282  0.00  0.00    +0.119 C 
BRANCH   3   2
ATOM      1  C   UNL     1      -6.089   2.216  25.841  0.00  0.00    +0.002 C 
ATOM      2  C   UNL     1      -5.742   2.961  25.897  0.00  0.00    +0.024 C 
ENDBRANCH   3   2
ENDBRANCH   4   3
ENDBRANCH   7   5
ENDBRANCH   8   7
BRANCH  13  14
ATOM     14  C   UNL     1      -0.977   1.089  23.915  0.00  0.00    +0.089 C 
BRANCH  14  15
ATOM     15  C   UNL     1      -0.846   0.367  24.292  0.00  0.00    +0.242 C 
ATOM     16  O   UNL     1      -0.101   0.190  24.597  0.00  0.00    -0.273 OA
ATOM     17  N   UNL     1      -1.462  -0.178  24.364  0.00  0.00    -0.201 NA
BRANCH  17  18
ATOM     18  C   UNL     1      -1.331  -0.900  24.741  0.00  0.00    +0.141 C 
BRANCH  18  19
ATOM     19  C   UNL     1      -1.944  -1.449  24.803  0.00  0.00    -0.000 A 
ATOM     20  C   UNL     1      -2.570  -1.310  25.322  0.00  0.00    -0.000 A 
ATOM     21  C   UNL     1      -3.184  -1.860  25.384  0.00  0.00    +0.029 A 
ATOM     22  C   UNL     1      -3.171  -2.545  24.928  0.00  0.00    +0.140 A 
ATOM     23  F   UNL     1      -3.783  -3.094  24.990  0.00  0.00    -0.204 F 
ATOM     24  C   UNL     1      -2.544  -2.684  24.408  0.00  0.00    +0.029 A 
ATOM     25  C   UNL     1      -1.931  -2.135  24.346  0.00  0.00    -0.000 A 
ENDBRANCH  18  19
ENDBRANCH  17  18
ENDBRANCH  14  15
ENDBRANCH  13  14
TORSDOF 9
ENDMDL
MODEL 2
REMARK VINA RESULT:     -12.0      1.498      3.507
REMARK  Name = 
REMARK  9 active torsions:
REMARK  status: ('A' for Active; 'I' for Inactive)
REMARK    1  A    between atoms: C_2  and  C_3
REMARK    2  A    between atoms: C_3  and  N_4
REMARK    3  A    between atoms: C_5  and  O_7
REMARK    4  A    between atoms: O_7  and  C_8
REMARK    5  A    between atoms: C_13  and  C_14
REMARK    6  A    between atoms: C_14  and  C_15
REMARK    7  A    between atoms: N_17  and  C_18
REMARK    8  A    between atoms: C_18  and  C_19
REMARK    9  A    between atoms: C_31  and  C_33
REMARK                            x       y       z     vdW  Elec       q    Type
REMARK                         _______ _______ _______ _____ _____    ______ ____
ROOT
ATOM      8  C   UNL     1      -1.848   3.298  24.790  0.00  0.00    +0.173 C 
ATOM      9  C   UNL     1      -2.089   2.684  24.295  0.00  0.00    +0.044 C 
ATOM     10  C   UNL     1      -2.878   2.440  24.294  0.00  0.00    +0.004 C 
ATOM     11  C   UNL     1      -3.425   2.812  24.789  0.00  0.00    +0.003 C 
ATOM     12  C   UNL     1      -3.666   2.197  24.293  0.00  0.00    +0.000 C 
ATOM     13  C   UNL     1      -4.213   2.568  24.788  0.00  0.00    +0.040 C 
ATOM     26  C   UNL     1      -4.760   2.939  25.282  0.00  0.00    +0.152 C 
ATOM     27  O   UNL     1      -5.547   2.695  25.281  0.00  0.00    -0.223 OA
ATOM     28  C   UNL     1      -4.518   3.553  25.777  0.00  0.00    +0.033 C 
ATOM     29  C   UNL     1      -3.730   3.797  25.778  0.00  0.00    +0.003 C 
ATOM     30  C   UNL     1      -3.184   3.425  25.283  0.00  0.00    +0.006 C 
ATOM     31  C   UNL     1      -2.394   3.669  25.284  0.00  0.00    +0.068 C 
ATOM     32  C   UNL     1      -2.544   4.246  25.855  0.00  0.00    +0.006 C 
ENDROOT
BRANCH  31  33
ATOM     33  C   UNL     1      -1.820   4.177  25.588  0.00  0.00    +0.185 C 
ATOM     34  O   UNL     1      -2.026   4.945  25.812  0.00  0.00    -0.220 OA
ENDBRANCH  31  33
BRANCH   8   7
ATOM      7  O   UNL     1      -1.060   3.542  24.791  0.00  0.00    -0.437 OA
BRANCH   7   5
ATOM      4  N   UNL     1      -0.087   2.523  24.552  0.00  0.00    -0.169 NA
ATOM      5  C   UNL     1      -0.515   3.177  24.290  0.00  0.00    +0.421 C 
ATOM      6  O   UNL     1      -0.400   3.466  23.526  0.00  0.00    -0.225 OA
BRANCH   4   3
ATOM      3  C   UNL     1       0.457   2.158  24.051  0.00  0.00    +0.119 C 
BRANCH   3   2
ATOM      1  C   UNL     1       0.863   0.811  23.804  0.00  0.00    +0.002 C 
ATOM      2  C   UNL     1       0.848   1.474  24.294  0.00  0.00    +0.024 C 
ENDBRANCH   3   2
ENDBRANCH   4   3
ENDBRANCH   7   5
ENDBRANCH   8   7
BRANCH  13  14
ATOM     14  C   UNL     1      -4.455   1.953  24.292  0.00  0.00    +0.089 C 
BRANCH  14  15
ATOM     15  C   UNL     1      -4.763   1.260  24.617  0.00  0.00    +0.242 C 
ATOM     16  O   UNL     1      -5.471   1.281  25.039  0.00  0.00    -0.273 OA
ATOM     17  N   UNL     1      -4.362   0.545  24.518  0.00  0.00    -0.201 NA
BRANCH  17  18
ATOM     18  C   UNL     1      -4.670  -0.148  24.843  0.00  0.00    +0.141 C 
BRANCH  18  19
ATOM     19  C   UNL     1      -4.255  -0.857  24.768  0.00  0.00    -0.000 A 
ATOM     20  C   UNL     1      -3.746  -1.102  25.370  0.00  0.00    -0.000 A 
ATOM     21  C   UNL     1      -3.331  -1.812  25.295  0.00  0.00    +0.029 A 
ATOM     22  C   UNL     1      -3.423  -2.275  24.620  0.00  0.00    +0.140 A 
ATOM     23  F   UNL     1      -3.009  -2.984  24.545  0.00  0.00    -0.204 F 
ATOM     24  C   UNL     1      -3.932  -2.029  24.018  0.00  0.00    +0.029 A 
ATOM     25  C   UNL     1      -4.348  -1.320  24.092  0.00  0.00    -0.000 A 
ENDBRANCH  18  19
ENDBRANCH  17  18
ENDBRANCH  14  15
ENDBRANCH  13  14
TORSDOF 9
ENDMDL
MODEL 3
REMARK VINA RESULT:     -11.9      1.470      4.476
REMARK  Name = 
REMARK  9 active torsions:
REMARK  status: ('A' for Active; 'I' for Inactive)
REMARK    1  A    between atoms: C_2  and  C_3
REMARK    2  A    between atoms: C_3  and  N_4
REMARK    3  A    between atoms: C_5  and  O_7
REMARK    4  A    between atoms: O_7  and  C_8
REMARK    5  A    between atoms: C_13  and  C_14
REMARK    6  A    between atoms: C_14  and  C_15
REMARK    7  A    between atoms: N_17  and  C_18
REMARK    8  A    between atoms: C_18  and  C_19
REMARK    9  A    between atoms: C_31  and  C_33
REMARK                            x       y       z     vdW  Elec       q    Type
REMARK                         _______ _______ _______ _____ _____    ______ ____
ROOT
ATOM      8  C   UNL     1      -0.555   0.098  24.673  0.00  0.00    +0.173 C 
ATOM      9  C   UNL     1      -1.065   0.326  25.280  0.00  0.00    +0.044 C 
ATOM     10  C   UNL     1      -1.186   1.128  25.438  0.00  0.00    +0.004 C 
ATOM     11  C   UNL     1      -0.796   1.700  24.989  0.00  0.00    +0.003 C 
ATOM     12  C   UNL     1      -1.306   1.928  25.596  0.00  0.00    +0.000 C 
ATOM     13  C   UNL     1      -0.916   2.500  25.147  0.00  0.00    +0.040 C 
ATOM     26  C   UNL     1      -0.527   3.073  24.698  0.00  0.00    +0.152 C 
ATOM     27  O   UNL     1      -0.647   3.873  24.856  0.00  0.00    -0.223 OA
ATOM     28  C   UNL     1      -0.017   2.844  24.091  0.00  0.00    +0.033 C 
ATOM     29  C   UNL     1       0.104   2.043  23.933  0.00  0.00    +0.003 C 
ATOM     30  C   UNL     1      -0.286   1.471  24.382  0.00  0.00    +0.006 C 
ATOM     31  C   UNL     1      -0.165   0.670  24.224  0.00  0.00    +0.068 C 
ATOM     32  C   UNL     1       0.358   0.841  23.609  0.00  0.00    +0.006 C 
ENDROOT
BRANCH  31  33
ATOM     33  C   UNL     1       0.213   0.097  23.767  0.00  0.00    +0.185 C 
ATOM     34  O   UNL     1       0.758   0.324  23.190  0.00  0.00    -0.220 OA
ENDBRANCH  31  33
BRANCH   8   7
ATOM      7  O   UNL     1      -0.434  -0.703  24.515  0.00  0.00    -0.437 OA
BRANCH   7   5
ATOM      4  N   UNL     1      -1.525  -1.625  24.491  0.00  0.00    -0.169 NA
ATOM      5  C   UNL     1      -0.898  -1.271  24.892  0.00  0.00    +0.421 C 
ATOM      6  O   UNL     1      -0.733  -1.486  25.672  0.00  0.00    -0.225 OA
BRANCH   4   3
ATOM      3  C   UNL     1      -1.989  -2.194  24.869  0.00  0.00    +0.119 C 
BRANCH   3   2
ATOM      1  C   UNL     1      -3.346  -2.603  24.694  0.00  0.00    +0.002 C 
ATOM      2  C   UNL     1      -2.560  -2.609  24.444  0.00  0.00    +0.024 C 
ENDBRANCH   3   2
ENDBRANCH   4   3
ENDBRANCH   7   5
ENDBRANCH   8   7
BRANCH  13  14
ATOM     14  C   UNL     1      -1.427   2.729  25.754  0.00  0.00    +0.089 C 
BRANCH  14  15
ATOM     15  C   UNL     1      -2.066   3.224  25.590  0.00  0.00    +0.242 C 
ATOM     16  O   UNL     1      -1.949   4.036  25.504  0.00  0.00    -0.273 OA
ATOM     17  N   UNL     1      -2.824   2.905  25.510  0.00  0.00    -0.201 NA
BRANCH  17  18
ATOM     18  C   UNL     1      -3.463   3.400  25.346  0.00  0.00    +0.141 C 
BRANCH  18  19
ATOM     19  C   UNL     1      -4.220   3.082  25.270  0.00  0.00    -0.000 A 
ATOM     20  C   UNL     1      -4.413   2.630  24.606  0.00  0.00    -0.000 A 
ATOM     21  C   UNL     1      -5.170   2.311  24.529  0.00  0.00    +0.029 A 
ATOM     22  C   UNL     1      -5.735   2.444  25.115  0.00  0.00    +0.140 A 
ATOM     23  F   UNL     1      -6.492   2.126  25.038  0.00  0.00    -0.204 F 
ATOM     24  C   UNL     1      -5.543   2.896  25.779  0.00  0.00    +0.029 A 
ATOM     25  C   UNL     1      -4.785   3.215  25.855  0.00  0.00    -0.000 A 
ENDBRANCH  18  19
ENDBRANCH  17  18
ENDBRANCH  14  15
ENDBRANCH  13  14
TORSDOF 9
ENDMDL
MODEL 4
REMARK VINA RESULT:     -11.8      2.013      3.558
REMARK  Name = 
REMARK  9 active torsions:
REMARK  status: ('A' for Active; 'I' for Inactive)
REMARK    1  A    between atoms: C_2  and  C_3
REMARK    2  A    between atoms: C_3  and  N_4
REMARK    3  A    between atoms: C_5  and  O_7
REMARK    4  A    between atoms: O_7  and  C_8
REMARK    5  A    between atoms: C_13  and  C_14
REMARK    6  A    between atoms: C_14  and  C_15
REMARK    7  A    between atoms: N_17  and  C_18
REMARK    8  A    between atoms: C_18  and  C_19
REMARK    9  A    between atoms: C_31  and  C_33
REMARK                            x       y       z     vdW  Elec       q    Type
REMARK                         _______ _______ _______ _____ _____    ______ ____
ROOT
ATOM      8  C   UNL     1      -3.906   3.533  25.402  0.00  0.00    +0.173 C 
ATOM      9  C   UNL     1      -3.412   2.936  25.118  0.00  0.00    +0.044 C 
ATOM     10  C   UNL     1      -3.730   2.205  24.901  0.00  0.00    +0.004 C 
ATOM     11  C   UNL     1      -4.542   2.074  24.968  0.00  0.00    +0.003 C 
ATOM     12  C   UNL     1      -4.048   1.477  24.684  0.00  0.00    +0.000 C 
ATOM     13  C   UNL     1      -4.860   1.344  24.751  0.00  0.00    +0.040 C 
ATOM     26  C   UNL     1      -5.672   1.211  24.818  0.00  0.00    +0.152 C 
ATOM     27  O   UNL     1      -5.989   0.482  24.601  0.00  0.00    -0.223 OA
ATOM     28  C   UNL     1      -6.165   1.809  25.102  0.00  0.00    +0.033 C 
ATOM     29  C   UNL     1      -5.847   2.538  25.319  0.00  0.00    +0.003 C 
ATOM     30  C   UNL     1      -5.035   2.670  25.252  0.00  0.00    +0.006 C 
ATOM     31  C   UNL     1      -4.717   3.401  25.469  0.00  0.00    +0.068 C 
ATOM     32  C   UNL     1      -5.459   3.694  25.679  0.00  0.00    +0.006 C 
ENDROOT
BRANCH  31  33
ATOM     33  C   UNL     1      -4.847   4.161  25.760  0.00  0.00    +0.185 C 
ATOM     34  O   UNL     1      -5.614   4.465  25.789  0.00  0.00    -0.220 OA
ENDBRANCH  31  33
BRANCH   8   7
ATOM      7  O   UNL     1      -3.587   4.262  25.619  0.00  0.00    -0.437 OA
BRANCH   7   5
ATOM      4  N   UNL     1      -2.304   4.744  25.215  0.00  0.00    -0.169 NA
ATOM      5  C   UNL     1      -2.776   4.335  25.752  0.00  0.00    +0.421 C 
ATOM      6  O   UNL     1      -2.437   3.997  26.424  0.00  0.00    -0.225 OA
BRANCH   4   3
ATOM      3  C   UNL     1      -1.493   4.817  25.348  0.00  0.00    +0.119 C 
BRANCH   3   2
ATOM      1  C   UNL     1      -0.384   5.012  24.470  0.00  0.00    +0.002 C 
ATOM      2  C   UNL     1      -1.039   5.312  24.871  0.00  0.00    +0.024 C 
ENDBRANCH   3   2
ENDBRANCH   4   3
ENDBRANCH   7   5
ENDBRANCH   8   7
BRANCH  13  14
ATOM     14  C   UNL     1      -4.367   0.746  24.467  0.00  0.00    +0.089 C 
BRANCH  14  15
ATOM     15  C   UNL     1      -4.271   0.051  24.900  0.00  0.00    +0.242 C 
ATOM     16  O   UNL     1      -4.624  -0.026  25.641  0.00  0.00    -0.273 OA
ATOM     17  N   UNL     1      -3.821  -0.569  24.590  0.00  0.00    -0.201 NA
BRANCH  17  18
ATOM     18  C   UNL     1      -3.726  -1.264  25.023  0.00  0.00    +0.141 C 
BRANCH  18  19
ATOM     19  C   UNL     1      -3.197  -1.842  24.763  0.00  0.00    -0.000 A 
ATOM     20  C   UNL     1      -2.384  -1.721  24.840  0.00  0.00    -0.000 A 
ATOM     21  C   UNL     1      -1.854  -2.298  24.579  0.00  0.00    +0.029 A 
ATOM     22  C   UNL     1      -2.138  -2.995  24.242  0.00  0.00    +0.140 A 
ATOM     23  F   UNL     1      -1.609  -3.572  23.982  0.00  0.00    -0.204 F 
ATOM     24  C   UNL     1      -2.951  -3.116  24.165  0.00  0.00    +0.029 A 
ATOM     25  C   UNL     1      -3.480  -2.538  24.426  0.00  0.00    -0.000 A 
ENDBRANCH  18  19
ENDBRANCH  17  18
ENDBRANCH  14  15
ENDBRANCH  13  14
TORSDOF 9
ENDMDL
MODEL 5
REMARK VINA RESULT:     -11.2      2.255      4.315
REMARK  Name = 
REMARK  9 active torsions:
REMARK  status: ('A' for Active; 'I' for Inactive)
REMARK    1  A    between atoms: C_2  and  C_3
REMARK    2  A    between atoms: C_3  and  N_4
REMARK    3  A    between atoms: C_5  and  O_7
REMARK    4  A    between atoms: O_7  and  C_8
REMARK    5  A    between atoms: C_13  and  C_14
REMARK    6  A    between atoms: C_14  and  C_15
REMARK    7  A    between atoms: N_17  and  C_18
REMARK    8  A    between atoms: C_18  and  C_19
REMARK    9  A    between atoms: C_31  and  C_33
REMARK                            x       y       z     vdW  Elec       q    Type
REMARK                         _______ _______ _______ _____ _____    ______ ____
ROOT
ATOM      8  C   UNL     1      -3.595  -0.011  24.958  0.00  0.00    +0.173 C 
ATOM      9  C   UNL     1      -3.354   0.620  24.483  0.00  0.00    +0.044 C 
ATOM     10  C   UNL     1      -2.559   0.700  24.275  0.00  0.00    +0.004 C 
ATOM     11  C   UNL     1      -2.006   0.149  24.541  0.00  0.00    +0.003 C 
ATOM     12  C   UNL     1      -1.766   0.780  24.067  0.00  0.00    +0.000 C 
ATOM     13  C   UNL     1      -1.212   0.229  24.333  0.00  0.00    +0.040 C 
ATOM     26  C   UNL     1      -0.658  -0.322  24.599  0.00  0.00    +0.152 C 
ATOM     27  O   UNL     1       0.136  -0.242  24.391  0.00  0.00    -0.223 OA
ATOM     28  C   UNL     1      -0.899  -0.953  25.074  0.00  0.00    +0.033 C 
ATOM     29  C   UNL     1      -1.693  -1.032  25.282  0.00  0.00    +0.003 C 
ATOM     30  C   UNL     1      -2.246  -0.481  25.016  0.00  0.00    +0.006 C 
ATOM     31  C   UNL     1      -3.042  -0.561  25.224  0.00  0.00    +0.068 C 
ATOM     32  C   UNL     1      -2.888  -1.246  25.659  0.00  0.00    +0.006 C 
ENDROOT
BRANCH  31  33
ATOM     33  C   UNL     1      -3.619  -0.991  25.628  0.00  0.00    +0.185 C 
ATOM     34  O   UNL     1      -3.501  -1.793  25.783  0.00  0.00    -0.220 OA
ENDBRANCH  31  33
BRANCH   8   7
ATOM      7  O   UNL     1      -4.389  -0.090  25.166  0.00  0.00    -0.437 OA
BRANCH   7   5
ATOM      4  N   UNL     1      -5.126   1.087  25.501  0.00  0.00    -0.169 NA
ATOM      5  C   UNL     1      -4.930   0.497  24.960  0.00  0.00    +0.421 C 
ATOM      6  O   UNL     1      -5.275   0.494  24.210  0.00  0.00    -0.225 OA
BRANCH   4   3
ATOM      3  C   UNL     1      -5.667   1.675  25.294  0.00  0.00    +0.119 C 
BRANCH   3   2
ATOM      1  C   UNL     1      -5.780   3.041  25.696  0.00  0.00    +0.002 C 
ATOM      2  C   UNL     1      -5.896   2.239  25.850  0.00  0.00    +0.024 C 
ENDBRANCH   3   2
ENDBRANCH   4   3
ENDBRANCH   7   5
ENDBRANCH   8   7
BRANCH  13  14
ATOM     14  C   UNL     1      -0.971   0.860  23.858  0.00  0.00    +0.089 C 
BRANCH  14  15
ATOM     15  C   UNL     1      -0.475   1.442  24.168  0.00  0.00    +0.242 C 
ATOM     16  O   UNL     1       0.311   1.264  24.345  0.00  0.00    -0.273 OA
ATOM     17  N   UNL     1      -0.766   2.203  24.300  0.00  0.00    -0.201 NA
BRANCH  17  18
ATOM     18  C   UNL     1      -0.270   2.785  24.609  0.00  0.00    +0.141 C 
BRANCH  18  19
ATOM     19  C   UNL     1      -0.569   3.536  24.774  0.00  0.00    -0.000 A 
ATOM     20  C   UNL     1      -1.084   3.644  25.410  0.00  0.00    -0.000 A 
ATOM     21  C   UNL     1      -1.385   4.396  25.574  0.00  0.00    +0.029 A 
ATOM     22  C   UNL     1      -1.170   5.037  25.104  0.00  0.00    +0.140 A 
ATOM     23  F   UNL     1      -1.470   5.788  25.268  0.00  0.00    -0.204 F 
ATOM     24  C   UNL     1      -0.655   4.929  24.468  0.00  0.00    +0.029 A 
ATOM     25  C   UNL     1      -0.355   4.178  24.303  0.00  0.00    -0.000 A 
ENDBRANCH  18  19
ENDBRANCH  17  18
ENDBRANCH  14  15
ENDBRANCH  13  14
TORSDOF 9
ENDMDL
MODEL 6
REMARK VINA RESULT:     -11.1      2.280      5.659
REMARK  Name = 
REMARK  9 active torsions:
REMARK  status: ('A' for Active; 'I' for Inactive)
REMARK    1  A    between atoms: C_2  and  C_3
REMARK    2  A    between atoms: C_3  and  N_4
REMARK    3  A    between atoms: C_5  and  O_7
REMARK    4  A    between atoms: O_7  and  C_8
REMARK    5  A    between atoms: C_13  and  C_14
REMARK    6  A    between atoms: C_14  and  C_15
REMARK    7  A    between atoms: N_17  and  C_18
REMARK    8  A    between atoms: C_18  and  C_19
REMARK    9  A    between atoms: C_31  and  C_33
REMARK                            x       y       z     vdW  Elec       q    Type
REMARK                         _______ _______ _______ _____ _____    ______ ____
ROOT
ATOM      8  C   UNL     1      -2.384  -0.494  24.636  0.00  0.00    +0.173 C 
ATOM      9  C   UNL     1      -2.213   0.246  24.313  0.00  0.00    +0.044 C 
ATOM     10  C   UNL     1      -2.784   0.842  24.325  0.00  0.00    +0.004 C 
ATOM     11  C   UNL     1      -3.525   0.697  24.658  0.00  0.00    +0.003 C 
ATOM     12  C   UNL     1      -3.354   1.438  24.336  0.00  0.00    +0.000 C 
ATOM     13  C   UNL     1      -4.095   1.293  24.669  0.00  0.00    +0.040 C 
ATOM     26  C   UNL     1      -4.836   1.150  25.002  0.00  0.00    +0.152 C 
ATOM     27  O   UNL     1      -5.406   1.745  25.013  0.00  0.00    -0.223 OA
ATOM     28  C   UNL     1      -5.007   0.409  25.324  0.00  0.00    +0.033 C 
ATOM     29  C   UNL     1      -4.436  -0.187  25.313  0.00  0.00    +0.003 C 
ATOM     30  C   UNL     1      -3.695  -0.042  24.980  0.00  0.00    +0.006 C 
ATOM     31  C   UNL     1      -3.124  -0.639  24.968  0.00  0.00    +0.068 C 
ATOM     32  C   UNL     1      -3.631  -1.170  25.346  0.00  0.00    +0.006 C 
ENDROOT
BRANCH  31  33
ATOM     33  C   UNL     1      -2.920  -1.415  25.160  0.00  0.00    +0.185 C 
ATOM     34  O   UNL     1      -3.512  -1.969  25.317  0.00  0.00    -0.220 OA
ENDBRANCH  31  33
BRANCH   8   7
ATOM      7  O   UNL     1      -1.814  -1.090  24.624  0.00  0.00    -0.437 OA
BRANCH   7   5
ATOM      4  N   UNL     1      -0.612  -0.903  23.874  0.00  0.00    -0.169 NA
ATOM      5  C   UNL     1      -1.013  -0.894  24.594  0.00  0.00    +0.421 C 
ATOM      6  O   UNL     1      -0.613  -0.688  25.286  0.00  0.00    -0.225 OA
BRANCH   4   3
ATOM      3  C   UNL     1       0.189  -0.706  23.843  0.00  0.00    +0.119 C 
BRANCH   3   2
ATOM      1  C   UNL     1       1.170  -0.063  23.029  0.00  0.00    +0.002 C 
ATOM      2  C   UNL     1       0.564  -0.616  23.115  0.00  0.00    +0.024 C 
ENDBRANCH   3   2
ENDBRANCH   4   3
ENDBRANCH   7   5
ENDBRANCH   8   7
BRANCH  13  14
ATOM     14  C   UNL     1      -3.925   2.034  24.347  0.00  0.00    +0.089 C 
BRANCH  14  15
ATOM     15  C   UNL     1      -3.812   2.683  24.843  0.00  0.00    +0.242 C 
ATOM     16  O   UNL     1      -4.386   2.882  25.401  0.00  0.00    -0.273 OA
ATOM     17  N   UNL     1      -3.122   3.134  24.782  0.00  0.00    -0.201 NA
BRANCH  17  18
ATOM     18  C   UNL     1      -3.009   3.782  25.279  0.00  0.00    +0.141 C 
BRANCH  18  19
ATOM     19  C   UNL     1      -2.331   4.246  25.202  0.00  0.00    -0.000 A 
ATOM     20  C   UNL     1      -1.588   3.888  25.172  0.00  0.00    -0.000 A 
ATOM     21  C   UNL     1      -0.909   4.351  25.094  0.00  0.00    +0.029 A 
ATOM     22  C   UNL     1      -0.973   5.171  25.047  0.00  0.00    +0.140 A 
ATOM     23  F   UNL     1      -0.296   5.635  24.970  0.00  0.00    -0.204 F 
ATOM     24  C   UNL     1      -1.717   5.530  25.077  0.00  0.00    +0.029 A 
ATOM     25  C   UNL     1      -2.396   5.066  25.155  0.00  0.00    -0.000 A 
ENDBRANCH  18  19
ENDBRANCH  17  18
ENDBRANCH  14  15
ENDBRANCH  13  14
TORSDOF 9
ENDMDL
