MODEL 1
REMARK VINA RESULT:     -13.6      0.000      0.000
REMARK  Name = 
REMARK  7 active torsions:
REMARK  status: ('A' for Active; 'I' for Inactive)
REMARK    1  A    between atoms: C_2  and  C_4
REMARK    2  A    between atoms: C_4  and  C_5
REMARK    3  A    between atoms: C_4  and  N_12
REMARK    4  A    between atoms: C_5  and  C_6
REMARK    5  A    between atoms: C_13  and  C_15
REMARK    6  A    between atoms: C_17  and  N_18
REMARK    7  A    between atoms: C_19  and  C_21
REMARK                            x       y       z     vdW  Elec       q    Type
REMARK                         _______ _______ _______ _____ _____    ______ ____
ROOT
ATOM     15  C   UNL     1      -4.040   2.689  24.905  0.00  0.00    +0.033 C 
ATOM     16  C   UNL     1      -3.904   1.878  24.967  0.00  0.00    -0.002 C 
ATOM     17  C   UNL     1      -4.536   1.363  25.099  0.00  0.00    +0.150 C 
ATOM     29  C   UNL     1      -5.303   1.660  25.167  0.00  0.00    +0.206 C 
ATOM     30  O   UNL     1      -5.934   1.146  25.298  0.00  0.00    -0.218 OA
ATOM     31  C   UNL     1      -5.438   2.472  25.104  0.00  0.00    +0.189 C 
ATOM     32  O   UNL     1      -6.205   2.768  25.173  0.00  0.00    -0.220 OA
ATOM     33  C   UNL     1      -4.807   2.986  24.973  0.00  0.00    +0.066 C 
ENDROOT
BRANCH  15  13
ATOM     12  N   UNL     1      -2.775   3.222  25.303  0.00  0.00    -0.194 NA
ATOM     13  C   UNL     1      -3.408   3.203  24.773  0.00  0.00    +0.261 C 
ATOM     14  O   UNL     1      -3.409   3.699  24.114  0.00  0.00    -0.269 OA
BRANCH  12   4
ATOM      4  C   UNL     1      -2.143   3.736  25.172  0.00  0.00    +0.179 C 
BRANCH   4   2
ATOM      1  N   UNL     1      -1.842   5.130  25.078  0.00  0.00    -0.086 NA
ATOM      2  C   UNL     1      -2.151   4.493  25.502  0.00  0.00    +0.281 C 
ATOM      3  O   UNL     1      -2.468   4.611  26.253  0.00  0.00    -0.270 OA
ENDBRANCH   4   2
BRANCH   4   5
ATOM      5  C   UNL     1      -1.503   3.493  24.712  0.00  0.00    +0.057 C 
BRANCH   5   6
ATOM      6  C   UNL     1      -0.951   2.964  25.021  0.00  0.00    -0.020 A 
ATOM      7  C   UNL     1      -0.697   2.322  24.569  0.00  0.00    -0.004 A 
ATOM      8  C   UNL     1      -0.145   1.793  24.878  0.00  0.00    -0.000 A 
ATOM      9  C   UNL     1       0.153   1.905  25.639  0.00  0.00    -0.000 A 
ATOM     10  C   UNL     1      -0.101   2.547  26.090  0.00  0.00    -0.000 A 
ATOM     11  C   UNL     1      -0.653   3.077  25.782  0.00  0.00    -0.004 A 
ENDBRANCH   5   6
ENDBRANCH   4   5
ENDBRANCH  12   4
ENDBRANCH  15  13
BRANCH  17  18
ATOM     18  N   UNL     1      -4.400   0.552  25.162  0.00  0.00    -0.196 NA
ATOM     19  C   UNL     1      -3.995   0.153  24.563  0.00  0.00    +0.265 C 
ATOM     20  O   UNL     1      -3.727   0.566  23.902  0.00  0.00    -0.268 OA
BRANCH  19  21
ATOM     21  C   UNL     1      -3.860  -0.658  24.627  0.00  0.00    +0.056 A 
ATOM     22  C   UNL     1      -4.190  -1.176  24.076  0.00  0.00    +0.018 A 
ATOM     23  C   UNL     1      -4.054  -1.986  24.139  0.00  0.00    +0.085 A 
ATOM     24 CL   UNL     1      -4.385  -2.504  23.587  0.00  0.00    -0.080 Cl
ATOM     25  C   UNL     1      -3.589  -2.281  24.754  0.00  0.00    +0.151 A 
ATOM     26  F   UNL     1      -3.454  -3.092  24.818  0.00  0.00    -0.203 F 
ATOM     27  C   UNL     1      -3.259  -1.763  25.305  0.00  0.00    +0.031 A 
ATOM     28  C   UNL     1      -3.395  -0.952  25.241  0.00  0.00    +0.007 A 
ENDBRANCH  19  21
ENDBRANCH  17  18
TORSDOF 7
ENDMDL
MODEL 2
REMARK VINA RESULT:     -12.9      1.457      3.247
REMARK  Name = 
REMARK  7 active torsions:
REMARK  status: ('A' for Active; 'I' for Inactive)
REMARK    1  A    between atoms: C_2  and  C_4
REMARK    2  A    between atoms: C_4  and  C_5
REMARK    3  A    between atoms: C_4  and  N_12
REMARK    4  A    between atoms: C_5  and  C_6
REMARK    5  A    between atoms: C_13  and  C_15
REMARK    6  A    between atoms: C_17  and  N_18
REMARK    7  A    between atoms: C_19  and  C_21
REMARK                            x       y       z     vdW  Elec       q    Type
REMARK                         _______ _______ _______ _____ _____    ______ ____
ROOT
ATOM     15  C   UNL     1      -1.460   1.950  24.404  0.00  0.00    +0.033 C 
ATOM     16  C   UNL     1      -1.857   1.232  24.313  0.00  0.00    -0.002 C 
ATOM     17  C   UNL     1      -1.429   0.529  24.256  0.00  0.00    +0.150 C 
ATOM     29  C   UNL     1      -0.605   0.544  24.290  0.00  0.00    +0.206 C 
ATOM     30  O   UNL     1      -0.176  -0.159  24.233  0.00  0.00    -0.218 OA
ATOM     31  C   UNL     1      -0.208   1.262  24.381  0.00  0.00    +0.189 C 
ATOM     32  O   UNL     1       0.616   1.277  24.414  0.00  0.00    -0.220 OA
ATOM     33  C   UNL     1      -0.636   1.965  24.437  0.00  0.00    +0.066 C 
ENDROOT
BRANCH  15  13
ATOM     12  N   UNL     1      -2.499   2.720  25.013  0.00  0.00    -0.194 NA
ATOM     13  C   UNL     1      -1.889   2.652  24.461  0.00  0.00    +0.261 C 
ATOM     14  O   UNL     1      -1.708   3.288  23.966  0.00  0.00    -0.269 OA
BRANCH  12   4
ATOM      4  C   UNL     1      -2.928   3.423  25.070  0.00  0.00    +0.179 C 
BRANCH   4   2
ATOM      1  N   UNL     1      -2.551   4.792  25.226  0.00  0.00    -0.086 NA
ATOM      2  C   UNL     1      -2.651   4.038  25.545  0.00  0.00    +0.281 C 
ATOM      3  O   UNL     1      -2.473   3.898  26.338  0.00  0.00    -0.270 OA
ENDBRANCH   4   2
BRANCH   4   5
ATOM      5  C   UNL     1      -3.634   3.510  24.653  0.00  0.00    +0.057 C 
BRANCH   5   6
ATOM      6  C   UNL     1      -4.313   3.116  24.906  0.00  0.00    -0.020 A 
ATOM      7  C   UNL     1      -4.645   2.523  24.438  0.00  0.00    -0.004 A 
ATOM      8  C   UNL     1      -5.324   2.130  24.691  0.00  0.00    -0.000 A 
ATOM      9  C   UNL     1      -5.671   2.329  25.413  0.00  0.00    -0.000 A 
ATOM     10  C   UNL     1      -5.339   2.920  25.881  0.00  0.00    -0.000 A 
ATOM     11  C   UNL     1      -4.660   3.315  25.628  0.00  0.00    -0.004 A 
ENDBRANCH   5   6
ENDBRANCH   4   5
ENDBRANCH  12   4
ENDBRANCH  15  13
BRANCH  17  18
ATOM     18  N   UNL     1      -1.826  -0.189  24.166  0.00  0.00    -0.196 NA
ATOM     19  C   UNL     1      -2.331  -0.459  24.759  0.00  0.00    +0.265 C 
ATOM     20  O   UNL     1      -2.439  -0.012  25.443  0.00  0.00    -0.268 OA
BRANCH  19  21
ATOM     21  C   UNL     1      -2.727  -1.177  24.667  0.00  0.00    +0.056 A 
ATOM     22  C   UNL     1      -3.444  -1.203  24.259  0.00  0.00    +0.018 A 
ATOM     23  C   UNL     1      -3.840  -1.920  24.167  0.00  0.00    +0.085 A 
ATOM     24 CL   UNL     1      -4.557  -1.945  23.759  0.00  0.00    -0.080 Cl
ATOM     25  C   UNL     1      -3.521  -2.612  24.483  0.00  0.00    +0.151 A 
ATOM     26  F   UNL     1      -3.917  -3.329  24.391  0.00  0.00    -0.203 F 
ATOM     27  C   UNL     1      -2.804  -2.586  24.891  0.00  0.00    +0.031 A 
ATOM     28  C   UNL     1      -2.408  -1.868  24.983  0.00  0.00    +0.007 A 
ENDBRANCH  19  21
ENDBRANCH  17  18
TORSDOF 7
ENDMDL
MODEL 3
REMARK VINA RESULT:     -12.6      2.433      4.695
REMARK  Name = 
REMARK  7 active torsions:
REMARK  status: ('A' for Active; 'I' for Inactive)
REMARK    1  A    between atoms: C_2  and  C_4
REMARK    2  A    between atoms: C_4  and  C_5
REMARK    3  A    between atoms: C_4  and  N_12
REMARK    4  A    between atoms: C_5  and  C_6
REMARK    5  A    between atoms: C_13  and  C_15
REMARK    6  A    between atoms: C_17  and  N_18
REMARK    7  A    between atoms: C_19  and  C_21
REMARK                            x       y       z     vdW  Elec       q    Type
REMARK                         _______ _______ _______ _____ _____    ______ ____
ROOT
ATOM     15  C   UNL     1      -4.353   1.000  24.972  0.00  0.00    +0.033 C 
ATOM     16  C   UNL     1      -3.749   1.552  24.870  0.00  0.00    -0.002 C 
ATOM     17  C   UNL     1      -3.935   2.348  24.747  0.00  0.00    +0.150 C 
ATOM     29  C   UNL     1      -4.724   2.589  24.727  0.00  0.00    +0.206 C 
ATOM     30  O   UNL     1      -4.910   3.383  24.605  0.00  0.00    -0.218 OA
ATOM     31  C   UNL     1      -5.328   2.035  24.830  0.00  0.00    +0.189 C 
ATOM     32  O   UNL     1      -6.116   2.277  24.810  0.00  0.00    -0.220 OA
ATOM     33  C   UNL     1      -5.142   1.241  24.952  0.00  0.00    +0.066 C 
ENDROOT
BRANCH  15  13
ATOM     12  N   UNL     1      -3.597  -0.162  24.623  0.00  0.00    -0.194 NA
ATOM     13  C   UNL     1      -4.167   0.205  25.094  0.00  0.00    +0.261 C 
ATOM     14  O   UNL     1      -4.551  -0.222  25.686  0.00  0.00    -0.269 OA
BRANCH  12   4
ATOM      4  C   UNL     1      -3.410  -0.957  24.745  0.00  0.00    +0.179 C 
BRANCH   4   2
ATOM      1  N   UNL     1      -4.019  -2.247  24.662  0.00  0.00    -0.086 NA
ATOM      2  C   UNL     1      -3.788  -1.541  24.302  0.00  0.00    +0.281 C 
ATOM      3  O   UNL     1      -3.933  -1.421  23.499  0.00  0.00    -0.270 OA
ENDBRANCH   4   2
BRANCH   4   5
ATOM      5  C   UNL     1      -2.847  -1.165  25.310  0.00  0.00    +0.057 C 
BRANCH   5   6
ATOM      6  C   UNL     1      -2.044  -1.091  25.137  0.00  0.00    -0.020 A 
ATOM      7  C   UNL     1      -1.586  -0.533  25.538  0.00  0.00    -0.004 A 
ATOM      8  C   UNL     1      -0.783  -0.458  25.365  0.00  0.00    -0.000 A 
ATOM      9  C   UNL     1      -0.437  -0.940  24.792  0.00  0.00    -0.000 A 
ATOM     10  C   UNL     1      -0.895  -1.497  24.392  0.00  0.00    -0.000 A 
ATOM     11  C   UNL     1      -1.698  -1.573  24.564  0.00  0.00    -0.004 A 
ENDBRANCH   5   6
ENDBRANCH   4   5
ENDBRANCH  12   4
ENDBRANCH  15  13
BRANCH  17  18
ATOM     18  N   UNL     1      -3.331   2.900  24.645  0.00  0.00    -0.196 NA
ATOM     19  C   UNL     1      -2.796   3.045  25.256  0.00  0.00    +0.265 C 
ATOM     20  O   UNL     1      -2.864   2.636  25.969  0.00  0.00    -0.268 OA
BRANCH  19  21
ATOM     21  C   UNL     1      -2.192   3.598  25.152  0.00  0.00    +0.056 A 
ATOM     22  C   UNL     1      -1.488   3.375  24.785  0.00  0.00    +0.018 A 
ATOM     23  C   UNL     1      -0.885   3.927  24.681  0.00  0.00    +0.085 A 
ATOM     24 CL   UNL     1      -0.180   3.705  24.313  0.00  0.00    -0.080 Cl
ATOM     25  C   UNL     1      -0.985   4.703  24.945  0.00  0.00    +0.151 A 
ATOM     26  F   UNL     1      -0.381   5.255  24.841  0.00  0.00    -0.203 F 
ATOM     27  C   UNL     1      -1.689   4.925  25.313  0.00  0.00    +0.031 A 
ATOM     28  C   UNL     1      -2.292   4.372  25.416  0.00  0.00    +0.007 A 
ENDBRANCH  19  21
ENDBRANCH  17  18
TORSDOF 7
ENDMDL
MODEL 4
REMARK VINA RESULT:     -12.3      2.502      5.180
REMARK  Name = 
REMARK  7 active torsions:
REMARK  status: ('A' for Active; 'I' for Inactive)
REMARK    1  A    between atoms: C_2  and  C_4
REMARK    2  A    between atoms: C_4  and  C_5
REMARK    3  A    between atoms: C_4  and  N_12
REMARK    4  A    between atoms: C_5  and  C_6
REMARK    5  A    between atoms: C_13  and  C_15
REMARK    6  A    between atoms: C_17  and  N_18
REMARK    7  A    between atoms: C_19  and  C_21
REMARK                            x       y       z     vdW  Elec       q    Type
REMARK                         _______ _______ _______ _____ _____    ______ ____
ROOT
ATOM     15  C   UNL     1      -1.290   0.813  25.124  0.00  0.00    +0.033 C 
ATOM     16  C   UNL     1      -1.945   1.288  25.281  0.00  0.00    -0.002 C 
ATOM     17  C   UNL     1      -1.909   2.101  25.138  0.00  0.00    +0.150 C 
ATOM     29  C   UNL     1      -1.217   2.437  24.840  0.00  0.00    +0.206 C 
ATOM     30  O   UNL     1      -1.180   3.248  24.698  0.00  0.00    -0.218 OA
ATOM     31  C   UNL     1      -0.561   1.961  24.684  0.00  0.00    +0.189 C 
ATOM     32  O   UNL     1       0.131   2.297  24.385  0.00  0.00    -0.220 OA
ATOM     33  C   UNL     1      -0.598   1.149  24.826  0.00  0.00    +0.066 C 
ENDROOT
BRANCH  15  13
ATOM     12  N   UNL     1      -1.677  -0.499  24.711  0.00  0.00    -0.194 NA
ATOM     13  C   UNL     1      -1.327   0.001  25.266  0.00  0.00    +0.261 C 
ATOM     14  O   UNL     1      -1.013  -0.311  25.963  0.00  0.00    -0.269 OA
BRANCH  12   4
ATOM      4  C   UNL     1      -1.714  -1.312  24.853  0.00  0.00    +0.179 C 
BRANCH   4   2
ATOM      1  N   UNL     1      -0.744  -2.309  25.178  0.00  0.00    -0.086 NA
ATOM      2  C   UNL     1      -1.088  -1.799  24.628  0.00  0.00    +0.281 C 
ATOM      3  O   UNL     1      -0.805  -1.776  23.854  0.00  0.00    -0.270 OA
ENDBRANCH   4   2
BRANCH   4   5
ATOM      5  C   UNL     1      -2.378  -1.636  25.220  0.00  0.00    +0.057 C 
BRANCH   5   6
ATOM      6  C   UNL     1      -3.032  -1.855  24.767  0.00  0.00    -0.020 A 
ATOM      7  C   UNL     1      -3.165  -2.652  24.595  0.00  0.00    -0.004 A 
ATOM      8  C   UNL     1      -3.819  -2.871  24.142  0.00  0.00    -0.000 A 
ATOM      9  C   UNL     1      -4.339  -2.296  23.862  0.00  0.00    -0.000 A 
ATOM     10  C   UNL     1      -4.206  -1.501  24.034  0.00  0.00    -0.000 A 
ATOM     11  C   UNL     1      -3.553  -1.280  24.487  0.00  0.00    -0.004 A 
ENDBRANCH   5   6
ENDBRANCH   4   5
ENDBRANCH  12   4
ENDBRANCH  15  13
BRANCH  17  18
ATOM     18  N   UNL     1      -2.565   2.576  25.295  0.00  0.00    -0.196 NA
ATOM     19  C   UNL     1      -3.265   2.465  24.873  0.00  0.00    +0.265 C 
ATOM     20  O   UNL     1      -3.310   1.879  24.295  0.00  0.00    -0.268 OA
BRANCH  19  21
ATOM     21  C   UNL     1      -3.921   2.941  25.031  0.00  0.00    +0.056 A 
ATOM     22  C   UNL     1      -4.561   2.634  25.451  0.00  0.00    +0.018 A 
ATOM     23  C   UNL     1      -5.216   3.110  25.609  0.00  0.00    +0.085 A 
ATOM     24 CL   UNL     1      -5.857   2.803  26.030  0.00  0.00    -0.080 Cl
ATOM     25  C   UNL     1      -5.232   3.892  25.346  0.00  0.00    +0.151 A 
ATOM     26  F   UNL     1      -5.887   4.367  25.504  0.00  0.00    -0.203 F 
ATOM     27  C   UNL     1      -4.592   4.198  24.926  0.00  0.00    +0.031 A 
ATOM     28  C   UNL     1      -3.936   3.722  24.768  0.00  0.00    +0.007 A 
ENDBRANCH  19  21
ENDBRANCH  17  18
TORSDOF 7
ENDMDL
MODEL 5
REMARK VINA RESULT:     -12.2      2.924      5.853
REMARK  Name = 
REMARK  7 active torsions:
REMARK  status: ('A' for Active; 'I' for Inactive)
REMARK    1  A    between atoms: C_2  and  C_4
REMARK    2  A    between atoms: C_4  and  C_5
REMARK    3  A    between atoms: C_4  and  N_12
REMARK    4  A    between atoms: C_5  and  C_6
REMARK    5  A    between atoms: C_13  and  C_15
REMARK    6  A    between atoms: C_17  and  N_18
REMARK    7  A    between atoms: C_19  and  C_21
REMARK                            x       y       z     vdW  Elec       q    Type
REMARK                         _______ _______ _______ _____ _____    ______ ____
ROOT
ATOM     15  C   UNL     1      -0.515  -0.085  24.593  0.00  0.00    +0.033 C 
ATOM     16  C   UNL     1      -0.671   0.686  24.843  0.00  0.00    -0.002 C 
ATOM     17  C   UNL     1      -0.230   1.315  24.540  0.00  0.00    +0.150 C 
ATOM     29  C   UNL     1       0.366   1.172  23.987  0.00  0.00    +0.206 C 
ATOM     30  O   UNL     1       0.807   1.800  23.684  0.00  0.00    -0.218 OA
ATOM     31  C   UNL     1       0.522   0.401  23.737  0.00  0.00    +0.189 C 
ATOM     32  O   UNL     1       1.118   0.258  23.185  0.00  0.00    -0.220 OA
ATOM     33  C   UNL     1       0.081  -0.227  24.040  0.00  0.00    +0.066 C 
ENDROOT
BRANCH  15  13
ATOM     12  N   UNL     1      -1.631  -0.972  24.498  0.00  0.00    -0.194 NA
ATOM     13  C   UNL     1      -0.956  -0.712  24.896  0.00  0.00    +0.261 C 
ATOM     14  O   UNL     1      -0.722  -1.081  25.596  0.00  0.00    -0.269 OA
BRANCH  12   4
ATOM      4  C   UNL     1      -2.073  -1.600  24.801  0.00  0.00    +0.179 C 
BRANCH   4   2
ATOM      1  N   UNL     1      -1.780  -2.933  25.227  0.00  0.00    -0.086 NA
ATOM      2  C   UNL     1      -1.862  -2.377  24.621  0.00  0.00    +0.281 C 
ATOM      3  O   UNL     1      -1.732  -2.598  23.838  0.00  0.00    -0.270 OA
ENDBRANCH   4   2
BRANCH   4   5
ATOM      5  C   UNL     1      -2.725  -1.450  25.283  0.00  0.00    +0.057 C 
BRANCH   5   6
ATOM      6  C   UNL     1      -3.401  -1.103  24.964  0.00  0.00    -0.020 A 
ATOM      7  C   UNL     1      -3.708  -0.413  25.300  0.00  0.00    -0.004 A 
ATOM      8  C   UNL     1      -4.384  -0.065  24.980  0.00  0.00    -0.000 A 
ATOM      9  C   UNL     1      -4.754  -0.406  24.326  0.00  0.00    -0.000 A 
ATOM     10  C   UNL     1      -4.448  -1.094  23.992  0.00  0.00    -0.000 A 
ATOM     11  C   UNL     1      -3.771  -1.443  24.310  0.00  0.00    -0.004 A 
ENDBRANCH   5   6
ENDBRANCH   4   5
ENDBRANCH  12   4
ENDBRANCH  15  13
BRANCH  17  18
ATOM     18  N   UNL     1      -0.386   2.085  24.790  0.00  0.00    -0.196 NA
ATOM     19  C   UNL     1      -1.094   2.452  24.579  0.00  0.00    +0.265 C 
ATOM     20  O   UNL     1      -1.646   2.049  24.119  0.00  0.00    -0.268 OA
BRANCH  19  21
ATOM     21  C   UNL     1      -1.248   3.223  24.830  0.00  0.00    +0.056 A 
ATOM     22  C   UNL     1      -1.895   3.375  25.319  0.00  0.00    +0.018 A 
ATOM     23  C   UNL     1      -2.050   4.145  25.570  0.00  0.00    +0.085 A 
ATOM     24 CL   UNL     1      -2.697   4.297  26.060  0.00  0.00    -0.080 Cl
ATOM     25  C   UNL     1      -1.559   4.764  25.332  0.00  0.00    +0.151 A 
ATOM     26  F   UNL     1      -1.714   5.534  25.583  0.00  0.00    -0.203 F 
ATOM     27  C   UNL     1      -0.912   4.612  24.843  0.00  0.00    +0.031 A 
ATOM     28  C   UNL     1      -0.757   3.841  24.592  0.00  0.00    +0.007 A 
ENDBRANCH  19  21
ENDBRANCH  17  18
TORSDOF 7
ENDMDL
