REMARK  Name = 
REMARK  8 active torsions:
REMARK  status: ('A' for Active; 'I' for Inactive)
REMARK    1  A    between atoms: O_2  and  C_3
REMARK    2  A    between atoms: C_6  and  C_11
REMARK    3  A    between atoms: C_8  and  O_9
REMARK    4  A    between atoms: C_15  and  C_17
REMARK    5  A    between atoms: C_24  and  C_25
REMARK    6  A    between atoms: C_25  and  N_26
REMARK    7  A    between atoms: C_27  and  C_29
REMARK    8  A    between atoms: C_32  and  C_35
REMARK                            x       y       z     vdW  Elec       q    Type
REMARK                         _______ _______ _______ _____ _____    ______ ____
ROOT
ATOM     17  C   UNL     1       1.661  -1.343   0.000  0.00  0.00    +0.056 C 
ATOM     18  C   UNL     1       1.814  -2.106   0.000  0.00  0.00    +0.078 C 
ATOM     19  N   UNL     1       1.065  -1.759   0.000  0.00  0.00    -0.272 NA
ATOM     20  C   UNL     1       1.205  -0.720   0.000  0.00  0.00    +0.072 C 
ATOM     21  C   UNL     1       0.961  -0.114   0.000  0.00  0.00    +0.018 C 
ATOM     22  C   UNL     1       0.923  -1.010   0.000  0.00  0.00    +0.010 C 
ATOM     23  C   UNL     1       0.119  -1.362   0.000  0.00  0.00    +0.018 C 
ATOM     24  C   UNL     1       0.226  -2.118   0.000  0.00  0.00    +0.079 C 
ENDROOT
BRANCH  17  15
ATOM     11  C   UNL     1       3.043   0.285   0.000  0.00  0.00    +0.102 A 
ATOM     12  N   UNL     1       3.557  -0.360   0.000  0.00  0.00    -0.170 NA
ATOM     13  N   UNL     1       3.102  -1.048   0.000  0.00  0.00    -0.253 N 
ATOM     14  C   UNL     1       3.391  -1.821   0.000  0.00  0.00    +0.153 C 
ATOM     15  C   UNL     1       2.307  -0.828   0.000  0.00  0.00    +0.058 A 
ATOM     16  C   UNL     1       2.270  -0.004   0.000  0.00  0.00    +0.035 A 
BRANCH  11   6
ATOM      3  C   UNL     1       3.702   2.671   0.000  0.00  0.00    +0.172 A 
ATOM      4  C   UNL     1       4.281   2.083   0.000  0.00  0.00    +0.040 A 
ATOM      5  C   UNL     1       4.061   1.288   0.000  0.00  0.00    +0.005 A 
ATOM      6  C   UNL     1       3.263   1.080   0.000  0.00  0.00    +0.023 A 
ATOM      7  C   UNL     1       2.684   1.668   0.000  0.00  0.00    +0.042 A 
ATOM      8  C   UNL     1       2.904   2.464   0.000  0.00  0.00    +0.172 A 
BRANCH   3   2
ATOM      1  C   UNL     1       3.343   4.054   0.000  0.00  0.00    +0.253 C 
ATOM      2  O   UNL     1       3.922   3.466   0.000  0.00  0.00    -0.468 OA
ENDBRANCH   3   2
BRANCH   8   9
ATOM      9  O   UNL     1       2.325   3.052   0.000  0.00  0.00    -0.468 OA
ATOM     10  C   UNL     1       2.545   3.847   0.000  0.00  0.00    +0.253 C 
ENDBRANCH   8   9
ENDBRANCH  11   6
ENDBRANCH  17  15
BRANCH  24  25
ATOM     25  C   UNL     1      -0.179  -2.836   0.000  0.00  0.00    +0.131 C 
BRANCH  25  26
ATOM     26  N   UNL     1      -1.004  -2.845   0.000  0.00  0.00    -0.200 NA
ATOM     27  C   UNL     1      -1.408  -3.564   0.000  0.00  0.00    +0.265 C 
ATOM     28  O   UNL     1      -0.988  -4.274   0.000  0.00  0.00    -0.268 OA
BRANCH  27  29
ATOM     29  C   UNL     1      -2.233  -3.573   0.000  0.00  0.00    +0.055 A 
ATOM     30  C   UNL     1      -2.638  -4.292   0.000  0.00  0.00    +0.005 A 
ATOM     31  C   UNL     1      -3.463  -4.301   0.000  0.00  0.00    +0.004 A 
ATOM     32  C   UNL     1      -3.883  -3.591   0.000  0.00  0.00    +0.071 A 
ATOM     33  C   UNL     1      -3.478  -2.872   0.000  0.00  0.00    +0.004 A 
ATOM     34  C   UNL     1      -2.654  -2.863   0.000  0.00  0.00    +0.005 A 
BRANCH  32  35
ATOM     35  C   UNL     1      -4.708  -3.599   0.000  0.00  0.00    +0.419 C 
ATOM     36  F   UNL     1      -5.533  -3.608   0.000  0.00  0.00    -0.166 F 
ATOM     37  F   UNL     1      -4.717  -2.775   0.000  0.00  0.00    -0.166 F 
ATOM     38  F   UNL     1      -4.699  -4.424   0.000  0.00  0.00    -0.166 F 
ENDBRANCH  32  35
ENDBRANCH  27  29
ENDBRANCH  25  26
ENDBRANCH  24  25
TORSDOF 8
