MODEL 1
REMARK VINA RESULT:     -10.9      0.000      0.000
REMARK  Name = 
REMARK  5 active torsions:
REMARK  status: ('A' for Active; 'I' for Inactive)
REMARK    1  A    between atoms: O_2  and  C_3
REMARK    2  A    between atoms: C_7  and  C_8
REMARK    3  A    between atoms: C_8  and  N_9
REMARK    4  A    between atoms: C_12  and  C_14
REMARK    5  A    between atoms: C_17  and  C_19
REMARK                            x       y       z     vdW  Elec       q    Type
REMARK                         _______ _______ _______ _____ _____    ______ ____
ROOT
ATOM      9  N   UNL     1      -0.854  -0.428  25.079  0.00  0.00    -0.268 NA
ATOM     10  C   UNL     1      -0.506  -0.220  24.360  0.00  0.00    +0.073 C 
ATOM     11  C   UNL     1      -0.364   0.594  24.373  0.00  0.00    +0.028 C 
ATOM     12  C   UNL     1      -0.625   0.886  25.099  0.00  0.00    +0.096 C 
ATOM     13  C   UNL     1      -0.927   0.254  25.535  0.00  0.00    +0.082 C 
ENDROOT
BRANCH  12  14
ATOM     14  C   UNL     1      -0.589   1.672  25.346  0.00  0.00    +0.227 A 
ATOM     15  N   UNL     1      -0.036   1.992  25.869  0.00  0.00    -0.111 NA
ATOM     16  N   UNL     1      -0.204   2.794  25.960  0.00  0.00    -0.107 NA
ATOM     17  C   UNL     1      -0.862   2.971  25.494  0.00  0.00    +0.251 A 
ATOM     18  O   UNL     1      -1.099   2.277  25.114  0.00  0.00    -0.419 OA
BRANCH  17  19
ATOM     19  C   UNL     1      -1.219   3.711  25.420  0.00  0.00    +0.074 A 
ATOM     20  C   UNL     1      -1.978   3.834  25.719  0.00  0.00    +0.104 A 
ATOM     21  N   UNL     1      -2.336   4.574  25.645  0.00  0.00    -0.242 NA
ATOM     22  C   UNL     1      -1.934   5.191  25.272  0.00  0.00    +0.099 A 
ATOM     23  C   UNL     1      -1.175   5.067  24.973  0.00  0.00    +0.021 A 
ATOM     24  C   UNL     1      -0.818   4.328  25.047  0.00  0.00    +0.008 A 
ENDBRANCH  17  19
ENDBRANCH  12  14
BRANCH   9   8
ATOM      8  C   UNL     1      -1.087  -1.187  25.301  0.00  0.00    +0.102 C 
BRANCH   8   7
ATOM      3  C   UNL     1      -3.323  -2.034  24.657  0.00  0.00    +0.142 A 
ATOM      4  C   UNL     1      -2.652  -2.493  24.517  0.00  0.00    +0.079 A 
ATOM      5  C   UNL     1      -1.906  -2.211  24.732  0.00  0.00    +0.196 A 
ATOM      6  O   UNL     1      -1.235  -2.670  24.592  0.00  0.00    -0.287 OA
ATOM      7  C   UNL     1      -1.833  -1.470  25.086  0.00  0.00    +0.033 A 
ATOM     25  C   UNL     1      -2.504  -1.010  25.226  0.00  0.00    +0.003 A 
ATOM     26  C   UNL     1      -3.248  -1.293  25.011  0.00  0.00    +0.037 A 
BRANCH   3   2
ATOM      1  C   UNL     1      -4.416  -2.065  23.737  0.00  0.00    +0.252 C 
ATOM      2  O   UNL     1      -4.067  -2.316  24.442  0.00  0.00    -0.471 OA
ENDBRANCH   3   2
ENDBRANCH   8   7
ENDBRANCH   9   8
TORSDOF 5
ENDMDL
MODEL 2
REMARK VINA RESULT:     -10.9      1.842      2.791
REMARK  Name = 
REMARK  5 active torsions:
REMARK  status: ('A' for Active; 'I' for Inactive)
REMARK    1  A    between atoms: O_2  and  C_3
REMARK    2  A    between atoms: C_7  and  C_8
REMARK    3  A    between atoms: C_8  and  N_9
REMARK    4  A    between atoms: C_12  and  C_14
REMARK    5  A    between atoms: C_17  and  C_19
REMARK                            x       y       z     vdW  Elec       q    Type
REMARK                         _______ _______ _______ _____ _____    ______ ____
ROOT
ATOM      9  N   UNL     1      -4.582   0.324  24.688  0.00  0.00    -0.268 NA
ATOM     10  C   UNL     1      -5.018   0.700  25.278  0.00  0.00    +0.073 C 
ATOM     11  C   UNL     1      -4.780   1.490  25.305  0.00  0.00    +0.028 C 
ATOM     12  C   UNL     1      -4.196   1.600  24.732  0.00  0.00    +0.096 C 
ATOM     13  C   UNL     1      -4.074   0.878  24.351  0.00  0.00    +0.082 C 
ENDROOT
BRANCH  12  14
ATOM     14  C   UNL     1      -3.804   2.307  24.569  0.00  0.00    +0.227 A 
ATOM     15  N   UNL     1      -4.061   2.896  24.052  0.00  0.00    -0.111 NA
ATOM     16  N   UNL     1      -3.502   3.502  24.058  0.00  0.00    -0.107 NA
ATOM     17  C   UNL     1      -2.898   3.288  24.578  0.00  0.00    +0.251 A 
ATOM     18  O   UNL     1      -3.085   2.548  24.894  0.00  0.00    -0.419 OA
BRANCH  17  19
ATOM     19  C   UNL     1      -2.226   3.734  24.752  0.00  0.00    +0.074 A 
ATOM     20  C   UNL     1      -1.478   3.446  24.554  0.00  0.00    +0.104 A 
ATOM     21  N   UNL     1      -0.806   3.892  24.728  0.00  0.00    -0.242 NA
ATOM     22  C   UNL     1      -0.881   4.625  25.099  0.00  0.00    +0.099 A 
ATOM     23  C   UNL     1      -1.629   4.911  25.297  0.00  0.00    +0.021 A 
ATOM     24  C   UNL     1      -2.301   4.466  25.123  0.00  0.00    +0.008 A 
ENDBRANCH  17  19
ENDBRANCH  12  14
BRANCH   9   8
ATOM      8  C   UNL     1      -4.644  -0.471  24.473  0.00  0.00    +0.102 C 
BRANCH   8   7
ATOM      3  C   UNL     1      -2.757  -2.017  24.894  0.00  0.00    +0.142 A 
ATOM      4  C   UNL     1      -3.252  -2.138  24.245  0.00  0.00    +0.079 A 
ATOM      5  C   UNL     1      -3.882  -1.622  24.105  0.00  0.00    +0.196 A 
ATOM      6  O   UNL     1      -4.377  -1.743  23.457  0.00  0.00    -0.287 OA
ATOM      7  C   UNL     1      -4.014  -0.986  24.613  0.00  0.00    +0.033 A 
ATOM     25  C   UNL     1      -3.519  -0.866  25.262  0.00  0.00    +0.003 A 
ATOM     26  C   UNL     1      -2.890  -1.381  25.402  0.00  0.00    +0.037 A 
BRANCH   3   2
ATOM      1  C   UNL     1      -1.352  -2.283  24.900  0.00  0.00    +0.252 C 
ATOM      2  O   UNL     1      -2.129  -2.532  25.034  0.00  0.00    -0.471 OA
ENDBRANCH   3   2
ENDBRANCH   8   7
ENDBRANCH   9   8
TORSDOF 5
ENDMDL
MODEL 3
REMARK VINA RESULT:     -10.6      2.466      5.972
REMARK  Name = 
REMARK  5 active torsions:
REMARK  status: ('A' for Active; 'I' for Inactive)
REMARK    1  A    between atoms: O_2  and  C_3
REMARK    2  A    between atoms: C_7  and  C_8
REMARK    3  A    between atoms: C_8  and  N_9
REMARK    4  A    between atoms: C_12  and  C_14
REMARK    5  A    between atoms: C_17  and  C_19
REMARK                            x       y       z     vdW  Elec       q    Type
REMARK                         _______ _______ _______ _____ _____    ______ ____
ROOT
ATOM      9  N   UNL     1      -4.425   2.755  25.315  0.00  0.00    -0.268 NA
ATOM     10  C   UNL     1      -5.169   2.593  24.999  0.00  0.00    +0.073 C 
ATOM     11  C   UNL     1      -5.133   1.858  24.626  0.00  0.00    +0.028 C 
ATOM     12  C   UNL     1      -4.366   1.567  24.712  0.00  0.00    +0.096 C 
ATOM     13  C   UNL     1      -3.928   2.122  25.138  0.00  0.00    +0.082 C 
ENDROOT
BRANCH  12  14
ATOM     14  C   UNL     1      -4.085   0.848  24.422  0.00  0.00    +0.227 A 
ATOM     15  N   UNL     1      -3.658   0.739  23.724  0.00  0.00    -0.111 NA
ATOM     16  N   UNL     1      -3.491  -0.065  23.649  0.00  0.00    -0.107 NA
ATOM     17  C   UNL     1      -3.813  -0.454  24.302  0.00  0.00    +0.251 A 
ATOM     18  O   UNL     1      -4.181   0.110  24.779  0.00  0.00    -0.419 OA
BRANCH  17  19
ATOM     19  C   UNL     1      -3.776  -1.265  24.451  0.00  0.00    +0.074 A 
ATOM     20  C   UNL     1      -3.412  -1.541  25.138  0.00  0.00    +0.104 A 
ATOM     21  N   UNL     1      -3.375  -2.352  25.287  0.00  0.00    -0.242 NA
ATOM     22  C   UNL     1      -3.700  -2.886  24.749  0.00  0.00    +0.099 A 
ATOM     23  C   UNL     1      -4.063  -2.609  24.062  0.00  0.00    +0.021 A 
ATOM     24  C   UNL     1      -4.101  -1.799  23.913  0.00  0.00    +0.008 A 
ENDBRANCH  17  19
ENDBRANCH  12  14
BRANCH   9   8
ATOM      8  C   UNL     1      -4.214   3.433  25.736  0.00  0.00    +0.102 C 
BRANCH   8   7
ATOM      3  C   UNL     1      -2.077   4.581  25.245  0.00  0.00    +0.142 A 
ATOM      4  C   UNL     1      -2.285   4.414  26.025  0.00  0.00    +0.079 A 
ATOM      5  C   UNL     1      -2.998   4.031  26.189  0.00  0.00    +0.196 A 
ATOM      6  O   UNL     1      -3.207   3.863  26.970  0.00  0.00    -0.287 OA
ATOM      7  C   UNL     1      -3.501   3.816  25.572  0.00  0.00    +0.033 A 
ATOM     25  C   UNL     1      -3.293   3.984  24.792  0.00  0.00    +0.003 A 
ATOM     26  C   UNL     1      -2.581   4.366  24.628  0.00  0.00    +0.037 A 
BRANCH   3   2
ATOM      1  C   UNL     1      -0.702   4.524  24.860  0.00  0.00    +0.252 C 
ATOM      2  O   UNL     1      -1.365   4.963  25.082  0.00  0.00    -0.471 OA
ENDBRANCH   3   2
ENDBRANCH   8   7
ENDBRANCH   9   8
TORSDOF 5
ENDMDL
MODEL 4
REMARK VINA RESULT:     -10.5      2.147      5.683
REMARK  Name = 
REMARK  5 active torsions:
REMARK  status: ('A' for Active; 'I' for Inactive)
REMARK    1  A    between atoms: O_2  and  C_3
REMARK    2  A    between atoms: C_7  and  C_8
REMARK    3  A    between atoms: C_8  and  N_9
REMARK    4  A    between atoms: C_12  and  C_14
REMARK    5  A    between atoms: C_17  and  C_19
REMARK                            x       y       z     vdW  Elec       q    Type
REMARK                         _______ _______ _______ _____ _____    ______ ____
ROOT
ATOM      9  N   UNL     1      -3.325   2.894  24.343  0.00  0.00    -0.268 NA
ATOM     10  C   UNL     1      -3.621   2.818  23.577  0.00  0.00    +0.073 C 
ATOM     11  C   UNL     1      -3.966   2.071  23.510  0.00  0.00    +0.028 C 
ATOM     12  C   UNL     1      -3.884   1.687  24.235  0.00  0.00    +0.096 C 
ATOM     13  C   UNL     1      -3.487   2.196  24.750  0.00  0.00    +0.082 C 
ENDROOT
BRANCH  12  14
ATOM     14  C   UNL     1      -4.150   0.927  24.415  0.00  0.00    +0.227 A 
ATOM     15  N   UNL     1      -4.885   0.735  24.736  0.00  0.00    -0.111 NA
ATOM     16  N   UNL     1      -4.919  -0.084  24.825  0.00  0.00    -0.107 NA
ATOM     17  C   UNL     1      -4.204  -0.399  24.557  0.00  0.00    +0.251 A 
ATOM     18  O   UNL     1      -3.729   0.227  24.304  0.00  0.00    -0.419 OA
BRANCH  17  19
ATOM     19  C   UNL     1      -4.000  -1.199  24.545  0.00  0.00    +0.074 A 
ATOM     20  C   UNL     1      -3.559  -1.521  25.164  0.00  0.00    +0.104 A 
ATOM     21  N   UNL     1      -3.355  -2.320  25.152  0.00  0.00    -0.242 NA
ATOM     22  C   UNL     1      -3.592  -2.797  24.522  0.00  0.00    +0.099 A 
ATOM     23  C   UNL     1      -4.032  -2.474  23.904  0.00  0.00    +0.021 A 
ATOM     24  C   UNL     1      -4.236  -1.675  23.915  0.00  0.00    +0.008 A 
ENDBRANCH  17  19
ENDBRANCH  12  14
BRANCH   9   8
ATOM      8  C   UNL     1      -2.936   3.554  24.649  0.00  0.00    +0.102 C 
BRANCH   8   7
ATOM      3  C   UNL     1      -0.664   3.318  25.604  0.00  0.00    +0.142 A 
ATOM      4  C   UNL     1      -1.253   3.707  26.032  0.00  0.00    +0.079 A 
ATOM      5  C   UNL     1      -2.011   3.786  25.713  0.00  0.00    +0.196 A 
ATOM      6  O   UNL     1      -2.600   4.174  26.140  0.00  0.00    -0.287 OA
ATOM      7  C   UNL     1      -2.178   3.475  24.967  0.00  0.00    +0.033 A 
ATOM     25  C   UNL     1      -1.589   3.086  24.540  0.00  0.00    +0.003 A 
ATOM     26  C   UNL     1      -0.833   3.008  24.858  0.00  0.00    +0.037 A 
BRANCH   3   2
ATOM      1  C   UNL     1       0.318   2.531  26.281  0.00  0.00    +0.252 C 
ATOM      2  O   UNL     1       0.092   3.240  25.923  0.00  0.00    -0.471 OA
ENDBRANCH   3   2
ENDBRANCH   8   7
ENDBRANCH   9   8
TORSDOF 5
ENDMDL
MODEL 5
REMARK VINA RESULT:     -10.3      1.922      5.154
REMARK  Name = 
REMARK  5 active torsions:
REMARK  status: ('A' for Active; 'I' for Inactive)
REMARK    1  A    between atoms: O_2  and  C_3
REMARK    2  A    between atoms: C_7  and  C_8
REMARK    3  A    between atoms: C_8  and  N_9
REMARK    4  A    between atoms: C_12  and  C_14
REMARK    5  A    between atoms: C_17  and  C_19
REMARK                            x       y       z     vdW  Elec       q    Type
REMARK                         _______ _______ _______ _____ _____    ______ ____
ROOT
ATOM      9  N   UNL     1      -1.764   2.517  24.606  0.00  0.00    -0.268 NA
ATOM     10  C   UNL     1      -1.344   2.358  23.914  0.00  0.00    +0.073 C 
ATOM     11  C   UNL     1      -1.209   1.544  23.881  0.00  0.00    +0.028 C 
ATOM     12  C   UNL     1      -1.546   1.202  24.552  0.00  0.00    +0.096 C 
ATOM     13  C   UNL     1      -1.890   1.804  25.000  0.00  0.00    +0.082 C 
ENDROOT
BRANCH  12  14
ATOM     14  C   UNL     1      -1.541   0.400  24.742  0.00  0.00    +0.227 A 
ATOM     15  N   UNL     1      -0.938  -0.001  25.138  0.00  0.00    -0.111 NA
ATOM     16  N   UNL     1      -1.162  -0.792  25.211  0.00  0.00    -0.107 NA
ATOM     17  C   UNL     1      -1.903  -0.880  24.860  0.00  0.00    +0.251 A 
ATOM     18  O   UNL     1      -2.138  -0.143  24.570  0.00  0.00    -0.419 OA
BRANCH  17  19
ATOM     19  C   UNL     1      -2.335  -1.582  24.807  0.00  0.00    +0.074 A 
ATOM     20  C   UNL     1      -2.021  -2.229  24.404  0.00  0.00    +0.104 A 
ATOM     21  N   UNL     1      -2.453  -2.931  24.351  0.00  0.00    -0.242 NA
ATOM     22  C   UNL     1      -3.198  -2.984  24.702  0.00  0.00    +0.099 A 
ATOM     23  C   UNL     1      -3.511  -2.336  25.105  0.00  0.00    +0.021 A 
ATOM     24  C   UNL     1      -3.080  -1.635  25.158  0.00  0.00    +0.008 A 
ENDBRANCH  17  19
ENDBRANCH  12  14
BRANCH   9   8
ATOM      8  C   UNL     1      -2.016   3.261  24.859  0.00  0.00    +0.102 C 
BRANCH   8   7
ATOM      3  C   UNL     1      -4.418   3.676  25.293  0.00  0.00    +0.142 A 
ATOM      4  C   UNL     1      -3.852   3.911  25.845  0.00  0.00    +0.079 A 
ATOM      5  C   UNL     1      -3.051   3.773  25.701  0.00  0.00    +0.196 A 
ATOM      6  O   UNL     1      -2.485   4.008  26.253  0.00  0.00    -0.287 OA
ATOM      7  C   UNL     1      -2.817   3.399  25.003  0.00  0.00    +0.033 A 
ATOM     25  C   UNL     1      -3.383   3.164  24.451  0.00  0.00    +0.003 A 
ATOM     26  C   UNL     1      -4.182   3.302  24.596  0.00  0.00    +0.037 A 
BRANCH   3   2
ATOM      1  C   UNL     1      -5.711   3.189  25.659  0.00  0.00    +0.252 C 
ATOM      2  O   UNL     1      -5.217   3.814  25.438  0.00  0.00    -0.471 OA
ENDBRANCH   3   2
ENDBRANCH   8   7
ENDBRANCH   9   8
TORSDOF 5
ENDMDL
MODEL 6
REMARK VINA RESULT:     -10.1      1.390      5.167
REMARK  Name = 
REMARK  5 active torsions:
REMARK  status: ('A' for Active; 'I' for Inactive)
REMARK    1  A    between atoms: O_2  and  C_3
REMARK    2  A    between atoms: C_7  and  C_8
REMARK    3  A    between atoms: C_8  and  N_9
REMARK    4  A    between atoms: C_12  and  C_14
REMARK    5  A    between atoms: C_17  and  C_19
REMARK                            x       y       z     vdW  Elec       q    Type
REMARK                         _______ _______ _______ _____ _____    ______ ____
ROOT
ATOM      9  N   UNL     1      -0.088   1.240  24.701  0.00  0.00    -0.268 NA
ATOM     10  C   UNL     1       0.143   0.966  23.959  0.00  0.00    +0.073 C 
ATOM     11  C   UNL     1      -0.224   0.237  23.832  0.00  0.00    +0.028 C 
ATOM     12  C   UNL     1      -0.681   0.063  24.496  0.00  0.00    +0.096 C 
ATOM     13  C   UNL     1      -0.597   0.684  25.034  0.00  0.00    +0.082 C 
ENDROOT
BRANCH  12  14
ATOM     14  C   UNL     1      -1.141  -0.613  24.605  0.00  0.00    +0.227 A 
ATOM     15  N   UNL     1      -0.916  -1.292  25.018  0.00  0.00    -0.111 NA
ATOM     16  N   UNL     1      -1.542  -1.827  24.988  0.00  0.00    -0.107 NA
ATOM     17  C   UNL     1      -2.155  -1.481  24.557  0.00  0.00    +0.251 A 
ATOM     18  O   UNL     1      -1.906  -0.730  24.320  0.00  0.00    -0.419 OA
BRANCH  17  19
ATOM     19  C   UNL     1      -2.887  -1.824  24.392  0.00  0.00    +0.074 A 
ATOM     20  C   UNL     1      -2.976  -2.643  24.431  0.00  0.00    +0.104 A 
ATOM     21  N   UNL     1      -3.709  -2.986  24.266  0.00  0.00    -0.242 NA
ATOM     22  C   UNL     1      -4.350  -2.510  24.061  0.00  0.00    +0.099 A 
ATOM     23  C   UNL     1      -4.260  -1.691  24.021  0.00  0.00    +0.021 A 
ATOM     24  C   UNL     1      -3.529  -1.348  24.186  0.00  0.00    +0.008 A 
ENDBRANCH  17  19
ENDBRANCH  12  14
BRANCH   9   8
ATOM      8  C   UNL     1       0.148   1.950  25.050  0.00  0.00    +0.102 C 
BRANCH   8   7
ATOM      3  C   UNL     1      -1.504   3.752  25.437  0.00  0.00    +0.142 A 
ATOM      4  C   UNL     1      -1.039   3.478  26.061  0.00  0.00    +0.079 A 
ATOM      5  C   UNL     1      -0.488   2.877  25.932  0.00  0.00    +0.196 A 
ATOM      6  O   UNL     1      -0.023   2.602  26.556  0.00  0.00    -0.287 OA
ATOM      7  C   UNL     1      -0.403   2.551  25.179  0.00  0.00    +0.033 A 
ATOM     25  C   UNL     1      -0.868   2.825  24.555  0.00  0.00    +0.003 A 
ATOM     26  C   UNL     1      -1.418   3.425  24.684  0.00  0.00    +0.037 A 
BRANCH   3   2
ATOM      1  C   UNL     1      -2.854   4.167  25.655  0.00  0.00    +0.252 C 
ATOM      2  O   UNL     1      -2.054   4.352  25.566  0.00  0.00    -0.471 OA
ENDBRANCH   3   2
ENDBRANCH   8   7
ENDBRANCH   9   8
TORSDOF 5
ENDMDL
MODEL 7
REMARK VINA RESULT:      -9.9      2.126      3.184
REMARK  Name = 
REMARK  5 active torsions:
REMARK  status: ('A' for Active; 'I' for Inactive)
REMARK    1  A    between atoms: O_2  and  C_3
REMARK    2  A    between atoms: C_7  and  C_8
REMARK    3  A    between atoms: C_8  and  N_9
REMARK    4  A    between atoms: C_12  and  C_14
REMARK    5  A    between atoms: C_17  and  C_19
REMARK                            x       y       z     vdW  Elec       q    Type
REMARK                         _______ _______ _______ _____ _____    ______ ____
ROOT
ATOM      9  N   UNL     1      -0.705   1.776  24.903  0.00  0.00    -0.268 NA
ATOM     10  C   UNL     1      -0.526   2.344  25.475  0.00  0.00    +0.073 C 
ATOM     11  C   UNL     1      -1.197   2.811  25.587  0.00  0.00    +0.028 C 
ATOM     12  C   UNL     1      -1.790   2.531  25.085  0.00  0.00    +0.096 C 
ATOM     13  C   UNL     1      -1.484   1.891  24.663  0.00  0.00    +0.082 C 
ENDROOT
BRANCH  12  14
ATOM     14  C   UNL     1      -2.552   2.837  25.017  0.00  0.00    +0.227 A 
ATOM     15  N   UNL     1      -2.753   3.573  24.703  0.00  0.00    -0.111 NA
ATOM     16  N   UNL     1      -3.573   3.653  24.743  0.00  0.00    -0.107 NA
ATOM     17  C   UNL     1      -3.880   2.966  25.082  0.00  0.00    +0.251 A 
ATOM     18  O   UNL     1      -3.248   2.462  25.252  0.00  0.00    -0.419 OA
BRANCH  17  19
ATOM     19  C   UNL     1      -4.677   2.810  25.227  0.00  0.00    +0.074 A 
ATOM     20  C   UNL     1      -5.094   3.267  25.773  0.00  0.00    +0.104 A 
ATOM     21  N   UNL     1      -5.891   3.111  25.918  0.00  0.00    -0.242 NA
ATOM     22  C   UNL     1      -6.271   2.498  25.516  0.00  0.00    +0.099 A 
ATOM     23  C   UNL     1      -5.854   2.042  24.970  0.00  0.00    +0.021 A 
ATOM     24  C   UNL     1      -5.057   2.198  24.825  0.00  0.00    +0.008 A 
ENDBRANCH  17  19
ENDBRANCH  12  14
BRANCH   9   8
ATOM      8  C   UNL     1      -0.192   1.194  24.622  0.00  0.00    +0.102 C 
BRANCH   8   7
ATOM      3  C   UNL     1      -0.784  -1.198  24.860  0.00  0.00    +0.142 A 
ATOM      4  C   UNL     1      -0.394  -0.935  24.182  0.00  0.00    +0.079 A 
ATOM      5  C   UNL     1      -0.197  -0.137  24.102  0.00  0.00    +0.196 A 
ATOM      6  O   UNL     1       0.193   0.126  23.425  0.00  0.00    -0.287 OA
ATOM      7  C   UNL     1      -0.389   0.396  24.702  0.00  0.00    +0.033 A 
ATOM     25  C   UNL     1      -0.779   0.133  25.379  0.00  0.00    +0.003 A 
ATOM     26  C   UNL     1      -0.976  -0.664  25.458  0.00  0.00    +0.037 A 
BRANCH   3   2
ATOM      1  C   UNL     1      -1.712  -2.268  24.669  0.00  0.00    +0.252 C 
ATOM      2  O   UNL     1      -0.980  -1.995  24.938  0.00  0.00    -0.471 OA
ENDBRANCH   3   2
ENDBRANCH   8   7
ENDBRANCH   9   8
TORSDOF 5
ENDMDL
MODEL 8
REMARK VINA RESULT:      -8.4     16.118     18.017
REMARK  Name = 
REMARK  5 active torsions:
REMARK  status: ('A' for Active; 'I' for Inactive)
REMARK    1  A    between atoms: O_2  and  C_3
REMARK    2  A    between atoms: C_7  and  C_8
REMARK    3  A    between atoms: C_8  and  N_9
REMARK    4  A    between atoms: C_12  and  C_14
REMARK    5  A    between atoms: C_17  and  C_19
REMARK                            x       y       z     vdW  Elec       q    Type
REMARK                         _______ _______ _______ _____ _____    ______ ____
ROOT
ATOM      9  N   UNL     1      14.438   7.301  18.622  0.00  0.00    -0.268 NA
ATOM     10  C   UNL     1      14.242   7.877  18.064  0.00  0.00    +0.073 C 
ATOM     11  C   UNL     1      13.485   8.153  18.239  0.00  0.00    +0.028 C 
ATOM     12  C   UNL     1      13.213   7.748  18.904  0.00  0.00    +0.096 C 
ATOM     13  C   UNL     1      13.803   7.222  19.141  0.00  0.00    +0.082 C 
ENDROOT
BRANCH  12  14
ATOM     14  C   UNL     1      12.480   7.851  19.269  0.00  0.00    +0.227 A 
ATOM     15  N   UNL     1      11.756   7.943  18.885  0.00  0.00    -0.111 NA
ATOM     16  N   UNL     1      11.171   8.029  19.460  0.00  0.00    -0.107 NA
ATOM     17  C   UNL     1      11.534   7.991  20.200  0.00  0.00    +0.251 A 
ATOM     18  O   UNL     1      12.343   7.881  20.082  0.00  0.00    -0.419 OA
BRANCH  17  19
ATOM     19  C   UNL     1      11.154   8.052  20.931  0.00  0.00    +0.074 A 
ATOM     20  C   UNL     1      10.885   7.372  21.313  0.00  0.00    +0.104 A 
ATOM     21  N   UNL     1      10.505   7.433  22.043  0.00  0.00    -0.242 NA
ATOM     22  C   UNL     1      10.396   8.173  22.391  0.00  0.00    +0.099 A 
ATOM     23  C   UNL     1      10.666   8.852  22.008  0.00  0.00    +0.021 A 
ATOM     24  C   UNL     1      11.045   8.792  21.278  0.00  0.00    +0.008 A 
ENDBRANCH  17  19
ENDBRANCH  12  14
BRANCH   9   8
ATOM      8  C   UNL     1      15.146   6.879  18.654  0.00  0.00    +0.102 C 
BRANCH   8   7
ATOM      3  C   UNL     1      16.841   7.435  20.372  0.00  0.00    +0.142 A 
ATOM      4  C   UNL     1      16.823   6.680  20.038  0.00  0.00    +0.079 A 
ATOM      5  C   UNL     1      16.258   6.495  19.466  0.00  0.00    +0.196 A 
ATOM      6  O   UNL     1      16.240   5.740  19.132  0.00  0.00    -0.287 OA
ATOM      7  C   UNL     1      15.711   7.065  19.227  0.00  0.00    +0.033 A 
ATOM     25  C   UNL     1      15.729   7.819  19.561  0.00  0.00    +0.003 A 
ATOM     26  C   UNL     1      16.293   8.004  20.132  0.00  0.00    +0.037 A 
BRANCH   3   2
ATOM      1  C   UNL     1      17.315   8.295  21.409  0.00  0.00    +0.252 C 
ATOM      2  O   UNL     1      17.405   7.619  20.944  0.00  0.00    -0.471 OA
ENDBRANCH   3   2
ENDBRANCH   8   7
ENDBRANCH   9   8
TORSDOF 5
ENDMDL
MODEL 9
REMARK VINA RESULT:      -8.2     16.504     18.006
REMARK  Name = 
REMARK  5 active torsions:
REMARK  status: ('A' for Active; 'I' for Inactive)
REMARK    1  A    between atoms: O_2  and  C_3
REMARK    2  A    between atoms: C_7  and  C_8
REMARK    3  A    between atoms: C_8  and  N_9
REMARK    4  A    between atoms: C_12  and  C_14
REMARK    5  A    between atoms: C_17  and  C_19
REMARK                            x       y       z     vdW  Elec       q    Type
REMARK                         _______ _______ _______ _____ _____    ______ ____
ROOT
ATOM      9  N   UNL     1      13.547   7.166  20.436  0.00  0.00    -0.268 NA
ATOM     10  C   UNL     1      13.129   6.473  20.276  0.00  0.00    +0.073 C 
ATOM     11  C   UNL     1      12.521   6.659  19.750  0.00  0.00    +0.028 C 
ATOM     12  C   UNL     1      12.563   7.466  19.586  0.00  0.00    +0.096 C 
ATOM     13  C   UNL     1      13.198   7.779  20.010  0.00  0.00    +0.082 C 
ENDROOT
BRANCH  12  14
ATOM     14  C   UNL     1      12.060   7.887  19.086  0.00  0.00    +0.227 A 
ATOM     15  N   UNL     1      11.405   8.331  19.320  0.00  0.00    -0.111 NA
ATOM     16  N   UNL     1      11.063   8.656  18.644  0.00  0.00    -0.107 NA
ATOM     17  C   UNL     1      11.506   8.413  17.991  0.00  0.00    +0.251 A 
ATOM     18  O   UNL     1      12.123   7.937  18.265  0.00  0.00    -0.419 OA
BRANCH  17  19
ATOM     19  C   UNL     1      11.359   8.610  17.203  0.00  0.00    +0.074 A 
ATOM     20  C   UNL     1      11.971   8.896  16.729  0.00  0.00    +0.104 A 
ATOM     21  N   UNL     1      11.824   9.093  15.941  0.00  0.00    -0.242 NA
ATOM     22  C   UNL     1      11.066   9.005  15.629  0.00  0.00    +0.099 A 
ATOM     23  C   UNL     1      10.455   8.720  16.104  0.00  0.00    +0.021 A 
ATOM     24  C   UNL     1      10.601   8.523  16.891  0.00  0.00    +0.008 A 
ENDBRANCH  17  19
ENDBRANCH  12  14
BRANCH   9   8
ATOM      8  C   UNL     1      14.200   7.232  20.935  0.00  0.00    +0.102 C 
BRANCH   8   7
ATOM      3  C   UNL     1      16.455   6.626  20.112  0.00  0.00    +0.142 A 
ATOM      4  C   UNL     1      16.348   6.839  20.901  0.00  0.00    +0.079 A 
ATOM      5  C   UNL     1      15.596   7.041  21.176  0.00  0.00    +0.196 A 
ATOM      6  O   UNL     1      15.489   7.254  21.966  0.00  0.00    -0.287 OA
ATOM      7  C   UNL     1      14.952   7.030  20.660  0.00  0.00    +0.033 A 
ATOM     25  C   UNL     1      15.060   6.817  19.870  0.00  0.00    +0.003 A 
ATOM     26  C   UNL     1      15.811   6.615  19.596  0.00  0.00    +0.037 A 
BRANCH   3   2
ATOM      1  C   UNL     1      17.287   5.908  19.198  0.00  0.00    +0.252 C 
ATOM      2  O   UNL     1      17.206   6.424  19.838  0.00  0.00    -0.471 OA
ENDBRANCH   3   2
ENDBRANCH   8   7
ENDBRANCH   9   8
TORSDOF 5
ENDMDL
MODEL 10
REMARK VINA RESULT:      -8.0     15.550     17.453
REMARK  Name = 
REMARK  5 active torsions:
REMARK  status: ('A' for Active; 'I' for Inactive)
REMARK    1  A    between atoms: O_2  and  C_3
REMARK    2  A    between atoms: C_7  and  C_8
REMARK    3  A    between atoms: C_8  and  N_9
REMARK    4  A    between atoms: C_12  and  C_14
REMARK    5  A    between atoms: C_17  and  C_19
REMARK                            x       y       z     vdW  Elec       q    Type
REMARK                         _______ _______ _______ _____ _____    ______ ____
ROOT
ATOM      9  N   UNL     1      11.917   7.222  19.686  0.00  0.00    -0.268 NA
ATOM     10  C   UNL     1      11.817   7.743  19.055  0.00  0.00    +0.073 C 
ATOM     11  C   UNL     1      12.552   7.853  18.696  0.00  0.00    +0.028 C 
ATOM     12  C   UNL     1      13.106   7.399  19.106  0.00  0.00    +0.096 C 
ATOM     13  C   UNL     1      12.713   7.009  19.718  0.00  0.00    +0.082 C 
ENDROOT
BRANCH  12  14
ATOM     14  C   UNL     1      13.911   7.344  18.934  0.00  0.00    +0.227 A 
ATOM     15  N   UNL     1      14.277   7.598  18.239  0.00  0.00    -0.111 NA
ATOM     16  N   UNL     1      15.083   7.437  18.302  0.00  0.00    -0.107 NA
ATOM     17  C   UNL     1      15.216   7.083  19.036  0.00  0.00    +0.251 A 
ATOM     18  O   UNL     1      14.491   7.026  19.427  0.00  0.00    -0.419 OA
BRANCH  17  19
ATOM     19  C   UNL     1      15.946   6.831  19.329  0.00  0.00    +0.074 A 
ATOM     20  C   UNL     1      16.319   6.176  18.995  0.00  0.00    +0.104 A 
ATOM     21  N   UNL     1      17.049   5.924  19.287  0.00  0.00    -0.242 NA
ATOM     22  C   UNL     1      17.404   6.327  19.913  0.00  0.00    +0.099 A 
ATOM     23  C   UNL     1      17.030   6.983  20.246  0.00  0.00    +0.021 A 
ATOM     24  C   UNL     1      16.301   7.235  19.954  0.00  0.00    +0.008 A 
ENDBRANCH  17  19
ENDBRANCH  12  14
BRANCH   9   8
ATOM      8  C   UNL     1      11.325   6.959  20.196  0.00  0.00    +0.102 C 
BRANCH   8   7
ATOM      3  C   UNL     1      10.648   8.351  22.128  0.00  0.00    +0.142 A 
ATOM      4  C   UNL     1      10.688   7.530  22.205  0.00  0.00    +0.079 A 
ATOM      5  C   UNL     1      10.914   7.066  21.560  0.00  0.00    +0.196 A 
ATOM      6  O   UNL     1      10.954   6.245  21.637  0.00  0.00    -0.287 OA
ATOM      7  C   UNL     1      11.099   7.423  20.840  0.00  0.00    +0.033 A 
ATOM     25  C   UNL     1      11.059   8.244  20.764  0.00  0.00    +0.003 A 
ATOM     26  C   UNL     1      10.833   8.707  21.408  0.00  0.00    +0.037 A 
BRANCH   3   2
ATOM      1  C   UNL     1      10.993   9.094  23.299  0.00  0.00    +0.252 C 
ATOM      2  O   UNL     1      10.423   8.814  22.772  0.00  0.00    -0.471 OA
ENDBRANCH   3   2
ENDBRANCH   8   7
ENDBRANCH   9   8
TORSDOF 5
ENDMDL
