MODEL 1
REMARK VINA RESULT:     -11.8      0.000      0.000
REMARK  Name = 
REMARK  7 active torsions:
REMARK  status: ('A' for Active; 'I' for Inactive)
REMARK    1  A    between atoms: C_2  and  C_4
REMARK    2  A    between atoms: C_4  and  O_5
REMARK    3  A    between atoms: O_5  and  C_6
REMARK    4  A    between atoms: C_6  and  C_7
REMARK    5  A    between atoms: C_16  and  C_23
REMARK    6  A    between atoms: C_26  and  O_27
REMARK    7  A    between atoms: O_27  and  C_28
REMARK                            x       y       z     vdW  Elec       q    Type
REMARK                         _______ _______ _______ _____ _____    ______ ____
ROOT
ATOM      7  C   UNL     1      -3.081   2.884  24.342  0.00  0.00    +0.256 C 
ATOM      8  O   UNL     1      -3.798   2.639  24.670  0.00  0.00    -0.272 OA
ATOM      9  N   UNL     1      -2.519   2.325  24.113  0.00  0.00    -0.277 N 
ATOM     10  C   UNL     1      -1.804   2.019  23.807  0.00  0.00    +0.095 C 
ATOM     11  C   UNL     1      -1.976   1.053  23.921  0.00  0.00    +0.043 C 
ATOM     12  C   UNL     1      -1.963   0.239  23.947  0.00  0.00    +0.011 C 
ATOM     13  C   UNL     1      -2.403   0.756  24.122  0.00  0.00    +0.058 C 
ATOM     14  C   UNL     1      -2.222   1.687  24.006  0.00  0.00    +0.099 C 
ATOM     15  C   UNL     1      -3.234   0.903  24.486  0.00  0.00    +0.041 A 
ATOM     16  C   UNL     1      -3.882   0.493  24.790  0.00  0.00    +0.012 A 
ATOM     17  C   UNL     1      -4.540   0.907  25.066  0.00  0.00    +0.006 A 
ATOM     18  C   UNL     1      -4.549   1.732  25.039  0.00  0.00    +0.061 A 
ATOM     19  C   UNL     1      -3.902   2.142  24.735  0.00  0.00    +0.261 A 
ATOM     20  O   UNL     1      -4.144   2.927  24.812  0.00  0.00    -0.267 OA
ATOM     21  N   UNL     1      -3.244   1.728  24.459  0.00  0.00    -0.299 N 
ATOM     22  C   UNL     1      -2.843   1.216  24.300  0.00  0.00    +0.110 C 
ENDROOT
BRANCH  16  23
ATOM     23  C   UNL     1      -3.872  -0.332  24.818  0.00  0.00    +0.001 A 
ATOM     24  C   UNL     1      -4.166  -0.769  24.183  0.00  0.00    +0.003 A 
ATOM     25  C   UNL     1      -4.156  -1.594  24.211  0.00  0.00    +0.037 A 
ATOM     26  C   UNL     1      -3.852  -1.981  24.873  0.00  0.00    +0.147 A 
ATOM     32  C   UNL     1      -3.558  -1.544  25.507  0.00  0.00    +0.037 A 
ATOM     33  C   UNL     1      -3.568  -0.719  25.479  0.00  0.00    +0.003 A 
BRANCH  26  27
ATOM     27  O   UNL     1      -3.842  -2.805  24.900  0.00  0.00    -0.404 OA
BRANCH  27  28
ATOM     28  C   UNL     1      -3.302  -3.227  24.441  0.00  0.00    +0.575 C 
ATOM     29  F   UNL     1      -2.762  -3.649  23.983  0.00  0.00    -0.133 F 
ATOM     30  F   UNL     1      -2.717  -3.094  25.008  0.00  0.00    -0.133 F 
ATOM     31  F   UNL     1      -3.887  -3.359  23.875  0.00  0.00    -0.133 F 
ENDBRANCH  27  28
ENDBRANCH  26  27
ENDBRANCH  16  23
BRANCH   7   6
ATOM      6  C   UNL     1      -2.927   3.688  24.242  0.00  0.00    +0.228 C 
BRANCH   6   5
ATOM      5  O   UNL     1      -2.431   4.082  24.772  0.00  0.00    -0.333 OA
BRANCH   5   4
ATOM      4  C   UNL     1      -2.142   4.833  24.586  0.00  0.00    +0.257 C 
BRANCH   4   2
ATOM      1  O   UNL     1      -1.927   5.603  25.770  0.00  0.00    -0.243 OA
ATOM      2  C   UNL     1      -1.628   5.216  25.105  0.00  0.00    +0.394 C 
ATOM      3  O   UNL     1      -0.815   5.212  24.960  0.00  0.00    -0.243 OA
ENDBRANCH   4   2
ENDBRANCH   5   4
ENDBRANCH   6   5
ENDBRANCH   7   6
TORSDOF 7
ENDMDL
MODEL 2
REMARK VINA RESULT:     -11.7      2.802      5.370
REMARK  Name = 
REMARK  7 active torsions:
REMARK  status: ('A' for Active; 'I' for Inactive)
REMARK    1  A    between atoms: C_2  and  C_4
REMARK    2  A    between atoms: C_4  and  O_5
REMARK    3  A    between atoms: O_5  and  C_6
REMARK    4  A    between atoms: C_6  and  C_7
REMARK    5  A    between atoms: C_16  and  C_23
REMARK    6  A    between atoms: C_26  and  O_27
REMARK    7  A    between atoms: O_27  and  C_28
REMARK                            x       y       z     vdW  Elec       q    Type
REMARK                         _______ _______ _______ _____ _____    ______ ____
ROOT
ATOM      7  C   UNL     1      -3.832  -0.027  24.201  0.00  0.00    +0.256 C 
ATOM      8  O   UNL     1      -4.358   0.499  24.559  0.00  0.00    -0.272 OA
ATOM      9  N   UNL     1      -3.056   0.208  24.046  0.00  0.00    -0.277 N 
ATOM     10  C   UNL     1      -2.265   0.158  23.781  0.00  0.00    +0.095 C 
ATOM     11  C   UNL     1      -1.953   1.064  24.020  0.00  0.00    +0.043 C 
ATOM     12  C   UNL     1      -1.549   1.759  24.150  0.00  0.00    +0.011 C 
ATOM     13  C   UNL     1      -2.195   1.507  24.258  0.00  0.00    +0.058 C 
ATOM     14  C   UNL     1      -2.481   0.627  24.022  0.00  0.00    +0.099 C 
ATOM     15  C   UNL     1      -3.013   1.745  24.601  0.00  0.00    +0.041 A 
ATOM     16  C   UNL     1      -3.398   2.382  24.957  0.00  0.00    +0.012 A 
ATOM     17  C   UNL     1      -4.190   2.314  25.178  0.00  0.00    +0.006 A 
ATOM     18  C   UNL     1      -4.597   1.609  25.044  0.00  0.00    +0.061 A 
ATOM     19  C   UNL     1      -4.212   0.972  24.689  0.00  0.00    +0.261 A 
ATOM     20  O   UNL     1      -4.809   0.403  24.664  0.00  0.00    -0.267 OA
ATOM     21  N   UNL     1      -3.420   1.040  24.467  0.00  0.00    -0.299 N 
ATOM     22  C   UNL     1      -2.812   1.304  24.376  0.00  0.00    +0.110 C 
ENDROOT
BRANCH  16  23
ATOM     23  C   UNL     1      -2.991   3.087  25.091  0.00  0.00    +0.001 A 
ATOM     24  C   UNL     1      -2.568   3.192  25.791  0.00  0.00    +0.003 A 
ATOM     25  C   UNL     1      -2.161   3.898  25.926  0.00  0.00    +0.037 A 
ATOM     26  C   UNL     1      -2.177   4.497  25.359  0.00  0.00    +0.147 A 
ATOM     32  C   UNL     1      -2.600   4.392  24.659  0.00  0.00    +0.037 A 
ATOM     33  C   UNL     1      -3.007   3.687  24.525  0.00  0.00    +0.003 A 
BRANCH  26  27
ATOM     27  O   UNL     1      -1.770   5.202  25.493  0.00  0.00    -0.404 OA
BRANCH  27  28
ATOM     28  C   UNL     1      -1.105   5.387  25.041  0.00  0.00    +0.575 C 
ATOM     29  F   UNL     1      -0.441   5.572  24.590  0.00  0.00    -0.133 F 
ATOM     30  F   UNL     1      -0.672   4.812  25.444  0.00  0.00    -0.133 F 
ATOM     31  F   UNL     1      -1.539   5.962  24.639  0.00  0.00    -0.133 F 
ENDBRANCH  27  28
ENDBRANCH  26  27
ENDBRANCH  16  23
BRANCH   7   6
ATOM      6  C   UNL     1      -4.082  -0.786  23.998  0.00  0.00    +0.228 C 
BRANCH   6   5
ATOM      5  O   UNL     1      -3.836  -1.435  24.445  0.00  0.00    -0.333 OA
BRANCH   5   4
ATOM      4  C   UNL     1      -4.081  -2.196  24.238  0.00  0.00    +0.257 C 
BRANCH   4   2
ATOM      1  O   UNL     1      -3.323  -3.380  23.985  0.00  0.00    -0.243 OA
ATOM      2  C   UNL     1      -3.666  -2.852  24.518  0.00  0.00    +0.394 C 
ATOM      3  O   UNL     1      -3.596  -2.980  25.330  0.00  0.00    -0.243 OA
ENDBRANCH   4   2
ENDBRANCH   5   4
ENDBRANCH   6   5
ENDBRANCH   7   6
TORSDOF 7
ENDMDL
MODEL 3
REMARK VINA RESULT:     -11.1      3.085      4.395
REMARK  Name = 
REMARK  7 active torsions:
REMARK  status: ('A' for Active; 'I' for Inactive)
REMARK    1  A    between atoms: C_2  and  C_4
REMARK    2  A    between atoms: C_4  and  O_5
REMARK    3  A    between atoms: O_5  and  C_6
REMARK    4  A    between atoms: C_6  and  C_7
REMARK    5  A    between atoms: C_16  and  C_23
REMARK    6  A    between atoms: C_26  and  O_27
REMARK    7  A    between atoms: O_27  and  C_28
REMARK                            x       y       z     vdW  Elec       q    Type
REMARK                         _______ _______ _______ _____ _____    ______ ____
ROOT
ATOM      7  C   UNL     1      -0.340   0.709  24.107  0.00  0.00    +0.256 C 
ATOM      8  O   UNL     1      -0.443   1.522  24.002  0.00  0.00    -0.272 OA
ATOM      9  N   UNL     1      -0.977   0.240  24.343  0.00  0.00    -0.277 N 
ATOM     10  C   UNL     1      -1.401  -0.446  24.561  0.00  0.00    +0.095 C 
ATOM     11  C   UNL     1      -2.291  -0.048  24.721  0.00  0.00    +0.043 C 
ATOM     12  C   UNL     1      -3.070   0.121  24.890  0.00  0.00    +0.011 C 
ATOM     13  C   UNL     1      -2.495   0.470  24.689  0.00  0.00    +0.058 C 
ATOM     14  C   UNL     1      -1.641   0.070  24.538  0.00  0.00    +0.099 C 
ATOM     15  C   UNL     1      -2.202   1.315  24.479  0.00  0.00    +0.041 A 
ATOM     16  C   UNL     1      -2.474   2.092  24.422  0.00  0.00    +0.012 A 
ATOM     17  C   UNL     1      -1.958   2.694  24.195  0.00  0.00    +0.006 A 
ATOM     18  C   UNL     1      -1.169   2.519  24.025  0.00  0.00    +0.061 A 
ATOM     19  C   UNL     1      -0.897   1.743  24.081  0.00  0.00    +0.261 A 
ATOM     20  O   UNL     1      -0.105   1.823  23.868  0.00  0.00    -0.267 OA
ATOM     21  N   UNL     1      -1.414   1.141  24.308  0.00  0.00    -0.299 N 
ATOM     22  C   UNL     1      -1.975   0.832  24.500  0.00  0.00    +0.110 C 
ENDROOT
BRANCH  16  23
ATOM     23  C   UNL     1      -3.262   2.267  24.593  0.00  0.00    +0.001 A 
ATOM     24  C   UNL     1      -3.836   2.199  24.005  0.00  0.00    +0.003 A 
ATOM     25  C   UNL     1      -4.624   2.374  24.175  0.00  0.00    +0.037 A 
ATOM     26  C   UNL     1      -4.838   2.616  24.934  0.00  0.00    +0.147 A 
ATOM     32  C   UNL     1      -4.264   2.683  25.523  0.00  0.00    +0.037 A 
ATOM     33  C   UNL     1      -3.476   2.508  25.352  0.00  0.00    +0.003 A 
BRANCH  26  27
ATOM     27  O   UNL     1      -5.626   2.790  25.105  0.00  0.00    -0.404 OA
BRANCH  27  28
ATOM     28  C   UNL     1      -6.095   2.238  25.498  0.00  0.00    +0.575 C 
ATOM     29  F   UNL     1      -6.564   1.685  25.892  0.00  0.00    -0.133 F 
ATOM     30  F   UNL     1      -6.321   1.914  24.774  0.00  0.00    -0.133 F 
ATOM     31  F   UNL     1      -5.869   2.561  26.223  0.00  0.00    -0.133 F 
ENDBRANCH  27  28
ENDBRANCH  26  27
ENDBRANCH  16  23
BRANCH   7   6
ATOM      6  C   UNL     1       0.398   0.366  23.976  0.00  0.00    +0.228 C 
BRANCH   6   5
ATOM      5  O   UNL     1       0.663   0.240  23.205  0.00  0.00    -0.333 OA
BRANCH   5   4
ATOM      4  C   UNL     1       1.338  -0.217  23.070  0.00  0.00    +0.257 C 
BRANCH   4   2
ATOM      1  O   UNL     1       1.422  -0.349  21.650  0.00  0.00    -0.243 OA
ATOM      2  C   UNL     1       1.762  -0.127  22.369  0.00  0.00    +0.394 C 
ATOM      3  O   UNL     1       2.526   0.185  22.385  0.00  0.00    -0.243 OA
ENDBRANCH   4   2
ENDBRANCH   5   4
ENDBRANCH   6   5
ENDBRANCH   7   6
TORSDOF 7
ENDMDL
