MODEL 1
REMARK VINA RESULT:      -9.1      0.000      0.000
REMARK  Name = 
REMARK  8 active torsions:
REMARK  status: ('A' for Active; 'I' for Inactive)
REMARK    1  A    between atoms: N_6  and  C_7
REMARK    2  A    between atoms: C_7  and  C_8
REMARK    3  A    between atoms: C_11  and  S_14
REMARK    4  A    between atoms: C_23  and  C_24
REMARK    5  A    between atoms: C_24  and  C_25
REMARK    6  A    between atoms: C_25  and  C_26
REMARK    7  A    between atoms: N_28  and  C_29
REMARK    8  A    between atoms: C_29  and  C_30
REMARK                            x       y       z     vdW  Elec       q    Type
REMARK                         _______ _______ _______ _____ _____    ______ ____
ROOT
ATOM      1  C   UNL     1       0.394   1.962  23.781  0.00  0.00    +0.090 C 
ATOM      2  N   UNL     1      -0.134   1.336  23.877  0.00  0.00    -0.271 NA
ATOM      3  C   UNL     1      -0.889   1.540  24.138  0.00  0.00    +0.083 C 
ATOM      4  C   UNL     1      -1.121   2.315  24.299  0.00  0.00    +0.035 C 
ATOM      5  C   UNL     1      -1.907   2.301  24.546  0.00  0.00    +0.074 C 
ATOM      6  N   UNL     1      -2.163   1.516  24.538  0.00  0.00    -0.262 NA
ATOM     18  C   UNL     1      -1.534   1.046  24.286  0.00  0.00    +0.151 C 
ATOM     19  C   UNL     1      -1.582   0.227  24.209  0.00  0.00    +0.257 C 
ATOM     20  O   UNL     1      -2.310  -0.110  24.401  0.00  0.00    -0.272 OA
ATOM     21  N   UNL     1      -0.998  -0.302  23.964  0.00  0.00    -0.203 NA
ATOM     22  C   UNL     1      -0.220  -0.141  23.737  0.00  0.00    +0.131 C 
ATOM     23  C   UNL     1       0.164   0.587  23.698  0.00  0.00    +0.080 C 
ENDROOT
BRANCH   6   7
ATOM      7  C   UNL     1      -2.916   1.249  24.745  0.00  0.00    +0.100 C 
BRANCH   7   8
ATOM      8  C   UNL     1      -3.516   1.792  24.903  0.00  0.00    -0.006 A 
ATOM      9  C   UNL     1      -3.563   2.153  25.644  0.00  0.00    -0.002 A 
ATOM     10  C   UNL     1      -4.164   2.696  25.800  0.00  0.00    +0.018 A 
ATOM     11  C   UNL     1      -4.718   2.878  25.217  0.00  0.00    +0.106 A 
ATOM     12  C   UNL     1      -4.671   2.517  24.477  0.00  0.00    +0.018 A 
ATOM     13  C   UNL     1      -4.071   1.974  24.320  0.00  0.00    -0.002 A 
BRANCH  11  14
ATOM     14  S   UNL     1      -5.319   3.421  25.374  0.00  0.00    +0.010 S 
ATOM     15  C   UNL     1      -5.920   3.964  25.531  0.00  0.00    +0.182 C 
ATOM     16  O   UNL     1      -4.805   4.042  25.198  0.00  0.00    -0.169 OA
ATOM     17  O   UNL     1      -5.833   2.801  25.550  0.00  0.00    -0.169 OA
ENDBRANCH  11  14
ENDBRANCH   7   8
ENDBRANCH   6   7
BRANCH  23  24
ATOM     24  C   UNL     1       0.949   0.565  23.448  0.00  0.00    +0.027 C 
BRANCH  24  25
ATOM     25  C   UNL     1       1.248  -0.111  23.081  0.00  0.00    +0.088 C 
BRANCH  25  26
ATOM     26  C   UNL     1       1.959  -0.075  22.666  0.00  0.00    +0.242 C 
ATOM     27  O   UNL     1       1.954  -0.035  21.842  0.00  0.00    -0.273 OA
ATOM     28  N   UNL     1       2.676  -0.081  23.073  0.00  0.00    -0.201 NA
BRANCH  28  29
ATOM     29  C   UNL     1       3.388  -0.045  22.657  0.00  0.00    +0.141 C 
BRANCH  29  30
ATOM     30  C   UNL     1       4.105  -0.049  23.064  0.00  0.00    -0.000 A 
ATOM     31  C   UNL     1       4.359  -0.734  23.445  0.00  0.00    -0.000 A 
ATOM     32  C   UNL     1       5.077  -0.739  23.853  0.00  0.00    +0.029 A 
ATOM     33  C   UNL     1       5.540  -0.056  23.879  0.00  0.00    +0.140 A 
ATOM     34  F   UNL     1       6.257  -0.059  24.286  0.00  0.00    -0.204 F 
ATOM     35  C   UNL     1       5.285   0.630  23.497  0.00  0.00    +0.029 A 
ATOM     36  C   UNL     1       4.568   0.633  23.090  0.00  0.00    -0.000 A 
ENDBRANCH  29  30
ENDBRANCH  28  29
ENDBRANCH  25  26
ENDBRANCH  24  25
ENDBRANCH  23  24
TORSDOF 8
ENDMDL
MODEL 2
REMARK VINA RESULT:      -7.4      3.137      7.611
REMARK  Name = 
REMARK  8 active torsions:
REMARK  status: ('A' for Active; 'I' for Inactive)
REMARK    1  A    between atoms: N_6  and  C_7
REMARK    2  A    between atoms: C_7  and  C_8
REMARK    3  A    between atoms: C_11  and  S_14
REMARK    4  A    between atoms: C_23  and  C_24
REMARK    5  A    between atoms: C_24  and  C_25
REMARK    6  A    between atoms: C_25  and  C_26
REMARK    7  A    between atoms: N_28  and  C_29
REMARK    8  A    between atoms: C_29  and  C_30
REMARK                            x       y       z     vdW  Elec       q    Type
REMARK                         _______ _______ _______ _____ _____    ______ ____
ROOT
ATOM      1  C   UNL     1      -0.507   1.602  24.779  0.00  0.00    +0.090 C 
ATOM      2  N   UNL     1      -0.350   0.962  24.283  0.00  0.00    -0.271 NA
ATOM      3  C   UNL     1       0.400   0.949  23.940  0.00  0.00    +0.083 C 
ATOM      4  C   UNL     1       0.970   1.530  24.071  0.00  0.00    +0.035 C 
ATOM      5  C   UNL     1       1.643   1.331  23.638  0.00  0.00    +0.074 C 
ATOM      6  N   UNL     1       1.489   0.626  23.238  0.00  0.00    -0.262 NA
ATOM     18  C   UNL     1       0.721   0.390  23.424  0.00  0.00    +0.151 C 
ATOM     19  C   UNL     1       0.370  -0.294  23.126  0.00  0.00    +0.257 C 
ATOM     20  O   UNL     1       0.839  -0.744  22.617  0.00  0.00    -0.272 OA
ATOM     21  N   UNL     1      -0.387  -0.589  23.268  0.00  0.00    -0.203 NA
ATOM     22  C   UNL     1      -0.981  -0.272  23.745  0.00  0.00    +0.131 C 
ATOM     23  C   UNL     1      -0.965   0.418  24.196  0.00  0.00    +0.080 C 
ENDROOT
BRANCH   6   7
ATOM      7  C   UNL     1       2.011   0.227  22.740  0.00  0.00    +0.100 C 
BRANCH   7   8
ATOM      8  C   UNL     1       2.822   0.241  22.896  0.00  0.00    -0.006 A 
ATOM      9  C   UNL     1       3.274   0.892  22.669  0.00  0.00    -0.002 A 
ATOM     10  C   UNL     1       4.084   0.906  22.825  0.00  0.00    +0.018 A 
ATOM     11  C   UNL     1       4.441   0.268  23.209  0.00  0.00    +0.106 A 
ATOM     12  C   UNL     1       3.988  -0.383  23.436  0.00  0.00    +0.018 A 
ATOM     13  C   UNL     1       3.178  -0.396  23.279  0.00  0.00    -0.002 A 
BRANCH  11  14
ATOM     14  S   UNL     1       5.251   0.282  23.365  0.00  0.00    +0.010 S 
ATOM     15  C   UNL     1       6.061   0.296  23.521  0.00  0.00    +0.182 C 
ATOM     16  O   UNL     1       5.115   0.752  24.029  0.00  0.00    -0.169 OA
ATOM     17  O   UNL     1       5.387  -0.188  22.701  0.00  0.00    -0.169 OA
ENDBRANCH  11  14
ENDBRANCH   7   8
ENDBRANCH   6   7
BRANCH  23  24
ATOM     24  C   UNL     1      -1.654   0.588  24.617  0.00  0.00    +0.027 C 
BRANCH  24  25
ATOM     25  C   UNL     1      -2.391   0.406  24.294  0.00  0.00    +0.088 C 
BRANCH  25  26
ATOM     26  C   UNL     1      -3.067   0.434  24.765  0.00  0.00    +0.242 C 
ATOM     27  O   UNL     1      -3.251  -0.199  25.261  0.00  0.00    -0.273 OA
ATOM     28  N   UNL     1      -3.560   1.095  24.741  0.00  0.00    -0.201 NA
BRANCH  28  29
ATOM     29  C   UNL     1      -4.237   1.124  25.212  0.00  0.00    +0.141 C 
BRANCH  29  30
ATOM     30  C   UNL     1      -4.666   1.824  25.276  0.00  0.00    -0.000 A 
ATOM     31  C   UNL     1      -5.490   1.802  25.306  0.00  0.00    -0.000 A 
ATOM     32  C   UNL     1      -5.920   2.503  25.370  0.00  0.00    +0.029 A 
ATOM     33  C   UNL     1      -5.526   3.227  25.404  0.00  0.00    +0.140 A 
ATOM     34  F   UNL     1      -5.955   3.928  25.468  0.00  0.00    -0.204 F 
ATOM     35  C   UNL     1      -4.701   3.250  25.373  0.00  0.00    +0.029 A 
ATOM     36  C   UNL     1      -4.272   2.548  25.310  0.00  0.00    -0.000 A 
ENDBRANCH  29  30
ENDBRANCH  28  29
ENDBRANCH  25  26
ENDBRANCH  24  25
ENDBRANCH  23  24
TORSDOF 8
ENDMDL
MODEL 3
REMARK VINA RESULT:      -6.5     16.807     17.776
REMARK  Name = 
REMARK  8 active torsions:
REMARK  status: ('A' for Active; 'I' for Inactive)
REMARK    1  A    between atoms: N_6  and  C_7
REMARK    2  A    between atoms: C_7  and  C_8
REMARK    3  A    between atoms: C_11  and  S_14
REMARK    4  A    between atoms: C_23  and  C_24
REMARK    5  A    between atoms: C_24  and  C_25
REMARK    6  A    between atoms: C_25  and  C_26
REMARK    7  A    between atoms: N_28  and  C_29
REMARK    8  A    between atoms: C_29  and  C_30
REMARK                            x       y       z     vdW  Elec       q    Type
REMARK                         _______ _______ _______ _____ _____    ______ ____
ROOT
ATOM      1  C   UNL     1      -4.965 -10.136  12.069  0.00  0.00    +0.090 C 
ATOM      2  N   UNL     1      -4.742  -9.929  11.302  0.00  0.00    -0.271 NA
ATOM      3  C   UNL     1      -5.350  -9.662  10.812  0.00  0.00    +0.083 C 
ATOM      4  C   UNL     1      -6.136  -9.599  11.056  0.00  0.00    +0.035 C 
ATOM      5  C   UNL     1      -6.578  -9.315  10.420  0.00  0.00    +0.074 C 
ATOM      6  N   UNL     1      -6.065  -9.202   9.783  0.00  0.00    -0.262 NA
ATOM     18  C   UNL     1      -5.306  -9.417  10.025  0.00  0.00    +0.151 C 
ATOM     19  C   UNL     1      -4.645  -9.378   9.535  0.00  0.00    +0.257 C 
ATOM     20  O   UNL     1      -4.783  -9.106   8.768  0.00  0.00    -0.272 OA
ATOM     21  N   UNL     1      -3.863  -9.575   9.709  0.00  0.00    -0.203 NA
ATOM     22  C   UNL     1      -3.550  -9.860  10.417  0.00  0.00    +0.131 C 
ATOM     23  C   UNL     1      -3.941 -10.017  11.126  0.00  0.00    +0.080 C 
ENDROOT
BRANCH   6   7
ATOM      7  C   UNL     1      -6.275  -8.923   9.035  0.00  0.00    +0.100 C 
BRANCH   7   8
ATOM      8  C   UNL     1      -7.064  -8.751   8.866  0.00  0.00    -0.006 A 
ATOM      9  C   UNL     1      -7.550  -9.326   8.530  0.00  0.00    -0.002 A 
ATOM     10  C   UNL     1      -8.338  -9.152   8.362  0.00  0.00    +0.018 A 
ATOM     11  C   UNL     1      -8.641  -8.403   8.530  0.00  0.00    +0.106 A 
ATOM     12  C   UNL     1      -8.155  -7.828   8.867  0.00  0.00    +0.018 A 
ATOM     13  C   UNL     1      -7.366  -8.002   9.035  0.00  0.00    -0.002 A 
BRANCH  11  14
ATOM     14  S   UNL     1      -9.430  -8.229   8.362  0.00  0.00    +0.010 S 
ATOM     15  C   UNL     1     -10.219  -8.055   8.193  0.00  0.00    +0.182 C 
ATOM     16  O   UNL     1      -9.646  -8.993   8.584  0.00  0.00    -0.169 OA
ATOM     17  O   UNL     1      -9.214  -7.465   8.139  0.00  0.00    -0.169 OA
ENDBRANCH  11  14
ENDBRANCH   7   8
ENDBRANCH   6   7
BRANCH  23  24
ATOM     24  C   UNL     1      -3.469 -10.300  11.741  0.00  0.00    +0.027 C 
BRANCH  24  25
ATOM     25  C   UNL     1      -2.746  -9.941  11.905  0.00  0.00    +0.088 C 
BRANCH  25  26
ATOM     26  C   UNL     1      -2.195 -10.321  12.388  0.00  0.00    +0.242 C 
ATOM     27  O   UNL     1      -1.598 -10.780  12.050  0.00  0.00    -0.273 OA
ATOM     28  N   UNL     1      -2.241 -10.244  13.207  0.00  0.00    -0.201 NA
BRANCH  28  29
ATOM     29  C   UNL     1      -1.690 -10.625  13.690  0.00  0.00    +0.141 C 
BRANCH  29  30
ATOM     30  C   UNL     1      -1.773 -10.600  14.510  0.00  0.00    -0.000 A 
ATOM     31  C   UNL     1      -1.127 -10.407  14.984  0.00  0.00    -0.000 A 
ATOM     32  C   UNL     1      -1.209 -10.382  15.804  0.00  0.00    +0.029 A 
ATOM     33  C   UNL     1      -1.938 -10.551  16.151  0.00  0.00    +0.140 A 
ATOM     34  F   UNL     1      -2.022 -10.527  16.971  0.00  0.00    -0.204 F 
ATOM     35  C   UNL     1      -2.586 -10.745  15.676  0.00  0.00    +0.029 A 
ATOM     36  C   UNL     1      -2.502 -10.770  14.856  0.00  0.00    -0.000 A 
ENDBRANCH  29  30
ENDBRANCH  28  29
ENDBRANCH  25  26
ENDBRANCH  24  25
ENDBRANCH  23  24
TORSDOF 8
ENDMDL
MODEL 4
REMARK VINA RESULT:      -6.1     15.589     17.025
REMARK  Name = 
REMARK  8 active torsions:
REMARK  status: ('A' for Active; 'I' for Inactive)
REMARK    1  A    between atoms: N_6  and  C_7
REMARK    2  A    between atoms: C_7  and  C_8
REMARK    3  A    between atoms: C_11  and  S_14
REMARK    4  A    between atoms: C_23  and  C_24
REMARK    5  A    between atoms: C_24  and  C_25
REMARK    6  A    between atoms: C_25  and  C_26
REMARK    7  A    between atoms: N_28  and  C_29
REMARK    8  A    between atoms: C_29  and  C_30
REMARK                            x       y       z     vdW  Elec       q    Type
REMARK                         _______ _______ _______ _____ _____    ______ ____
ROOT
ATOM      1  C   UNL     1      -6.245 -10.265  14.635  0.00  0.00    +0.090 C 
ATOM      2  N   UNL     1      -5.572 -10.295  14.160  0.00  0.00    -0.271 NA
ATOM      3  C   UNL     1      -5.691 -10.136  13.359  0.00  0.00    +0.083 C 
ATOM      4  C   UNL     1      -6.428  -9.956  13.036  0.00  0.00    +0.035 C 
ATOM      5  C   UNL     1      -6.329  -9.832  12.227  0.00  0.00    +0.074 C 
ATOM      6  N   UNL     1      -5.529  -9.935  12.049  0.00  0.00    -0.262 NA
ATOM     18  C   UNL     1      -5.135 -10.123  12.749  0.00  0.00    +0.151 C 
ATOM     19  C   UNL     1      -4.324 -10.267  12.789  0.00  0.00    +0.257 C 
ATOM     20  O   UNL     1      -3.915 -10.211  12.075  0.00  0.00    -0.272 OA
ATOM     21  N   UNL     1      -3.868 -10.458  13.449  0.00  0.00    -0.203 NA
ATOM     22  C   UNL     1      -4.110 -10.554  14.232  0.00  0.00    +0.131 C 
ATOM     23  C   UNL     1      -4.868 -10.481  14.548  0.00  0.00    +0.080 C 
ENDROOT
BRANCH   6   7
ATOM      7  C   UNL     1      -5.185  -9.863  11.303  0.00  0.00    +0.100 C 
BRANCH   7   8
ATOM      8  C   UNL     1      -5.627  -9.566  10.672  0.00  0.00    -0.006 A 
ATOM      9  C   UNL     1      -5.600  -8.762  10.492  0.00  0.00    -0.002 A 
ATOM     10  C   UNL     1      -6.042  -8.466   9.862  0.00  0.00    +0.018 A 
ATOM     11  C   UNL     1      -6.511  -8.974   9.412  0.00  0.00    +0.106 A 
ATOM     12  C   UNL     1      -6.538  -9.779   9.592  0.00  0.00    +0.018 A 
ATOM     13  C   UNL     1      -6.096 -10.075  10.222  0.00  0.00    -0.002 A 
BRANCH  11  14
ATOM     14  S   UNL     1      -6.953  -8.678   8.781  0.00  0.00    +0.010 S 
ATOM     15  C   UNL     1      -7.396  -8.382   8.151  0.00  0.00    +0.182 C 
ATOM     16  O   UNL     1      -6.332  -8.847   8.265  0.00  0.00    -0.169 OA
ATOM     17  O   UNL     1      -7.575  -8.509   9.296  0.00  0.00    -0.169 OA
ENDBRANCH  11  14
ENDBRANCH   7   8
ENDBRANCH   6   7
BRANCH  23  24
ATOM     24  C   UNL     1      -4.932 -10.612  15.360  0.00  0.00    +0.027 C 
BRANCH  24  25
ATOM     25  C   UNL     1      -4.431 -10.218  15.883  0.00  0.00    +0.088 C 
BRANCH  25  26
ATOM     26  C   UNL     1      -4.334 -10.497  16.653  0.00  0.00    +0.242 C 
ATOM     27  O   UNL     1      -3.599 -10.779  16.900  0.00  0.00    -0.273 OA
ATOM     28  N   UNL     1      -4.971 -10.495  17.176  0.00  0.00    -0.201 NA
BRANCH  28  29
ATOM     29  C   UNL     1      -4.875 -10.775  17.946  0.00  0.00    +0.141 C 
BRANCH  29  30
ATOM     30  C   UNL     1      -5.508 -10.758  18.474  0.00  0.00    -0.000 A 
ATOM     31  C   UNL     1      -6.282 -10.743  18.190  0.00  0.00    -0.000 A 
ATOM     32  C   UNL     1      -6.916 -10.726  18.717  0.00  0.00    +0.029 A 
ATOM     33  C   UNL     1      -6.775 -10.725  19.530  0.00  0.00    +0.140 A 
ATOM     34  F   UNL     1      -7.408 -10.709  20.059  0.00  0.00    -0.204 F 
ATOM     35  C   UNL     1      -6.000 -10.741  19.816  0.00  0.00    +0.029 A 
ATOM     36  C   UNL     1      -5.367 -10.757  19.287  0.00  0.00    -0.000 A 
ENDBRANCH  29  30
ENDBRANCH  28  29
ENDBRANCH  25  26
ENDBRANCH  24  25
ENDBRANCH  23  24
TORSDOF 8
ENDMDL
MODEL 5
REMARK VINA RESULT:      -6.1      3.984      6.230
REMARK  Name = 
REMARK  8 active torsions:
REMARK  status: ('A' for Active; 'I' for Inactive)
REMARK    1  A    between atoms: N_6  and  C_7
REMARK    2  A    between atoms: C_7  and  C_8
REMARK    3  A    between atoms: C_11  and  S_14
REMARK    4  A    between atoms: C_23  and  C_24
REMARK    5  A    between atoms: C_24  and  C_25
REMARK    6  A    between atoms: C_25  and  C_26
REMARK    7  A    between atoms: N_28  and  C_29
REMARK    8  A    between atoms: C_29  and  C_30
REMARK                            x       y       z     vdW  Elec       q    Type
REMARK                         _______ _______ _______ _____ _____    ______ ____
ROOT
ATOM      1  C   UNL     1      -0.716   2.467  23.662  0.00  0.00    +0.090 C 
ATOM      2  N   UNL     1      -0.677   2.071  24.385  0.00  0.00    -0.271 NA
ATOM      3  C   UNL     1      -0.805   1.256  24.355  0.00  0.00    +0.083 C 
ATOM      4  C   UNL     1      -0.963   0.847  23.656  0.00  0.00    +0.035 C 
ATOM      5  C   UNL     1      -1.058   0.049  23.843  0.00  0.00    +0.074 C 
ATOM      6  N   UNL     1      -0.959  -0.034  24.658  0.00  0.00    -0.262 NA
ATOM     18  C   UNL     1      -0.802   0.712  24.974  0.00  0.00    +0.151 C 
ATOM     19  C   UNL     1      -0.672   0.847  25.777  0.00  0.00    +0.257 C 
ATOM     20  O   UNL     1      -0.706   0.181  26.263  0.00  0.00    -0.272 OA
ATOM     21  N   UNL     1      -0.511   1.560  26.159  0.00  0.00    -0.203 NA
ATOM     22  C   UNL     1      -0.441   2.315  25.832  0.00  0.00    +0.131 C 
ATOM     23  C   UNL     1      -0.515   2.542  25.043  0.00  0.00    +0.080 C 
ENDROOT
BRANCH   6   7
ATOM      7  C   UNL     1      -1.008  -0.740  25.083  0.00  0.00    +0.100 C 
BRANCH   7   8
ATOM      8  C   UNL     1      -1.618  -1.273  24.927  0.00  0.00    -0.006 A 
ATOM      9  C   UNL     1      -1.467  -1.961  24.499  0.00  0.00    -0.002 A 
ATOM     10  C   UNL     1      -2.078  -2.493  24.344  0.00  0.00    +0.018 A 
ATOM     11  C   UNL     1      -2.841  -2.336  24.617  0.00  0.00    +0.106 A 
ATOM     12  C   UNL     1      -2.992  -1.648  25.045  0.00  0.00    +0.018 A 
ATOM     13  C   UNL     1      -2.381  -1.116  25.200  0.00  0.00    -0.002 A 
BRANCH  11  14
ATOM     14  S   UNL     1      -3.452  -2.869  24.462  0.00  0.00    +0.010 S 
ATOM     15  C   UNL     1      -4.063  -3.400  24.306  0.00  0.00    +0.182 C 
ATOM     16  O   UNL     1      -3.305  -3.247  25.179  0.00  0.00    -0.169 OA
ATOM     17  O   UNL     1      -3.599  -2.490  23.744  0.00  0.00    -0.169 OA
ENDBRANCH  11  14
ENDBRANCH   7   8
ENDBRANCH   6   7
BRANCH  23  24
ATOM     24  C   UNL     1      -0.414   3.346  24.891  0.00  0.00    +0.027 C 
BRANCH  24  25
ATOM     25  C   UNL     1      -0.655   3.906  25.446  0.00  0.00    +0.088 C 
BRANCH  25  26
ATOM     26  C   UNL     1      -1.310   4.384  25.294  0.00  0.00    +0.242 C 
ATOM     27  O   UNL     1      -1.208   5.124  24.945  0.00  0.00    -0.273 OA
ATOM     28  N   UNL     1      -2.067   4.122  25.491  0.00  0.00    -0.201 NA
BRANCH  28  29
ATOM     29  C   UNL     1      -2.722   4.600  25.340  0.00  0.00    +0.141 C 
BRANCH  29  30
ATOM     30  C   UNL     1      -3.480   4.276  25.345  0.00  0.00    -0.000 A 
ATOM     31  C   UNL     1      -3.840   4.080  26.060  0.00  0.00    -0.000 A 
ATOM     32  C   UNL     1      -4.598   3.755  26.066  0.00  0.00    +0.029 A 
ATOM     33  C   UNL     1      -4.997   3.626  25.355  0.00  0.00    +0.140 A 
ATOM     34  F   UNL     1      -5.755   3.302  25.360  0.00  0.00    -0.204 F 
ATOM     35  C   UNL     1      -4.637   3.822  24.639  0.00  0.00    +0.029 A 
ATOM     36  C   UNL     1      -3.878   4.147  24.634  0.00  0.00    -0.000 A 
ENDBRANCH  29  30
ENDBRANCH  28  29
ENDBRANCH  25  26
ENDBRANCH  24  25
ENDBRANCH  23  24
TORSDOF 8
ENDMDL
MODEL 6
REMARK VINA RESULT:      -6.0     15.565     17.471
REMARK  Name = 
REMARK  8 active torsions:
REMARK  status: ('A' for Active; 'I' for Inactive)
REMARK    1  A    between atoms: N_6  and  C_7
REMARK    2  A    between atoms: C_7  and  C_8
REMARK    3  A    between atoms: C_11  and  S_14
REMARK    4  A    between atoms: C_23  and  C_24
REMARK    5  A    between atoms: C_24  and  C_25
REMARK    6  A    between atoms: C_25  and  C_26
REMARK    7  A    between atoms: N_28  and  C_29
REMARK    8  A    between atoms: C_29  and  C_30
REMARK                            x       y       z     vdW  Elec       q    Type
REMARK                         _______ _______ _______ _____ _____    ______ ____
ROOT
ATOM      1  C   UNL     1      -6.797 -10.606  14.537  0.00  0.00    +0.090 C 
ATOM      2  N   UNL     1      -5.975 -10.564  14.478  0.00  0.00    -0.271 NA
ATOM      3  C   UNL     1      -5.674 -10.480  13.714  0.00  0.00    +0.083 C 
ATOM      4  C   UNL     1      -6.149 -10.440  13.041  0.00  0.00    +0.035 C 
ATOM      5  C   UNL     1      -5.655 -10.357  12.385  0.00  0.00    +0.074 C 
ATOM      6  N   UNL     1      -4.875 -10.347  12.653  0.00  0.00    -0.262 NA
ATOM     18  C   UNL     1      -4.887 -10.423  13.475  0.00  0.00    +0.151 C 
ATOM     19  C   UNL     1      -4.206 -10.435  13.940  0.00  0.00    +0.257 C 
ATOM     20  O   UNL     1      -3.492 -10.366  13.532  0.00  0.00    -0.272 OA
ATOM     21  N   UNL     1      -4.144 -10.508  14.759  0.00  0.00    -0.203 NA
ATOM     22  C   UNL     1      -4.748 -10.586  15.316  0.00  0.00    +0.131 C 
ATOM     23  C   UNL     1      -5.562 -10.611  15.191  0.00  0.00    +0.080 C 
ENDROOT
BRANCH   6   7
ATOM      7  C   UNL     1      -4.201 -10.274  12.183  0.00  0.00    +0.100 C 
BRANCH   7   8
ATOM      8  C   UNL     1      -4.278 -10.142  11.372  0.00  0.00    -0.006 A 
ATOM      9  C   UNL     1      -4.236 -10.774  10.844  0.00  0.00    -0.002 A 
ATOM     10  C   UNL     1      -4.312 -10.641  10.034  0.00  0.00    +0.018 A 
ATOM     11  C   UNL     1      -4.431  -9.875   9.752  0.00  0.00    +0.106 A 
ATOM     12  C   UNL     1      -4.473  -9.242  10.279  0.00  0.00    +0.018 A 
ATOM     13  C   UNL     1      -4.396  -9.376  11.089  0.00  0.00    -0.002 A 
BRANCH  11  14
ATOM     14  S   UNL     1      -4.508  -9.742   8.940  0.00  0.00    +0.010 S 
ATOM     15  C   UNL     1      -4.584  -9.608   8.130  0.00  0.00    +0.182 C 
ATOM     16  O   UNL     1      -5.123 -10.290   8.908  0.00  0.00    -0.169 OA
ATOM     17  O   UNL     1      -3.893  -9.193   8.973  0.00  0.00    -0.169 OA
ENDBRANCH  11  14
ENDBRANCH   7   8
ENDBRANCH   6   7
BRANCH  23  24
ATOM     24  C   UNL     1      -6.027 -10.694  15.868  0.00  0.00    +0.027 C 
BRANCH  24  25
ATOM     25  C   UNL     1      -5.864 -10.244  16.539  0.00  0.00    +0.088 C 
BRANCH  25  26
ATOM     26  C   UNL     1      -6.371 -10.271  17.189  0.00  0.00    +0.242 C 
ATOM     27  O   UNL     1      -6.173 -10.728  17.847  0.00  0.00    -0.273 OA
ATOM     28  N   UNL     1      -7.076  -9.844  17.182  0.00  0.00    -0.201 NA
BRANCH  28  29
ATOM     29  C   UNL     1      -7.583  -9.872  17.832  0.00  0.00    +0.141 C 
BRANCH  29  30
ATOM     30  C   UNL     1      -8.345  -9.562  17.775  0.00  0.00    -0.000 A 
ATOM     31  C   UNL     1      -8.458  -8.796  17.491  0.00  0.00    -0.000 A 
ATOM     32  C   UNL     1      -9.221  -8.485  17.434  0.00  0.00    +0.029 A 
ATOM     33  C   UNL     1      -9.869  -8.941  17.661  0.00  0.00    +0.140 A 
ATOM     34  F   UNL     1     -10.632  -8.632  17.604  0.00  0.00    -0.204 F 
ATOM     35  C   UNL     1      -9.756  -9.708  17.945  0.00  0.00    +0.029 A 
ATOM     36  C   UNL     1      -8.993 -10.018  18.002  0.00  0.00    -0.000 A 
ENDBRANCH  29  30
ENDBRANCH  28  29
ENDBRANCH  25  26
ENDBRANCH  24  25
ENDBRANCH  23  24
TORSDOF 8
ENDMDL
MODEL 7
REMARK VINA RESULT:      -5.9     16.889     17.734
REMARK  Name = 
REMARK  8 active torsions:
REMARK  status: ('A' for Active; 'I' for Inactive)
REMARK    1  A    between atoms: N_6  and  C_7
REMARK    2  A    between atoms: C_7  and  C_8
REMARK    3  A    between atoms: C_11  and  S_14
REMARK    4  A    between atoms: C_23  and  C_24
REMARK    5  A    between atoms: C_24  and  C_25
REMARK    6  A    between atoms: C_25  and  C_26
REMARK    7  A    between atoms: N_28  and  C_29
REMARK    8  A    between atoms: C_29  and  C_30
REMARK                            x       y       z     vdW  Elec       q    Type
REMARK                         _______ _______ _______ _____ _____    ______ ____
ROOT
ATOM      1  C   UNL     1      -4.712  -9.295  11.489  0.00  0.00    +0.090 C 
ATOM      2  N   UNL     1      -4.737  -9.276  10.665  0.00  0.00    -0.271 NA
ATOM      3  C   UNL     1      -5.478  -9.134  10.331  0.00  0.00    +0.083 C 
ATOM      4  C   UNL     1      -6.162  -9.016  10.778  0.00  0.00    +0.035 C 
ATOM      5  C   UNL     1      -6.789  -8.891  10.256  0.00  0.00    +0.074 C 
ATOM      6  N   UNL     1      -6.492  -8.932   9.487  0.00  0.00    -0.262 NA
ATOM     18  C   UNL     1      -5.682  -9.082   9.534  0.00  0.00    +0.151 C 
ATOM     19  C   UNL     1      -5.196  -9.159   8.873  0.00  0.00    +0.257 C 
ATOM     20  O   UNL     1      -5.569  -9.077   8.141  0.00  0.00    -0.272 OA
ATOM     21  N   UNL     1      -4.385  -9.308   8.845  0.00  0.00    -0.203 NA
ATOM     22  C   UNL     1      -3.860  -9.416   9.473  0.00  0.00    +0.131 C 
ATOM     23  C   UNL     1      -4.016  -9.402  10.282  0.00  0.00    +0.080 C 
ENDROOT
BRANCH   6   7
ATOM      7  C   UNL     1      -6.929  -8.839   8.793  0.00  0.00    +0.100 C 
BRANCH   7   8
ATOM      8  C   UNL     1      -7.687  -8.514   8.824  0.00  0.00    -0.006 A 
ATOM      9  C   UNL     1      -7.785  -7.695   8.824  0.00  0.00    -0.002 A 
ATOM     10  C   UNL     1      -8.543  -7.371   8.855  0.00  0.00    +0.018 A 
ATOM     11  C   UNL     1      -9.202  -7.866   8.886  0.00  0.00    +0.106 A 
ATOM     12  C   UNL     1      -9.104  -8.685   8.887  0.00  0.00    +0.018 A 
ATOM     13  C   UNL     1      -8.346  -9.009   8.856  0.00  0.00    -0.002 A 
BRANCH  11  14
ATOM     14  S   UNL     1      -9.961  -7.542   8.917  0.00  0.00    +0.010 S 
ATOM     15  C   UNL     1     -10.719  -7.218   8.949  0.00  0.00    +0.182 C 
ATOM     16  O   UNL     1      -9.814  -7.130   8.219  0.00  0.00    -0.169 OA
ATOM     17  O   UNL     1     -10.108  -7.954   9.616  0.00  0.00    -0.169 OA
ENDBRANCH  11  14
ENDBRANCH   7   8
ENDBRANCH   6   7
BRANCH  23  24
ATOM     24  C   UNL     1      -3.368  -9.530  10.775  0.00  0.00    +0.027 C 
BRANCH  24  25
ATOM     25  C   UNL     1      -2.610  -9.322  10.524  0.00  0.00    +0.088 C 
BRANCH  25  26
ATOM     26  C   UNL     1      -1.954  -9.520  10.983  0.00  0.00    +0.242 C 
ATOM     27  O   UNL     1      -1.917 -10.256  11.355  0.00  0.00    -0.273 OA
ATOM     28  N   UNL     1      -1.335  -8.983  11.071  0.00  0.00    -0.201 NA
BRANCH  28  29
ATOM     29  C   UNL     1      -0.678  -9.180  11.530  0.00  0.00    +0.141 C 
BRANCH  29  30
ATOM     30  C   UNL     1      -0.101  -8.614  11.691  0.00  0.00    -0.000 A 
ATOM     31  C   UNL     1       0.561  -8.550  11.204  0.00  0.00    -0.000 A 
ATOM     32  C   UNL     1       1.139  -7.983  11.364  0.00  0.00    +0.029 A 
ATOM     33  C   UNL     1       1.054  -7.480  12.013  0.00  0.00    +0.140 A 
ATOM     34  F   UNL     1       1.631  -6.914  12.175  0.00  0.00    -0.204 F 
ATOM     35  C   UNL     1       0.391  -7.545  12.501  0.00  0.00    +0.029 A 
ATOM     36  C   UNL     1      -0.186  -8.112  12.340  0.00  0.00    -0.000 A 
ENDBRANCH  29  30
ENDBRANCH  28  29
ENDBRANCH  25  26
ENDBRANCH  24  25
ENDBRANCH  23  24
TORSDOF 8
ENDMDL
