MODEL 1
REMARK VINA RESULT:      -9.4      0.000      0.000
REMARK  Name = 
REMARK  4 active torsions:
REMARK  status: ('A' for Active; 'I' for Inactive)
REMARK    1  A    between atoms: C_2  and  C_24
REMARK    2  A    between atoms: N_3  and  C_4
REMARK    3  A    between atoms: C_8  and  N_12
REMARK    4  A    between atoms: C_15  and  C_19
REMARK                            x       y       z     vdW  Elec       q    Type
REMARK                         _______ _______ _______ _____ _____    ______ ____
ROOT
ATOM      4  C   UNL     1      -1.152   2.944  24.760  0.00  0.00    +0.154 C 
ATOM      5  C   UNL     1      -0.904   2.535  25.431  0.00  0.00    +0.166 C 
ATOM      6  O   UNL     1      -1.094   1.739  25.329  0.00  0.00    -0.350 OA
ATOM      7  C   UNL     1      -1.459   1.655  24.595  0.00  0.00    +0.166 C 
ATOM      8  C   UNL     1      -1.802   1.113  24.077  0.00  0.00    +0.154 C 
ATOM      9  C   UNL     1      -2.051   1.522  23.405  0.00  0.00    +0.166 C 
ATOM     10  O   UNL     1      -1.861   2.318  23.508  0.00  0.00    -0.350 OA
ATOM     11  C   UNL     1      -1.495   2.401  24.243  0.00  0.00    +0.166 C 
ENDROOT
BRANCH   8  12
ATOM     12  N   UNL     1      -1.883   0.302  24.208  0.00  0.00    -0.200 NA
ATOM     13  C   UNL     1      -2.634  -0.038  24.240  0.00  0.00    +0.237 A 
ATOM     14  N   UNL     1      -2.715  -0.848  24.371  0.00  0.00    -0.209 NA
ATOM     15  C   UNL     1      -3.466  -1.188  24.403  0.00  0.00    +0.120 A 
ATOM     16  C   UNL     1      -4.136  -0.718  24.303  0.00  0.00    +0.043 A 
ATOM     17  C   UNL     1      -4.055   0.093  24.172  0.00  0.00    +0.104 A 
ATOM     18  N   UNL     1      -3.304   0.432  24.140  0.00  0.00    -0.211 NA
BRANCH  15  19
ATOM     19  C   UNL     1      -3.547  -1.998  24.534  0.00  0.00    +0.163 A 
ATOM     20  C   UNL     1      -3.871  -2.545  24.008  0.00  0.00    +0.042 A 
ATOM     21  C   UNL     1      -3.843  -3.289  24.363  0.00  0.00    +0.044 A 
ATOM     22  C   UNL     1      -3.502  -3.202  25.108  0.00  0.00    +0.180 A 
ATOM     23  O   UNL     1      -3.319  -2.405  25.214  0.00  0.00    -0.449 OA
ENDBRANCH  15  19
ENDBRANCH   8  12
BRANCH   4   3
ATOM      1  O   UNL     1      -1.732   4.022  25.867  0.00  0.00    -0.273 OA
ATOM      2  C   UNL     1      -1.361   4.293  25.182  0.00  0.00    +0.241 C 
ATOM      3  N   UNL     1      -1.071   3.755  24.628  0.00  0.00    -0.202 NA
BRANCH   2  24
ATOM     24  C   UNL     1      -1.280   5.104  25.051  0.00  0.00    +0.078 C 
ATOM     25  C   UNL     1      -1.610   5.859  25.021  0.00  0.00    +0.010 C 
ATOM     26  C   UNL     1      -0.810   5.752  24.853  0.00  0.00    +0.010 C 
ENDBRANCH   2  24
ENDBRANCH   4   3
TORSDOF 4
ENDMDL
MODEL 2
REMARK VINA RESULT:      -9.2      2.743      4.220
REMARK  Name = 
REMARK  4 active torsions:
REMARK  status: ('A' for Active; 'I' for Inactive)
REMARK    1  A    between atoms: C_2  and  C_24
REMARK    2  A    between atoms: N_3  and  C_4
REMARK    3  A    between atoms: C_8  and  N_12
REMARK    4  A    between atoms: C_15  and  C_19
REMARK                            x       y       z     vdW  Elec       q    Type
REMARK                         _______ _______ _______ _____ _____    ______ ____
ROOT
ATOM      4  C   UNL     1       0.179   0.653  23.836  0.00  0.00    +0.154 C 
ATOM      5  C   UNL     1      -0.233  -0.032  24.037  0.00  0.00    +0.166 C 
ATOM      6  O   UNL     1      -0.941   0.192  24.395  0.00  0.00    -0.350 OA
ATOM      7  C   UNL     1      -0.967   1.015  24.415  0.00  0.00    +0.166 C 
ATOM      8  C   UNL     1      -1.421   1.664  24.649  0.00  0.00    +0.154 C 
ATOM      9  C   UNL     1      -1.009   2.350  24.447  0.00  0.00    +0.166 C 
ATOM     10  O   UNL     1      -0.301   2.125  24.089  0.00  0.00    -0.350 OA
ATOM     11  C   UNL     1      -0.275   1.301  24.069  0.00  0.00    +0.166 C 
ENDROOT
BRANCH   8  12
ATOM     12  N   UNL     1      -2.157   1.632  25.019  0.00  0.00    -0.200 NA
ATOM     13  C   UNL     1      -2.805   2.018  24.684  0.00  0.00    +0.237 A 
ATOM     14  N   UNL     1      -3.541   1.986  25.054  0.00  0.00    -0.209 NA
ATOM     15  C   UNL     1      -4.189   2.372  24.719  0.00  0.00    +0.120 A 
ATOM     16  C   UNL     1      -4.100   2.791  24.014  0.00  0.00    +0.043 A 
ATOM     17  C   UNL     1      -3.363   2.823  23.644  0.00  0.00    +0.104 A 
ATOM     18  N   UNL     1      -2.716   2.436  23.979  0.00  0.00    -0.211 NA
BRANCH  15  19
ATOM     19  C   UNL     1      -4.925   2.340  25.089  0.00  0.00    +0.163 A 
ATOM     20  C   UNL     1      -5.541   1.825  24.900  0.00  0.00    +0.042 A 
ATOM     21  C   UNL     1      -6.172   1.984  25.407  0.00  0.00    +0.044 A 
ATOM     22  C   UNL     1      -5.946   2.597  25.910  0.00  0.00    +0.180 A 
ATOM     23  O   UNL     1      -5.175   2.817  25.713  0.00  0.00    -0.449 OA
ENDBRANCH  15  19
ENDBRANCH   8  12
BRANCH   4   3
ATOM      1  O   UNL     1       0.736  -0.651  22.991  0.00  0.00    -0.273 OA
ATOM      2  C   UNL     1       1.194   0.034  23.043  0.00  0.00    +0.241 C 
ATOM      3  N   UNL     1       0.916   0.685  23.465  0.00  0.00    -0.202 NA
BRANCH   2  24
ATOM     24  C   UNL     1       1.931   0.066  22.673  0.00  0.00    +0.078 C 
ATOM     25  C   UNL     1       2.396  -0.026  21.998  0.00  0.00    +0.010 C 
ATOM     26  C   UNL     1       2.742   0.214  22.706  0.00  0.00    +0.010 C 
ENDBRANCH   2  24
ENDBRANCH   4   3
TORSDOF 4
ENDMDL
MODEL 3
REMARK VINA RESULT:      -9.2      1.084      5.864
REMARK  Name = 
REMARK  4 active torsions:
REMARK  status: ('A' for Active; 'I' for Inactive)
REMARK    1  A    between atoms: C_2  and  C_24
REMARK    2  A    between atoms: N_3  and  C_4
REMARK    3  A    between atoms: C_8  and  N_12
REMARK    4  A    between atoms: C_15  and  C_19
REMARK                            x       y       z     vdW  Elec       q    Type
REMARK                         _______ _______ _______ _____ _____    ______ ____
ROOT
ATOM      4  C   UNL     1      -3.109  -0.604  24.495  0.00  0.00    +0.154 C 
ATOM      5  C   UNL     1      -3.768  -0.108  24.475  0.00  0.00    +0.166 C 
ATOM      6  O   UNL     1      -3.501   0.666  24.375  0.00  0.00    -0.350 OA
ATOM      7  C   UNL     1      -2.678   0.649  24.334  0.00  0.00    +0.166 C 
ATOM      8  C   UNL     1      -2.004   1.116  24.247  0.00  0.00    +0.154 C 
ATOM      9  C   UNL     1      -1.345   0.620  24.268  0.00  0.00    +0.166 C 
ATOM     10  O   UNL     1      -1.612  -0.154  24.367  0.00  0.00    -0.350 OA
ATOM     11  C   UNL     1      -2.436  -0.136  24.408  0.00  0.00    +0.166 C 
ENDROOT
BRANCH   8  12
ATOM     12  N   UNL     1      -1.991   1.936  24.156  0.00  0.00    -0.200 NA
ATOM     13  C   UNL     1      -1.573   2.405  24.691  0.00  0.00    +0.237 A 
ATOM     14  N   UNL     1      -1.560   3.224  24.599  0.00  0.00    -0.209 NA
ATOM     15  C   UNL     1      -1.142   3.693  25.135  0.00  0.00    +0.120 A 
ATOM     16  C   UNL     1      -0.736   3.341  25.761  0.00  0.00    +0.043 A 
ATOM     17  C   UNL     1      -0.749   2.521  25.853  0.00  0.00    +0.104 A 
ATOM     18  N   UNL     1      -1.167   2.053  25.317  0.00  0.00    -0.211 NA
BRANCH  15  19
ATOM     19  C   UNL     1      -1.129   4.512  25.043  0.00  0.00    +0.163 A 
ATOM     20  C   UNL     1      -1.728   5.034  25.266  0.00  0.00    +0.042 A 
ATOM     21  C   UNL     1      -1.484   5.798  25.074  0.00  0.00    +0.044 A 
ATOM     22  C   UNL     1      -0.735   5.749  24.733  0.00  0.00    +0.180 A 
ATOM     23  O   UNL     1      -0.515   4.954  24.714  0.00  0.00    -0.449 OA
ENDBRANCH  15  19
ENDBRANCH   8  12
BRANCH   4   3
ATOM      1  O   UNL     1      -4.304  -1.495  23.787  0.00  0.00    -0.273 OA
ATOM      2  C   UNL     1      -3.719  -1.869  24.233  0.00  0.00    +0.241 C 
ATOM      3  N   UNL     1      -3.122  -1.424  24.587  0.00  0.00    -0.202 NA
BRANCH   2  24
ATOM     24  C   UNL     1      -3.732  -2.690  24.324  0.00  0.00    +0.078 C 
ATOM     25  C   UNL     1      -3.933  -3.437  24.040  0.00  0.00    +0.010 C 
ATOM     26  C   UNL     1      -3.553  -3.362  24.768  0.00  0.00    +0.010 C 
ENDBRANCH   2  24
ENDBRANCH   4   3
TORSDOF 4
ENDMDL
MODEL 4
REMARK VINA RESULT:      -8.6      2.777      4.444
REMARK  Name = 
REMARK  4 active torsions:
REMARK  status: ('A' for Active; 'I' for Inactive)
REMARK    1  A    between atoms: C_2  and  C_24
REMARK    2  A    between atoms: N_3  and  C_4
REMARK    3  A    between atoms: C_8  and  N_12
REMARK    4  A    between atoms: C_15  and  C_19
REMARK                            x       y       z     vdW  Elec       q    Type
REMARK                         _______ _______ _______ _____ _____    ______ ____
ROOT
ATOM      4  C   UNL     1      -3.415   1.755  24.327  0.00  0.00    +0.154 C 
ATOM      5  C   UNL     1      -3.265   2.161  23.625  0.00  0.00    +0.166 C 
ATOM      6  O   UNL     1      -2.460   2.094  23.459  0.00  0.00    -0.350 OA
ATOM      7  C   UNL     1      -2.112   1.648  24.058  0.00  0.00    +0.166 C 
ATOM      8  C   UNL     1      -1.400   1.330  24.328  0.00  0.00    +0.154 C 
ATOM      9  C   UNL     1      -1.549   0.925  25.030  0.00  0.00    +0.166 C 
ATOM     10  O   UNL     1      -2.355   0.991  25.195  0.00  0.00    -0.350 OA
ATOM     11  C   UNL     1      -2.703   1.438  24.595  0.00  0.00    +0.166 C 
ENDROOT
BRANCH   8  12
ATOM     12  N   UNL     1      -0.666   1.406  23.958  0.00  0.00    -0.200 NA
ATOM     13  C   UNL     1      -0.209   0.736  23.806  0.00  0.00    +0.237 A 
ATOM     14  N   UNL     1       0.524   0.811  23.437  0.00  0.00    -0.209 NA
ATOM     15  C   UNL     1       0.981   0.141  23.285  0.00  0.00    +0.120 A 
ATOM     16  C   UNL     1       0.703  -0.605  23.502  0.00  0.00    +0.043 A 
ATOM     17  C   UNL     1      -0.031  -0.681  23.871  0.00  0.00    +0.104 A 
ATOM     18  N   UNL     1      -0.487  -0.010  24.023  0.00  0.00    -0.211 NA
BRANCH  15  19
ATOM     19  C   UNL     1       1.714   0.216  22.916  0.00  0.00    +0.163 A 
ATOM     20  C   UNL     1       1.954  -0.174  22.228  0.00  0.00    +0.042 A 
ATOM     21  C   UNL     1       2.725   0.063  22.057  0.00  0.00    +0.044 A 
ATOM     22  C   UNL     1       2.962   0.598  22.637  0.00  0.00    +0.180 A 
ATOM     23  O   UNL     1       2.338   0.693  23.168  0.00  0.00    -0.449 OA
ENDBRANCH  15  19
ENDBRANCH   8  12
BRANCH   4   3
ATOM      1  O   UNL     1      -4.476   3.019  24.322  0.00  0.00    -0.273 OA
ATOM      2  C   UNL     1      -4.679   2.311  24.694  0.00  0.00    +0.241 C 
ATOM      3  N   UNL     1      -4.149   1.679  24.696  0.00  0.00    -0.202 NA
BRANCH   2  24
ATOM     24  C   UNL     1      -5.413   2.236  25.063  0.00  0.00    +0.078 C 
ATOM     25  C   UNL     1      -5.910   2.389  25.704  0.00  0.00    +0.010 C 
ATOM     26  C   UNL     1      -6.188   1.952  25.062  0.00  0.00    +0.010 C 
ENDBRANCH   2  24
ENDBRANCH   4   3
TORSDOF 4
ENDMDL
MODEL 5
REMARK VINA RESULT:      -6.7     17.322     18.988
REMARK  Name = 
REMARK  4 active torsions:
REMARK  status: ('A' for Active; 'I' for Inactive)
REMARK    1  A    between atoms: C_2  and  C_24
REMARK    2  A    between atoms: N_3  and  C_4
REMARK    3  A    between atoms: C_8  and  N_12
REMARK    4  A    between atoms: C_15  and  C_19
REMARK                            x       y       z     vdW  Elec       q    Type
REMARK                         _______ _______ _______ _____ _____    ______ ____
ROOT
ATOM      4  C   UNL     1      12.281   8.778  17.994  0.00  0.00    +0.154 C 
ATOM      5  C   UNL     1      11.966   8.443  18.678  0.00  0.00    +0.166 C 
ATOM      6  O   UNL     1      12.589   8.298  19.200  0.00  0.00    -0.350 OA
ATOM      7  C   UNL     1      13.287   8.543  18.838  0.00  0.00    +0.166 C 
ATOM      8  C   UNL     1      14.104   8.605  18.935  0.00  0.00    +0.154 C 
ATOM      9  C   UNL     1      14.419   8.939  18.250  0.00  0.00    +0.166 C 
ATOM     10  O   UNL     1      13.797   9.084  17.729  0.00  0.00    -0.350 OA
ATOM     11  C   UNL     1      13.097   8.839  18.092  0.00  0.00    +0.166 C 
ENDROOT
BRANCH   8  12
ATOM     12  N   UNL     1      14.532   8.372  19.602  0.00  0.00    -0.200 NA
ATOM     13  C   UNL     1      15.052   7.733  19.557  0.00  0.00    +0.237 A 
ATOM     14  N   UNL     1      15.479   7.501  20.223  0.00  0.00    -0.209 NA
ATOM     15  C   UNL     1      15.999   6.862  20.178  0.00  0.00    +0.120 A 
ATOM     16  C   UNL     1      16.092   6.456  19.466  0.00  0.00    +0.043 A 
ATOM     17  C   UNL     1      15.665   6.688  18.799  0.00  0.00    +0.104 A 
ATOM     18  N   UNL     1      15.145   7.327  18.845  0.00  0.00    -0.211 NA
BRANCH  15  19
ATOM     19  C   UNL     1      16.426   6.630  20.844  0.00  0.00    +0.163 A 
ATOM     20  C   UNL     1      17.198   6.857  21.029  0.00  0.00    +0.042 A 
ATOM     21  C   UNL     1      17.405   6.497  21.741  0.00  0.00    +0.044 A 
ATOM     22  C   UNL     1      16.763   6.047  21.996  0.00  0.00    +0.180 A 
ATOM     23  O   UNL     1      16.158   6.129  21.441  0.00  0.00    -0.449 OA
ENDBRANCH  15  19
ENDBRANCH   8  12
BRANCH   4   3
ATOM      1  O   UNL     1      11.214   7.733  17.290  0.00  0.00    -0.273 OA
ATOM      2  C   UNL     1      11.321   8.488  16.976  0.00  0.00    +0.241 C 
ATOM      3  N   UNL     1      11.854   9.010  17.327  0.00  0.00    -0.202 NA
BRANCH   2  24
ATOM     24  C   UNL     1      10.893   8.720  16.309  0.00  0.00    +0.078 C 
ATOM     25  C   UNL     1      10.171   8.835  15.927  0.00  0.00    +0.010 C 
ATOM     26  C   UNL     1      10.876   9.008  15.536  0.00  0.00    +0.010 C 
ENDBRANCH   2  24
ENDBRANCH   4   3
TORSDOF 4
ENDMDL
MODEL 6
REMARK VINA RESULT:      -5.4     15.616     17.973
REMARK  Name = 
REMARK  4 active torsions:
REMARK  status: ('A' for Active; 'I' for Inactive)
REMARK    1  A    between atoms: C_2  and  C_24
REMARK    2  A    between atoms: N_3  and  C_4
REMARK    3  A    between atoms: C_8  and  N_12
REMARK    4  A    between atoms: C_15  and  C_19
REMARK                            x       y       z     vdW  Elec       q    Type
REMARK                         _______ _______ _______ _____ _____    ______ ____
ROOT
ATOM      4  C   UNL     1      13.478   8.703  16.819  0.00  0.00    +0.154 C 
ATOM      5  C   UNL     1      12.679   8.848  16.672  0.00  0.00    +0.166 C 
ATOM      6  O   UNL     1      12.284   8.851  17.395  0.00  0.00    -0.350 OA
ATOM      7  C   UNL     1      12.836   8.707  17.989  0.00  0.00    +0.166 C 
ATOM      8  C   UNL     1      12.935   8.619  18.804  0.00  0.00    +0.154 C 
ATOM      9  C   UNL     1      13.733   8.474  18.951  0.00  0.00    +0.166 C 
ATOM     10  O   UNL     1      14.129   8.472  18.228  0.00  0.00    -0.350 OA
ATOM     11  C   UNL     1      13.575   8.616  17.633  0.00  0.00    +0.166 C 
ENDROOT
BRANCH   8  12
ATOM     12  N   UNL     1      12.338   8.668  19.372  0.00  0.00    -0.200 NA
ATOM     13  C   UNL     1      12.265   8.080  19.946  0.00  0.00    +0.237 A 
ATOM     14  N   UNL     1      11.669   8.129  20.514  0.00  0.00    -0.209 NA
ATOM     15  C   UNL     1      11.597   7.541  21.088  0.00  0.00    +0.120 A 
ATOM     16  C   UNL     1      12.121   6.904  21.095  0.00  0.00    +0.043 A 
ATOM     17  C   UNL     1      12.718   6.855  20.527  0.00  0.00    +0.104 A 
ATOM     18  N   UNL     1      12.790   7.443  19.953  0.00  0.00    -0.211 NA
BRANCH  15  19
ATOM     19  C   UNL     1      11.001   7.590  21.656  0.00  0.00    +0.163 A 
ATOM     20  C   UNL     1      10.925   8.177  22.231  0.00  0.00    +0.042 A 
ATOM     21  C   UNL     1      10.253   8.010  22.679  0.00  0.00    +0.044 A 
ATOM     22  C   UNL     1       9.913   7.321  22.381  0.00  0.00    +0.180 A 
ATOM     23  O   UNL     1      10.375   7.061  21.749  0.00  0.00    -0.449 OA
ENDBRANCH  15  19
ENDBRANCH   8  12
BRANCH   4   3
ATOM      1  O   UNL     1      13.154   9.085  15.246  0.00  0.00    -0.273 OA
ATOM      2  C   UNL     1      13.913   8.845  15.465  0.00  0.00    +0.241 C 
ATOM      3  N   UNL     1      14.075   8.654  16.251  0.00  0.00    -0.202 NA
BRANCH   2  24
ATOM     24  C   UNL     1      14.510   8.796  14.897  0.00  0.00    +0.078 C 
ATOM     25  C   UNL     1      14.840   8.427  14.238  0.00  0.00    +0.010 C 
ATOM     26  C   UNL     1      15.213   9.081  14.573  0.00  0.00    +0.010 C 
ENDBRANCH   2  24
ENDBRANCH   4   3
TORSDOF 4
ENDMDL
