REMARK  Name = 
REMARK  7 active torsions:
REMARK  status: ('A' for Active; 'I' for Inactive)
REMARK    1  A    between atoms: O_2  and  C_3
REMARK    2  A    between atoms: C_6  and  C_9
REMARK    3  A    between atoms: N_11  and  C_12
REMARK    4  A    between atoms: C_12  and  C_13
REMARK    5  A    between atoms: C_17  and  C_18
REMARK    6  A    between atoms: C_18  and  C_19
REMARK    7  A    between atoms: C_31  and  C_32
REMARK                            x       y       z     vdW  Elec       q    Type
REMARK                         _______ _______ _______ _____ _____    ______ ____
ROOT
ATOM     13  C   UNL     1       2.143 -10.312   0.000  0.00  0.00    +0.043 C 
ATOM     14  C   UNL     1       2.143 -11.137   0.000  0.00  0.00    -0.033 C 
ATOM     15  C   UNL     1       1.429 -11.550   0.000  0.00  0.00    -0.048 C 
ATOM     16  C   UNL     1       1.429 -12.375   0.000  0.00  0.00    +0.026 C 
ATOM     17  C   UNL     1       0.715 -11.137   0.000  0.00  0.00    +0.027 C 
ATOM     30  C   UNL     1       0.715 -10.312   0.000  0.00  0.00    +0.005 C 
ATOM     31  C   UNL     1       1.429  -9.900   0.000  0.00  0.00    +0.006 C 
ENDROOT
BRANCH  31  32
ATOM     32  C   UNL     1       1.429  -9.075   0.000  0.00  0.00    +0.000 C 
ATOM     33  C   UNL     1       2.143  -8.662   0.000  0.00  0.00    +0.000 C 
ATOM     34  C   UNL     1       0.715  -8.662   0.000  0.00  0.00    +0.000 C 
ENDBRANCH  31  32
BRANCH  13  12
ATOM     12  C   UNL     1       2.858  -9.900   0.000  0.00  0.00    +0.120 C 
BRANCH  12  11
ATOM      9  C   UNL     1       3.572  -8.662   0.000  0.00  0.00    +0.265 C 
ATOM     10  O   UNL     1       4.287  -9.075   0.000  0.00  0.00    -0.268 OA
ATOM     11  N   UNL     1       2.858  -9.075   0.000  0.00  0.00    -0.201 NA
BRANCH   9   6
ATOM      3  C   UNL     1       3.572  -6.188   0.000  0.00  0.00    +0.139 A 
ATOM      4  C   UNL     1       4.287  -6.600   0.000  0.00  0.00    +0.037 A 
ATOM      5  C   UNL     1       4.287  -7.425   0.000  0.00  0.00    +0.008 A 
ATOM      6  C   UNL     1       3.572  -7.838   0.000  0.00  0.00    +0.055 A 
ATOM      7  C   UNL     1       2.858  -7.425   0.000  0.00  0.00    +0.008 A 
ATOM      8  C   UNL     1       2.858  -6.600   0.000  0.00  0.00    +0.037 A 
BRANCH   3   2
ATOM      1  C   UNL     1       2.858  -4.950   0.000  0.00  0.00    +0.252 C 
ATOM      2  O   UNL     1       3.572  -5.362   0.000  0.00  0.00    -0.471 OA
ENDBRANCH   3   2
ENDBRANCH   9   6
ENDBRANCH  12  11
ENDBRANCH  13  12
BRANCH  17  18
ATOM     18  C   UNL     1       0.000 -11.550   0.000  0.00  0.00    +0.089 C 
BRANCH  18  19
ATOM     19  C   UNL     1       0.000 -12.375   0.000  0.00  0.00    +0.226 C 
ATOM     20  O   UNL     1       0.715 -12.787   0.000  0.00  0.00    -0.275 OA
ATOM     21  N   UNL     1      -0.715 -12.787   0.000  0.00  0.00    -0.276 N 
ATOM     22  C   UNL     1      -0.715 -13.613   0.000  0.00  0.00    +0.115 C 
ATOM     23  C   UNL     1      -1.429 -14.025   0.000  0.00  0.00    +0.115 C 
ATOM     24  N   UNL     1      -2.143 -13.613   0.000  0.00  0.00    -0.276 N 
ATOM     25  C   UNL     1      -2.143 -12.787   0.000  0.00  0.00    +0.115 C 
ATOM     26  C   UNL     1      -1.429 -12.375   0.000  0.00  0.00    +0.115 C 
ATOM     27  C   UNL     1      -2.858 -14.025   0.000  0.00  0.00    +0.226 C 
ATOM     28  C   UNL     1      -2.858 -14.850   0.000  0.00  0.00    +0.095 C 
ATOM     29  O   UNL     1      -3.572 -13.613   0.000  0.00  0.00    -0.275 OA
ENDBRANCH  18  19
ENDBRANCH  17  18
TORSDOF 7
