MODEL 1
REMARK VINA RESULT:     -11.0      0.000      0.000
REMARK  Name = 
REMARK  6 active torsions:
REMARK  status: ('A' for Active; 'I' for Inactive)
REMARK    1  A    between atoms: O_2  and  C_3
REMARK    2  A    between atoms: C_3  and  C_4
REMARK    3  A    between atoms: N_6  and  C_7
REMARK    4  A    between atoms: C_7  and  C_8
REMARK    5  A    between atoms: C_10  and  C_11
REMARK    6  A    between atoms: C_11  and  C_12
REMARK                            x       y       z     vdW  Elec       q    Type
REMARK                         _______ _______ _______ _____ _____    ______ ____
ROOT
ATOM      8  C   UNL     1      -4.385   2.738  25.332  0.00  0.00    +0.170 C 
ATOM      9  O   UNL     1      -4.117   2.011  25.051  0.00  0.00    -0.351 OA
ATOM     10  C   UNL     1      -4.777   1.555  24.856  0.00  0.00    +0.157 C 
ATOM     23  C   UNL     1      -5.452   2.001  25.016  0.00  0.00    +0.212 C 
ATOM     24  O   UNL     1      -6.233   1.758  24.902  0.00  0.00    -0.218 OA
ATOM     25  C   UNL     1      -5.210   2.733  25.311  0.00  0.00    +0.213 C 
ATOM     26  O   UNL     1      -5.705   3.350  25.542  0.00  0.00    -0.218 OA
ENDROOT
BRANCH   8   7
ATOM      7  C   UNL     1      -3.911   3.363  25.590  0.00  0.00    +0.147 C 
BRANCH   7   6
ATOM      4  C   UNL     1      -2.640   4.017  25.603  0.00  0.00    +0.272 C 
ATOM      5  O   UNL     1      -2.875   4.460  26.258  0.00  0.00    -0.271 OA
ATOM      6  N   UNL     1      -3.159   3.468  25.268  0.00  0.00    -0.201 NA
BRANCH   4   3
ATOM      3  C   UNL     1      -1.888   4.123  25.281  0.00  0.00    +0.229 C 
BRANCH   3   2
ATOM      1  C   UNL     1      -0.819   4.994  24.907  0.00  0.00    +0.175 C 
ATOM      2  O   UNL     1      -1.531   4.866  25.305  0.00  0.00    -0.342 OA
ENDBRANCH   3   2
ENDBRANCH   4   3
ENDBRANCH   7   6
ENDBRANCH   8   7
BRANCH  10  11
ATOM     11  C   UNL     1      -4.764   0.787  24.553  0.00  0.00    +0.118 C 
BRANCH  11  12
ATOM     12  C   UNL     1      -4.366   0.189  24.961  0.00  0.00    +0.232 C 
ATOM     13  O   UNL     1      -4.112   0.317  25.735  0.00  0.00    -0.274 OA
ATOM     14  N   UNL     1      -4.224  -0.535  24.593  0.00  0.00    -0.259 N 
ATOM     15  C   UNL     1      -4.444  -0.742  23.826  0.00  0.00    +0.103 C 
ATOM     16  C   UNL     1      -4.192  -1.515  23.687  0.00  0.00    +0.049 C 
ATOM     17  C   UNL     1      -3.815  -1.786  24.369  0.00  0.00    -0.007 A 
ATOM     18  C   UNL     1      -3.457  -2.507  24.552  0.00  0.00    -0.003 A 
ATOM     19  C   UNL     1      -3.118  -2.621  25.295  0.00  0.00    -0.000 A 
ATOM     20  C   UNL     1      -3.137  -2.016  25.856  0.00  0.00    +0.001 A 
ATOM     21  C   UNL     1      -3.496  -1.295  25.672  0.00  0.00    +0.015 A 
ATOM     22  C   UNL     1      -3.835  -1.181  24.928  0.00  0.00    +0.050 A 
ENDBRANCH  11  12
ENDBRANCH  10  11
TORSDOF 6
ENDMDL
MODEL 2
REMARK VINA RESULT:     -10.0      1.842      3.019
REMARK  Name = 
REMARK  6 active torsions:
REMARK  status: ('A' for Active; 'I' for Inactive)
REMARK    1  A    between atoms: O_2  and  C_3
REMARK    2  A    between atoms: C_3  and  C_4
REMARK    3  A    between atoms: N_6  and  C_7
REMARK    4  A    between atoms: C_7  and  C_8
REMARK    5  A    between atoms: C_10  and  C_11
REMARK    6  A    between atoms: C_11  and  C_12
REMARK                            x       y       z     vdW  Elec       q    Type
REMARK                         _______ _______ _______ _____ _____    ______ ____
ROOT
ATOM      8  C   UNL     1      -1.624   2.227  25.060  0.00  0.00    +0.170 C 
ATOM      9  O   UNL     1      -1.919   1.458  25.095  0.00  0.00    -0.351 OA
ATOM     10  C   UNL     1      -1.347   0.952  24.785  0.00  0.00    +0.157 C 
ATOM     23  C   UNL     1      -0.698   1.408  24.558  0.00  0.00    +0.212 C 
ATOM     24  O   UNL     1       0.000   1.126  24.220  0.00  0.00    -0.218 OA
ATOM     25  C   UNL     1      -0.870   2.197  24.729  0.00  0.00    +0.213 C 
ATOM     26  O   UNL     1      -0.374   2.842  24.591  0.00  0.00    -0.218 OA
ENDROOT
BRANCH   8   7
ATOM      7  C   UNL     1      -2.016   2.909  25.313  0.00  0.00    +0.147 C 
BRANCH   7   6
ATOM      4  C   UNL     1      -3.251   3.598  25.521  0.00  0.00    +0.272 C 
ATOM      5  O   UNL     1      -2.891   4.068  26.096  0.00  0.00    -0.271 OA
ATOM      6  N   UNL     1      -2.813   3.018  25.129  0.00  0.00    -0.201 NA
BRANCH   4   3
ATOM      3  C   UNL     1      -4.047   3.707  25.337  0.00  0.00    +0.229 C 
BRANCH   3   2
ATOM      1  C   UNL     1      -5.421   3.486  25.660  0.00  0.00    +0.175 C 
ATOM      2  O   UNL     1      -4.628   3.507  25.887  0.00  0.00    -0.342 OA
ENDBRANCH   3   2
ENDBRANCH   4   3
ENDBRANCH   7   6
ENDBRANCH   8   7
BRANCH  10  11
ATOM     11  C   UNL     1      -1.411   0.132  24.714  0.00  0.00    +0.118 C 
BRANCH  11  12
ATOM     12  C   UNL     1      -2.126  -0.207  24.480  0.00  0.00    +0.232 C 
ATOM     13  O   UNL     1      -2.708   0.260  24.128  0.00  0.00    -0.274 OA
ATOM     14  N   UNL     1      -2.258  -1.013  24.598  0.00  0.00    -0.259 N 
ATOM     15  C   UNL     1      -1.730  -1.546  24.940  0.00  0.00    +0.103 C 
ATOM     16  C   UNL     1      -2.088  -2.290  24.947  0.00  0.00    +0.049 C 
ATOM     17  C   UNL     1      -2.837  -2.216  24.610  0.00  0.00    -0.007 A 
ATOM     18  C   UNL     1      -3.436  -2.766  24.471  0.00  0.00    -0.003 A 
ATOM     19  C   UNL     1      -4.141  -2.526  24.116  0.00  0.00    -0.000 A 
ATOM     20  C   UNL     1      -4.247  -1.737  23.900  0.00  0.00    +0.001 A 
ATOM     21  C   UNL     1      -3.647  -1.187  24.038  0.00  0.00    +0.015 A 
ATOM     22  C   UNL     1      -2.942  -1.428  24.394  0.00  0.00    +0.050 A 
ENDBRANCH  11  12
ENDBRANCH  10  11
TORSDOF 6
ENDMDL
MODEL 3
REMARK VINA RESULT:      -9.7      2.363      4.565
REMARK  Name = 
REMARK  6 active torsions:
REMARK  status: ('A' for Active; 'I' for Inactive)
REMARK    1  A    between atoms: O_2  and  C_3
REMARK    2  A    between atoms: C_3  and  C_4
REMARK    3  A    between atoms: N_6  and  C_7
REMARK    4  A    between atoms: C_7  and  C_8
REMARK    5  A    between atoms: C_10  and  C_11
REMARK    6  A    between atoms: C_11  and  C_12
REMARK                            x       y       z     vdW  Elec       q    Type
REMARK                         _______ _______ _______ _____ _____    ______ ____
ROOT
ATOM      8  C   UNL     1      -2.682  -1.117  24.596  0.00  0.00    +0.170 C 
ATOM      9  O   UNL     1      -3.084  -0.406  24.713  0.00  0.00    -0.351 OA
ATOM     10  C   UNL     1      -3.878  -0.529  24.525  0.00  0.00    +0.157 C 
ATOM     23  C   UNL     1      -3.966  -1.315  24.292  0.00  0.00    +0.212 C 
ATOM     24  O   UNL     1      -4.671  -1.675  24.056  0.00  0.00    -0.218 OA
ATOM     25  C   UNL     1      -3.227  -1.678  24.336  0.00  0.00    +0.213 C 
ATOM     26  O   UNL     1      -3.061  -2.465  24.151  0.00  0.00    -0.218 OA
ENDROOT
BRANCH   8   7
ATOM      7  C   UNL     1      -1.875  -1.243  24.718  0.00  0.00    +0.147 C 
BRANCH   7   6
ATOM      4  C   UNL     1      -0.519  -0.829  24.540  0.00  0.00    +0.272 C 
ATOM      5  O   UNL     1      -0.270  -1.420  25.059  0.00  0.00    -0.271 OA
ATOM      6  N   UNL     1      -1.322  -0.740  24.369  0.00  0.00    -0.201 NA
BRANCH   4   3
ATOM      3  C   UNL     1       0.034  -0.325  24.191  0.00  0.00    +0.229 C 
BRANCH   3   2
ATOM      1  C   UNL     1       0.944  -0.048  23.125  0.00  0.00    +0.175 C 
ATOM      2  O   UNL     1       0.469  -0.582  23.539  0.00  0.00    -0.342 OA
ENDBRANCH   3   2
ENDBRANCH   4   3
ENDBRANCH   7   6
ENDBRANCH   8   7
BRANCH  10  11
ATOM     11  C   UNL     1      -4.478   0.036  24.564  0.00  0.00    +0.118 C 
BRANCH  11  12
ATOM     12  C   UNL     1      -4.297   0.838  24.490  0.00  0.00    +0.232 C 
ATOM     13  O   UNL     1      -3.670   1.075  24.010  0.00  0.00    -0.274 OA
ATOM     14  N   UNL     1      -4.743   1.400  24.896  0.00  0.00    -0.259 N 
ATOM     15  C   UNL     1      -5.383   1.246  25.393  0.00  0.00    +0.103 C 
ATOM     16  C   UNL     1      -5.662   1.967  25.681  0.00  0.00    +0.049 C 
ATOM     17  C   UNL     1      -5.195   2.567  25.361  0.00  0.00    -0.007 A 
ATOM     18  C   UNL     1      -5.214   3.387  25.449  0.00  0.00    -0.003 A 
ATOM     19  C   UNL     1      -4.665   3.857  25.052  0.00  0.00    -0.000 A 
ATOM     20  C   UNL     1      -4.097   3.508  24.567  0.00  0.00    +0.001 A 
ATOM     21  C   UNL     1      -4.078   2.687  24.479  0.00  0.00    +0.015 A 
ATOM     22  C   UNL     1      -4.628   2.217  24.877  0.00  0.00    +0.050 A 
ENDBRANCH  11  12
ENDBRANCH  10  11
TORSDOF 6
ENDMDL
MODEL 4
REMARK VINA RESULT:      -9.6      2.307      5.007
REMARK  Name = 
REMARK  6 active torsions:
REMARK  status: ('A' for Active; 'I' for Inactive)
REMARK    1  A    between atoms: O_2  and  C_3
REMARK    2  A    between atoms: C_3  and  C_4
REMARK    3  A    between atoms: N_6  and  C_7
REMARK    4  A    between atoms: C_7  and  C_8
REMARK    5  A    between atoms: C_10  and  C_11
REMARK    6  A    between atoms: C_11  and  C_12
REMARK                            x       y       z     vdW  Elec       q    Type
REMARK                         _______ _______ _______ _____ _____    ______ ____
ROOT
ATOM      8  C   UNL     1      -0.648   1.416  24.427  0.00  0.00    +0.170 C 
ATOM      9  O   UNL     1      -1.426   1.663  24.543  0.00  0.00    -0.351 OA
ATOM     10  C   UNL     1      -1.439   2.488  24.512  0.00  0.00    +0.157 C 
ATOM     23  C   UNL     1      -0.668   2.750  24.377  0.00  0.00    +0.212 C 
ATOM     24  O   UNL     1      -0.428   3.537  24.307  0.00  0.00    -0.218 OA
ATOM     25  C   UNL     1      -0.180   2.087  24.325  0.00  0.00    +0.213 C 
ATOM     26  O   UNL     1       0.635   2.094  24.193  0.00  0.00    -0.218 OA
ENDROOT
BRANCH   8   7
ATOM      7  C   UNL     1      -0.385   0.634  24.416  0.00  0.00    +0.147 C 
BRANCH   7   6
ATOM      4  C   UNL     1      -0.664  -0.758  24.580  0.00  0.00    +0.272 C 
ATOM      5  O   UNL     1       0.027  -0.945  24.169  0.00  0.00    -0.271 OA
ATOM      6  N   UNL     1      -0.870   0.032  24.704  0.00  0.00    -0.201 NA
BRANCH   4   3
ATOM      3  C   UNL     1      -1.149  -1.360  24.868  0.00  0.00    +0.229 C 
BRANCH   3   2
ATOM      1  C   UNL     1      -2.013  -2.464  24.591  0.00  0.00    +0.175 C 
ATOM      2  O   UNL     1      -1.394  -1.966  24.365  0.00  0.00    -0.342 OA
ENDBRANCH   3   2
ENDBRANCH   4   3
ENDBRANCH   7   6
ENDBRANCH   8   7
BRANCH  10  11
ATOM     11  C   UNL     1      -2.105   2.967  24.601  0.00  0.00    +0.118 C 
BRANCH  11  12
ATOM     12  C   UNL     1      -2.860   2.637  24.551  0.00  0.00    +0.232 C 
ATOM     13  O   UNL     1      -2.998   1.998  24.049  0.00  0.00    -0.274 OA
ATOM     14  N   UNL     1      -3.475   2.947  25.005  0.00  0.00    -0.259 N 
ATOM     15  C   UNL     1      -3.420   3.582  25.529  0.00  0.00    +0.103 C 
ATOM     16  C   UNL     1      -4.165   3.704  25.861  0.00  0.00    +0.049 C 
ATOM     17  C   UNL     1      -4.681   3.145  25.543  0.00  0.00    -0.007 A 
ATOM     18  C   UNL     1      -5.484   3.001  25.667  0.00  0.00    -0.003 A 
ATOM     19  C   UNL     1      -5.860   2.389  25.262  0.00  0.00    -0.000 A 
ATOM     20  C   UNL     1      -5.435   1.921  24.732  0.00  0.00    +0.001 A 
ATOM     21  C   UNL     1      -4.631   2.065  24.608  0.00  0.00    +0.015 A 
ATOM     22  C   UNL     1      -4.255   2.677  25.014  0.00  0.00    +0.050 A 
ENDBRANCH  11  12
ENDBRANCH  10  11
TORSDOF 6
ENDMDL
MODEL 5
REMARK VINA RESULT:      -9.2      2.589      5.651
REMARK  Name = 
REMARK  6 active torsions:
REMARK  status: ('A' for Active; 'I' for Inactive)
REMARK    1  A    between atoms: O_2  and  C_3
REMARK    2  A    between atoms: C_3  and  C_4
REMARK    3  A    between atoms: N_6  and  C_7
REMARK    4  A    between atoms: C_7  and  C_8
REMARK    5  A    between atoms: C_10  and  C_11
REMARK    6  A    between atoms: C_11  and  C_12
REMARK                            x       y       z     vdW  Elec       q    Type
REMARK                         _______ _______ _______ _____ _____    ______ ____
ROOT
ATOM      8  C   UNL     1      -0.735  -0.132  24.441  0.00  0.00    +0.170 C 
ATOM      9  O   UNL     1      -1.173   0.511  24.713  0.00  0.00    -0.351 OA
ATOM     10  C   UNL     1      -0.769   1.200  24.506  0.00  0.00    +0.157 C 
ATOM     23  C   UNL     1      -0.082   0.982  24.105  0.00  0.00    +0.212 C 
ATOM     24  O   UNL     1       0.486   1.498  23.798  0.00  0.00    -0.218 OA
ATOM     25  C   UNL     1      -0.061   0.158  24.065  0.00  0.00    +0.213 C 
ATOM     26  O   UNL     1       0.531  -0.295  23.711  0.00  0.00    -0.218 OA
ENDROOT
BRANCH   8   7
ATOM      7  C   UNL     1      -0.937  -0.928  24.529  0.00  0.00    +0.147 C 
BRANCH   7   6
ATOM      4  C   UNL     1      -1.929  -1.940  24.707  0.00  0.00    +0.272 C 
ATOM      5  O   UNL     1      -1.342  -2.520  24.686  0.00  0.00    -0.271 OA
ATOM      6  N   UNL     1      -1.727  -1.144  24.629  0.00  0.00    -0.201 NA
BRANCH   4   3
ATOM      3  C   UNL     1      -2.719  -2.156  24.807  0.00  0.00    +0.229 C 
BRANCH   3   2
ATOM      1  C   UNL     1      -3.880  -2.803  24.282  0.00  0.00    +0.175 C 
ATOM      2  O   UNL     1      -3.059  -2.715  24.305  0.00  0.00    -0.342 OA
ENDBRANCH   3   2
ENDBRANCH   4   3
ENDBRANCH   7   6
ENDBRANCH   8   7
BRANCH  10  11
ATOM     11  C   UNL     1      -1.010   1.972  24.670  0.00  0.00    +0.118 C 
BRANCH  11  12
ATOM     12  C   UNL     1      -1.802   2.187  24.575  0.00  0.00    +0.232 C 
ATOM     13  O   UNL     1      -2.267   1.806  24.010  0.00  0.00    -0.274 OA
ATOM     14  N   UNL     1      -2.126   2.781  25.045  0.00  0.00    -0.259 N 
ATOM     15  C   UNL     1      -1.731   3.209  25.629  0.00  0.00    +0.103 C 
ATOM     16  C   UNL     1      -2.265   3.745  25.958  0.00  0.00    +0.049 C 
ATOM     17  C   UNL     1      -2.990   3.649  25.577  0.00  0.00    -0.007 A 
ATOM     18  C   UNL     1      -3.718   4.028  25.672  0.00  0.00    -0.003 A 
ATOM     19  C   UNL     1      -4.359   3.810  25.202  0.00  0.00    -0.000 A 
ATOM     20  C   UNL     1      -4.275   3.214  24.637  0.00  0.00    +0.001 A 
ATOM     21  C   UNL     1      -3.547   2.836  24.543  0.00  0.00    +0.015 A 
ATOM     22  C   UNL     1      -2.905   3.054  25.013  0.00  0.00    +0.050 A 
ENDBRANCH  11  12
ENDBRANCH  10  11
TORSDOF 6
ENDMDL
MODEL 6
REMARK VINA RESULT:      -9.1      2.931      3.436
REMARK  Name = 
REMARK  6 active torsions:
REMARK  status: ('A' for Active; 'I' for Inactive)
REMARK    1  A    between atoms: O_2  and  C_3
REMARK    2  A    between atoms: C_3  and  C_4
REMARK    3  A    between atoms: N_6  and  C_7
REMARK    4  A    between atoms: C_7  and  C_8
REMARK    5  A    between atoms: C_10  and  C_11
REMARK    6  A    between atoms: C_11  and  C_12
REMARK                            x       y       z     vdW  Elec       q    Type
REMARK                         _______ _______ _______ _____ _____    ______ ____
ROOT
ATOM      8  C   UNL     1      -0.947   1.705  24.573  0.00  0.00    +0.170 C 
ATOM      9  O   UNL     1      -1.479   1.075  24.544  0.00  0.00    -0.351 OA
ATOM     10  C   UNL     1      -2.211   1.348  24.808  0.00  0.00    +0.157 C 
ATOM     23  C   UNL     1      -2.132   2.147  25.000  0.00  0.00    +0.212 C 
ATOM     24  O   UNL     1      -2.730   2.638  25.288  0.00  0.00    -0.218 OA
ATOM     25  C   UNL     1      -1.351   2.367  24.855  0.00  0.00    +0.213 C 
ATOM     26  O   UNL     1      -1.029   3.118  24.971  0.00  0.00    -0.218 OA
ENDROOT
BRANCH   8   7
ATOM      7  C   UNL     1      -0.151   1.678  24.357  0.00  0.00    +0.147 C 
BRANCH   7   6
ATOM      4  C   UNL     1       0.928   1.020  23.690  0.00  0.00    +0.272 C 
ATOM      5  O   UNL     1       1.450   1.595  23.968  0.00  0.00    -0.271 OA
ATOM      6  N   UNL     1       0.127   1.062  23.884  0.00  0.00    -0.201 NA
BRANCH   4   3
ATOM      3  C   UNL     1       1.205   0.404  23.217  0.00  0.00    +0.229 C 
BRANCH   3   2
ATOM      1  C   UNL     1       2.187  -0.112  22.316  0.00  0.00    +0.175 C 
ATOM      2  O   UNL     1       1.945   0.463  22.856  0.00  0.00    -0.342 OA
ENDBRANCH   3   2
ENDBRANCH   4   3
ENDBRANCH   7   6
ENDBRANCH   8   7
BRANCH  10  11
ATOM     11  C   UNL     1      -2.902   0.901  24.870  0.00  0.00    +0.118 C 
BRANCH  11  12
ATOM     12  C   UNL     1      -2.857   0.083  24.976  0.00  0.00    +0.232 C 
ATOM     13  O   UNL     1      -2.291  -0.235  25.484  0.00  0.00    -0.274 OA
ATOM     14  N   UNL     1      -3.378  -0.413  24.574  0.00  0.00    -0.259 N 
ATOM     15  C   UNL     1      -3.970  -0.176  24.051  0.00  0.00    +0.103 C 
ATOM     16  C   UNL     1      -4.356  -0.853  23.779  0.00  0.00    +0.049 C 
ATOM     17  C   UNL     1      -4.003  -1.508  24.133  0.00  0.00    -0.007 A 
ATOM     18  C   UNL     1      -4.154  -2.317  24.072  0.00  0.00    -0.003 A 
ATOM     19  C   UNL     1      -3.701  -2.854  24.503  0.00  0.00    -0.000 A 
ATOM     20  C   UNL     1      -3.096  -2.584  24.994  0.00  0.00    +0.001 A 
ATOM     21  C   UNL     1      -2.945  -1.775  25.056  0.00  0.00    +0.015 A 
ATOM     22  C   UNL     1      -3.399  -1.237  24.625  0.00  0.00    +0.050 A 
ENDBRANCH  11  12
ENDBRANCH  10  11
TORSDOF 6
ENDMDL
MODEL 7
REMARK VINA RESULT:      -9.1      2.260      3.705
REMARK  Name = 
REMARK  6 active torsions:
REMARK  status: ('A' for Active; 'I' for Inactive)
REMARK    1  A    between atoms: O_2  and  C_3
REMARK    2  A    between atoms: C_3  and  C_4
REMARK    3  A    between atoms: N_6  and  C_7
REMARK    4  A    between atoms: C_7  and  C_8
REMARK    5  A    between atoms: C_10  and  C_11
REMARK    6  A    between atoms: C_11  and  C_12
REMARK                            x       y       z     vdW  Elec       q    Type
REMARK                         _______ _______ _______ _____ _____    ______ ____
ROOT
ATOM      8  C   UNL     1      -2.416   3.593  25.222  0.00  0.00    +0.170 C 
ATOM      9  O   UNL     1      -2.079   2.857  25.066  0.00  0.00    -0.351 OA
ATOM     10  C   UNL     1      -1.261   2.954  25.030  0.00  0.00    +0.157 C 
ATOM     23  C   UNL     1      -1.092   3.751  25.164  0.00  0.00    +0.212 C 
ATOM     24  O   UNL     1      -0.340   4.093  25.176  0.00  0.00    -0.218 OA
ATOM     25  C   UNL     1      -1.807   4.146  25.282  0.00  0.00    +0.213 C 
ATOM     26  O   UNL     1      -1.896   4.952  25.435  0.00  0.00    -0.218 OA
ENDROOT
BRANCH   8   7
ATOM      7  C   UNL     1      -3.222   3.750  25.304  0.00  0.00    +0.147 C 
BRANCH   7   6
ATOM      4  C   UNL     1      -4.575   3.299  25.199  0.00  0.00    +0.272 C 
ATOM      5  O   UNL     1      -4.816   3.907  25.702  0.00  0.00    -0.271 OA
ATOM      6  N   UNL     1      -3.777   3.221  24.999  0.00  0.00    -0.201 NA
BRANCH   4   3
ATOM      3  C   UNL     1      -5.129   2.770  24.895  0.00  0.00    +0.229 C 
BRANCH   3   2
ATOM      1  C   UNL     1      -6.186   1.835  25.121  0.00  0.00    +0.175 C 
ATOM      2  O   UNL     1      -5.711   2.455  25.388  0.00  0.00    -0.342 OA
ENDBRANCH   3   2
ENDBRANCH   4   3
ENDBRANCH   7   6
ENDBRANCH   8   7
BRANCH  10  11
ATOM     11  C   UNL     1      -0.707   2.360  24.886  0.00  0.00    +0.118 C 
BRANCH  11  12
ATOM     12  C   UNL     1      -0.840   1.595  25.166  0.00  0.00    +0.232 C 
ATOM     13  O   UNL     1      -1.210   1.481  25.894  0.00  0.00    -0.274 OA
ATOM     14  N   UNL     1      -0.604   0.945  24.717  0.00  0.00    -0.259 N 
ATOM     15  C   UNL     1      -0.229   0.972  23.982  0.00  0.00    +0.103 C 
ATOM     16  C   UNL     1      -0.094   0.197  23.735  0.00  0.00    +0.049 C 
ATOM     17  C   UNL     1      -0.385  -0.310  24.317  0.00  0.00    -0.007 A 
ATOM     18  C   UNL     1      -0.403  -1.134  24.373  0.00  0.00    -0.003 A 
ATOM     19  C   UNL     1      -0.737  -1.494  25.035  0.00  0.00    -0.000 A 
ATOM     20  C   UNL     1      -1.052  -1.033  25.642  0.00  0.00    +0.001 A 
ATOM     21  C   UNL     1      -1.033  -0.209  25.586  0.00  0.00    +0.015 A 
ATOM     22  C   UNL     1      -0.699   0.151  24.923  0.00  0.00    +0.050 A 
ENDBRANCH  11  12
ENDBRANCH  10  11
TORSDOF 6
ENDMDL
MODEL 8
REMARK VINA RESULT:      -8.1     16.773     19.451
REMARK  Name = 
REMARK  6 active torsions:
REMARK  status: ('A' for Active; 'I' for Inactive)
REMARK    1  A    between atoms: O_2  and  C_3
REMARK    2  A    between atoms: C_3  and  C_4
REMARK    3  A    between atoms: N_6  and  C_7
REMARK    4  A    between atoms: C_7  and  C_8
REMARK    5  A    between atoms: C_10  and  C_11
REMARK    6  A    between atoms: C_11  and  C_12
REMARK                            x       y       z     vdW  Elec       q    Type
REMARK                         _______ _______ _______ _____ _____    ______ ____
ROOT
ATOM      8  C   UNL     1      14.391   7.216  18.215  0.00  0.00    +0.170 C 
ATOM      9  O   UNL     1      13.825   7.400  18.785  0.00  0.00    -0.351 OA
ATOM     10  C   UNL     1      13.158   7.691  18.396  0.00  0.00    +0.157 C 
ATOM     23  C   UNL     1      13.312   7.687  17.586  0.00  0.00    +0.212 C 
ATOM     24  O   UNL     1      12.795   7.933  16.992  0.00  0.00    -0.218 OA
ATOM     25  C   UNL     1      14.075   7.393  17.474  0.00  0.00    +0.213 C 
ATOM     26  O   UNL     1      14.455   7.294  16.748  0.00  0.00    -0.218 OA
ENDROOT
BRANCH   8   7
ATOM      7  C   UNL     1      15.144   6.909  18.361  0.00  0.00    +0.147 C 
BRANCH   7   6
ATOM      4  C   UNL     1      16.185   6.655  19.305  0.00  0.00    +0.272 C 
ATOM      5  O   UNL     1      16.427   6.002  18.863  0.00  0.00    -0.271 OA
ATOM      6  N   UNL     1      15.543   7.109  19.054  0.00  0.00    -0.201 NA
BRANCH   4   3
ATOM      3  C   UNL     1      16.585   6.856  19.998  0.00  0.00    +0.229 C 
BRANCH   3   2
ATOM      1  C   UNL     1      17.405   6.466  21.102  0.00  0.00    +0.175 C 
ATOM      2  O   UNL     1      17.088   6.308  20.356  0.00  0.00    -0.342 OA
ENDBRANCH   3   2
ENDBRANCH   4   3
ENDBRANCH   7   6
ENDBRANCH   8   7
BRANCH  10  11
ATOM     11  C   UNL     1      12.458   7.943  18.755  0.00  0.00    +0.118 C 
BRANCH  11  12
ATOM     12  C   UNL     1      12.152   7.527  19.399  0.00  0.00    +0.232 C 
ATOM     13  O   UNL     1      12.299   6.719  19.475  0.00  0.00    -0.274 OA
ATOM     14  N   UNL     1      11.699   7.920  19.965  0.00  0.00    -0.259 N 
ATOM     15  C   UNL     1      11.507   8.722  19.962  0.00  0.00    +0.103 C 
ATOM     16  C   UNL     1      11.048   8.877  20.629  0.00  0.00    +0.049 C 
ATOM     17  C   UNL     1      10.956   8.171  21.045  0.00  0.00    -0.007 A 
ATOM     18  C   UNL     1      10.557   7.991  21.745  0.00  0.00    -0.003 A 
ATOM     19  C   UNL     1      10.561   7.218  22.033  0.00  0.00    -0.000 A 
ATOM     20  C   UNL     1      10.963   6.626  21.624  0.00  0.00    +0.001 A 
ATOM     21  C   UNL     1      11.362   6.807  20.924  0.00  0.00    +0.015 A 
ATOM     22  C   UNL     1      11.358   7.580  20.635  0.00  0.00    +0.050 A 
ENDBRANCH  11  12
ENDBRANCH  10  11
TORSDOF 6
ENDMDL
MODEL 9
REMARK VINA RESULT:      -7.8     16.905     19.074
REMARK  Name = 
REMARK  6 active torsions:
REMARK  status: ('A' for Active; 'I' for Inactive)
REMARK    1  A    between atoms: O_2  and  C_3
REMARK    2  A    between atoms: C_3  and  C_4
REMARK    3  A    between atoms: N_6  and  C_7
REMARK    4  A    between atoms: C_7  and  C_8
REMARK    5  A    between atoms: C_10  and  C_11
REMARK    6  A    between atoms: C_11  and  C_12
REMARK                            x       y       z     vdW  Elec       q    Type
REMARK                         _______ _______ _______ _____ _____    ______ ____
ROOT
ATOM      8  C   UNL     1      14.114   7.357  18.671  0.00  0.00    +0.170 C 
ATOM      9  O   UNL     1      13.482   7.299  19.198  0.00  0.00    -0.351 OA
ATOM     10  C   UNL     1      13.764   6.959  19.895  0.00  0.00    +0.157 C 
ATOM     23  C   UNL     1      14.569   6.808  19.799  0.00  0.00    +0.212 C 
ATOM     24  O   UNL     1      15.070   6.469  20.361  0.00  0.00    -0.218 OA
ATOM     25  C   UNL     1      14.785   7.054  19.042  0.00  0.00    +0.213 C 
ATOM     26  O   UNL     1      15.540   7.006  18.713  0.00  0.00    -0.218 OA
ENDROOT
BRANCH   8   7
ATOM      7  C   UNL     1      14.079   7.666  17.906  0.00  0.00    +0.147 C 
BRANCH   7   6
ATOM      4  C   UNL     1      13.352   8.380  16.904  0.00  0.00    +0.272 C 
ATOM      5  O   UNL     1      13.842   8.062  16.322  0.00  0.00    -0.271 OA
ATOM      6  N   UNL     1      13.470   8.182  17.697  0.00  0.00    -0.201 NA
BRANCH   4   3
ATOM      3  C   UNL     1      12.743   8.896  16.695  0.00  0.00    +0.229 C 
BRANCH   3   2
ATOM      1  C   UNL     1      11.554   9.094  15.929  0.00  0.00    +0.175 C 
ATOM      2  O   UNL     1      12.303   8.757  16.012  0.00  0.00    -0.342 OA
ENDBRANCH   3   2
ENDBRANCH   4   3
ENDBRANCH   7   6
ENDBRANCH   8   7
BRANCH  10  11
ATOM     11  C   UNL     1      13.318   6.798  20.571  0.00  0.00    +0.118 C 
BRANCH  11  12
ATOM     12  C   UNL     1      12.853   7.390  20.910  0.00  0.00    +0.232 C 
ATOM     13  O   UNL     1      13.118   8.171  20.912  0.00  0.00    -0.274 OA
ATOM     14  N   UNL     1      12.124   7.200  21.245  0.00  0.00    -0.259 N 
ATOM     15  C   UNL     1      11.789   6.448  21.284  0.00  0.00    +0.103 C 
ATOM     16  C   UNL     1      11.059   6.513  21.664  0.00  0.00    +0.049 C 
ATOM     17  C   UNL     1      10.944   7.305  21.861  0.00  0.00    -0.007 A 
ATOM     18  C   UNL     1      10.325   7.695  22.243  0.00  0.00    -0.003 A 
ATOM     19  C   UNL     1      10.364   8.509  22.365  0.00  0.00    -0.000 A 
ATOM     20  C   UNL     1      11.021   8.935  22.107  0.00  0.00    +0.001 A 
ATOM     21  C   UNL     1      11.641   8.545  21.725  0.00  0.00    +0.015 A 
ATOM     22  C   UNL     1      11.602   7.730  21.603  0.00  0.00    +0.050 A 
ENDBRANCH  11  12
ENDBRANCH  10  11
TORSDOF 6
ENDMDL
