MODEL 1
REMARK VINA RESULT:     -12.5      0.000      0.000
REMARK  Name = 
REMARK  5 active torsions:
REMARK  status: ('A' for Active; 'I' for Inactive)
REMARK    1  A    between atoms: C_2  and  C_27
REMARK    2  A    between atoms: C_9  and  N_10
REMARK    3  A    between atoms: N_13  and  C_14
REMARK    4  A    between atoms: C_27  and  C_29
REMARK    5  A    between atoms: N_31  and  C_32
REMARK                            x       y       z     vdW  Elec       q    Type
REMARK                         _______ _______ _______ _____ _____    ______ ____
ROOT
ATOM      1  C   UNL     1      -4.030   3.431  24.822  0.00  0.00    +0.052 C 
ATOM      2  C   UNL     1      -4.586   3.414  25.432  0.00  0.00    -0.001 C 
ATOM      3  C   UNL     1      -4.978   2.712  25.612  0.00  0.00    -0.000 C 
ATOM      4  C   UNL     1      -4.817   2.027  25.183  0.00  0.00    -0.001 C 
ATOM      5  C   UNL     1      -5.371   2.009  25.792  0.00  0.00    -0.000 C 
ATOM      6  C   UNL     1      -5.210   1.324  25.362  0.00  0.00    +0.002 C 
ATOM      7  C   UNL     1      -5.048   0.639  24.933  0.00  0.00    +0.022 C 
ATOM      8  C   UNL     1      -4.493   0.656  24.322  0.00  0.00    +0.097 C 
ATOM     20  C   UNL     1      -4.100   1.359  24.142  0.00  0.00    +0.019 C 
ATOM     21  C   UNL     1      -3.545   1.376  23.532  0.00  0.00    +0.002 C 
ATOM     22  C   UNL     1      -4.261   2.044  24.572  0.00  0.00    +0.045 C 
ATOM     23  C   UNL     1      -3.869   2.746  24.392  0.00  0.00    +0.145 C 
ATOM     24  O   UNL     1      -3.314   2.764  23.782  0.00  0.00    -0.224 OA
ENDROOT
BRANCH   8   9
ATOM      9  N   UNL     1      -4.331  -0.029  23.892  0.00  0.00    -0.189 NA
ATOM     10  C   UNL     1      -3.963  -0.669  24.258  0.00  0.00    +0.343 C 
ATOM     11  O   UNL     1      -3.756  -0.625  25.056  0.00  0.00    -0.249 OA
ATOM     12  N   UNL     1      -3.802  -1.355  23.828  0.00  0.00    -0.161 NA
BRANCH  12  13
ATOM     13  C   UNL     1      -3.434  -1.995  24.195  0.00  0.00    +0.077 A 
ATOM     14  C   UNL     1      -3.887  -2.624  24.480  0.00  0.00    +0.017 A 
ATOM     15  C   UNL     1      -3.518  -3.265  24.847  0.00  0.00    +0.004 A 
ATOM     16  C   UNL     1      -2.698  -3.277  24.929  0.00  0.00    +0.030 A 
ATOM     17  C   UNL     1      -2.245  -2.648  24.644  0.00  0.00    +0.141 A 
ATOM     18  F   UNL     1      -1.424  -2.662  24.726  0.00  0.00    -0.204 F 
ATOM     19  C   UNL     1      -2.613  -2.008  24.277  0.00  0.00    +0.046 A 
ENDBRANCH  12  13
ENDBRANCH   8   9
BRANCH   1  25
ATOM     25  C   UNL     1      -3.637   4.134  24.642  0.00  0.00    +0.077 C 
ATOM     26  C   UNL     1      -3.957   4.654  24.087  0.00  0.00    +0.009 C 
BRANCH  25  27
ATOM     27  C   UNL     1      -2.925   4.318  25.016  0.00  0.00    +0.241 C 
ATOM     28  O   UNL     1      -2.886   4.335  25.841  0.00  0.00    -0.273 OA
ATOM     29  N   UNL     1      -2.254   4.484  24.568  0.00  0.00    -0.207 NA
BRANCH  29  30
ATOM     30  C   UNL     1      -1.542   4.667  24.943  0.00  0.00    +0.095 C 
ATOM     31  C   UNL     1      -0.932   4.460  25.458  0.00  0.00    +0.023 C 
ATOM     32  C   UNL     1      -0.920   5.192  25.077  0.00  0.00    +0.023 C 
ENDBRANCH  29  30
ENDBRANCH  25  27
ENDBRANCH   1  25
TORSDOF 5
ENDMDL
MODEL 2
REMARK VINA RESULT:     -12.0      2.759      6.367
REMARK  Name = 
REMARK  5 active torsions:
REMARK  status: ('A' for Active; 'I' for Inactive)
REMARK    1  A    between atoms: C_2  and  C_27
REMARK    2  A    between atoms: C_9  and  N_10
REMARK    3  A    between atoms: N_13  and  C_14
REMARK    4  A    between atoms: C_27  and  C_29
REMARK    5  A    between atoms: N_31  and  C_32
REMARK                            x       y       z     vdW  Elec       q    Type
REMARK                         _______ _______ _______ _____ _____    ______ ____
ROOT
ATOM      1  C   UNL     1      -0.977  -1.310  24.594  0.00  0.00    +0.052 C 
ATOM      2  C   UNL     1      -0.611  -1.312  23.854  0.00  0.00    -0.001 C 
ATOM      3  C   UNL     1      -0.231  -0.633  23.580  0.00  0.00    -0.000 C 
ATOM      4  C   UNL     1      -0.216   0.047  24.045  0.00  0.00    -0.001 C 
ATOM      5  C   UNL     1       0.149   0.045  23.307  0.00  0.00    -0.000 C 
ATOM      6  C   UNL     1       0.164   0.727  23.772  0.00  0.00    +0.002 C 
ATOM      7  C   UNL     1       0.179   1.407  24.237  0.00  0.00    +0.022 C 
ATOM      8  C   UNL     1      -0.187   1.409  24.978  0.00  0.00    +0.097 C 
ATOM     20  C   UNL     1      -0.567   0.731  25.251  0.00  0.00    +0.019 C 
ATOM     21  C   UNL     1      -0.933   0.732  25.991  0.00  0.00    +0.002 C 
ATOM     22  C   UNL     1      -0.582   0.049  24.786  0.00  0.00    +0.045 C 
ATOM     23  C   UNL     1      -0.962  -0.629  25.059  0.00  0.00    +0.145 C 
ATOM     24  O   UNL     1      -1.328  -0.627  25.799  0.00  0.00    -0.224 OA
ENDROOT
BRANCH   8   9
ATOM      9  N   UNL     1      -0.172   2.090  25.443  0.00  0.00    -0.189 NA
ATOM     10  C   UNL     1      -0.608   2.753  25.218  0.00  0.00    +0.343 C 
ATOM     11  O   UNL     1      -1.059   2.736  24.527  0.00  0.00    -0.249 OA
ATOM     12  N   UNL     1      -0.593   3.435  25.684  0.00  0.00    -0.161 NA
BRANCH  12  13
ATOM     13  C   UNL     1      -1.028   4.098  25.459  0.00  0.00    +0.077 A 
ATOM     14  C   UNL     1      -0.676   4.687  25.000  0.00  0.00    +0.017 A 
ATOM     15  C   UNL     1      -1.112   5.350  24.775  0.00  0.00    +0.004 A 
ATOM     16  C   UNL     1      -1.899   5.426  25.009  0.00  0.00    +0.030 A 
ATOM     17  C   UNL     1      -2.251   4.837  25.469  0.00  0.00    +0.141 A 
ATOM     18  F   UNL     1      -3.039   4.912  25.703  0.00  0.00    -0.204 F 
ATOM     19  C   UNL     1      -1.816   4.174  25.693  0.00  0.00    +0.046 A 
ENDBRANCH  12  13
ENDBRANCH   8   9
BRANCH   1  25
ATOM     25  C   UNL     1      -1.357  -1.989  24.867  0.00  0.00    +0.077 C 
ATOM     26  C   UNL     1      -1.054  -2.398  25.517  0.00  0.00    +0.009 C 
BRANCH  25  27
ATOM     27  C   UNL     1      -2.040  -2.261  24.492  0.00  0.00    +0.241 C 
ATOM     28  O   UNL     1      -1.980  -2.771  23.845  0.00  0.00    -0.273 OA
ATOM     29  N   UNL     1      -2.782  -2.024  24.762  0.00  0.00    -0.207 NA
BRANCH  29  30
ATOM     30  C   UNL     1      -3.464  -2.295  24.386  0.00  0.00    +0.095 C 
ATOM     31  C   UNL     1      -3.941  -2.920  24.137  0.00  0.00    +0.023 C 
ATOM     32  C   UNL     1      -4.168  -2.141  23.985  0.00  0.00    +0.023 C 
ENDBRANCH  29  30
ENDBRANCH  25  27
ENDBRANCH   1  25
TORSDOF 5
ENDMDL
MODEL 3
REMARK VINA RESULT:     -11.6      2.497      3.499
REMARK  Name = 
REMARK  5 active torsions:
REMARK  status: ('A' for Active; 'I' for Inactive)
REMARK    1  A    between atoms: C_2  and  C_27
REMARK    2  A    between atoms: C_9  and  N_10
REMARK    3  A    between atoms: N_13  and  C_14
REMARK    4  A    between atoms: C_27  and  C_29
REMARK    5  A    between atoms: N_31  and  C_32
REMARK                            x       y       z     vdW  Elec       q    Type
REMARK                         _______ _______ _______ _____ _____    ______ ____
ROOT
ATOM      1  C   UNL     1      -0.066   2.177  25.171  0.00  0.00    +0.052 C 
ATOM      2  C   UNL     1       0.360   2.131  24.465  0.00  0.00    -0.001 C 
ATOM      3  C   UNL     1       0.355   1.433  24.026  0.00  0.00    -0.000 C 
ATOM      4  C   UNL     1      -0.074   0.781  24.291  0.00  0.00    -0.001 C 
ATOM      5  C   UNL     1       0.350   0.735  23.587  0.00  0.00    -0.000 C 
ATOM      6  C   UNL     1      -0.079   0.083  23.852  0.00  0.00    +0.002 C 
ATOM      7  C   UNL     1      -0.508  -0.569  24.118  0.00  0.00    +0.022 C 
ATOM      8  C   UNL     1      -0.933  -0.523  24.825  0.00  0.00    +0.097 C 
ATOM     20  C   UNL     1      -0.929   0.174  25.264  0.00  0.00    +0.019 C 
ATOM     21  C   UNL     1      -1.353   0.220  25.969  0.00  0.00    +0.002 C 
ATOM     22  C   UNL     1      -0.499   0.827  24.998  0.00  0.00    +0.045 C 
ATOM     23  C   UNL     1      -0.495   1.525  25.437  0.00  0.00    +0.145 C 
ATOM     24  O   UNL     1      -0.920   1.571  26.143  0.00  0.00    -0.224 OA
ENDROOT
BRANCH   8   9
ATOM      9  N   UNL     1      -1.363  -1.176  25.091  0.00  0.00    -0.189 NA
ATOM     10  C   UNL     1      -2.034  -1.423  24.681  0.00  0.00    +0.343 C 
ATOM     11  O   UNL     1      -2.278  -1.017  24.005  0.00  0.00    -0.249 OA
ATOM     12  N   UNL     1      -2.464  -2.076  24.947  0.00  0.00    -0.161 NA
BRANCH  12  13
ATOM     13  C   UNL     1      -3.135  -2.322  24.538  0.00  0.00    +0.077 A 
ATOM     14  C   UNL     1      -3.169  -3.084  24.221  0.00  0.00    +0.017 A 
ATOM     15  C   UNL     1      -3.841  -3.331  23.811  0.00  0.00    +0.004 A 
ATOM     16  C   UNL     1      -4.480  -2.818  23.719  0.00  0.00    +0.030 A 
ATOM     17  C   UNL     1      -4.446  -2.056  24.036  0.00  0.00    +0.141 A 
ATOM     18  F   UNL     1      -5.086  -1.543  23.943  0.00  0.00    -0.204 F 
ATOM     19  C   UNL     1      -3.775  -1.809  24.445  0.00  0.00    +0.046 A 
ENDBRANCH  12  13
ENDBRANCH   8   9
BRANCH   1  25
ATOM     25  C   UNL     1      -0.061   2.875  25.610  0.00  0.00    +0.077 C 
ATOM     26  C   UNL     1       0.317   2.899  26.343  0.00  0.00    +0.009 C 
BRANCH  25  27
ATOM     27  C   UNL     1      -0.433   3.551  25.317  0.00  0.00    +0.241 C 
ATOM     28  O   UNL     1      -0.101   3.963  24.683  0.00  0.00    -0.273 OA
ATOM     29  N   UNL     1      -1.137   3.814  25.656  0.00  0.00    -0.207 NA
BRANCH  29  30
ATOM     30  C   UNL     1      -1.509   4.489  25.363  0.00  0.00    +0.095 C 
ATOM     31  C   UNL     1      -1.463   5.240  25.024  0.00  0.00    +0.023 C 
ATOM     32  C   UNL     1      -2.200   4.909  25.194  0.00  0.00    +0.023 C 
ENDBRANCH  29  30
ENDBRANCH  25  27
ENDBRANCH   1  25
TORSDOF 5
ENDMDL
MODEL 4
REMARK VINA RESULT:     -11.3      3.176      4.211
REMARK  Name = 
REMARK  5 active torsions:
REMARK  status: ('A' for Active; 'I' for Inactive)
REMARK    1  A    between atoms: C_2  and  C_27
REMARK    2  A    between atoms: C_9  and  N_10
REMARK    3  A    between atoms: N_13  and  C_14
REMARK    4  A    between atoms: C_27  and  C_29
REMARK    5  A    between atoms: N_31  and  C_32
REMARK                            x       y       z     vdW  Elec       q    Type
REMARK                         _______ _______ _______ _____ _____    ______ ____
ROOT
ATOM      1  C   UNL     1      -2.994   2.995  24.844  0.00  0.00    +0.052 C 
ATOM      2  C   UNL     1      -2.569   3.493  25.348  0.00  0.00    -0.001 C 
ATOM      3  C   UNL     1      -1.797   3.300  25.564  0.00  0.00    -0.000 C 
ATOM      4  C   UNL     1      -1.450   2.609  25.277  0.00  0.00    -0.001 C 
ATOM      5  C   UNL     1      -1.025   3.106  25.779  0.00  0.00    -0.000 C 
ATOM      6  C   UNL     1      -0.677   2.415  25.492  0.00  0.00    +0.002 C 
ATOM      7  C   UNL     1      -0.330   1.725  25.206  0.00  0.00    +0.022 C 
ATOM      8  C   UNL     1      -0.755   1.227  24.702  0.00  0.00    +0.097 C 
ATOM     20  C   UNL     1      -1.526   1.421  24.486  0.00  0.00    +0.019 C 
ATOM     21  C   UNL     1      -1.951   0.923  23.983  0.00  0.00    +0.002 C 
ATOM     22  C   UNL     1      -1.875   2.111  24.773  0.00  0.00    +0.045 C 
ATOM     23  C   UNL     1      -2.646   2.305  24.557  0.00  0.00    +0.145 C 
ATOM     24  O   UNL     1      -3.071   1.808  24.054  0.00  0.00    -0.224 OA
ENDROOT
BRANCH   8   9
ATOM      9  N   UNL     1      -0.406   0.536  24.415  0.00  0.00    -0.189 NA
ATOM     10  C   UNL     1       0.236   0.580  23.901  0.00  0.00    +0.343 C 
ATOM     11  O   UNL     1       0.532   1.317  23.672  0.00  0.00    -0.249 OA
ATOM     12  N   UNL     1       0.585  -0.111  23.614  0.00  0.00    -0.161 NA
BRANCH  12  13
ATOM     13  C   UNL     1       1.227  -0.066  23.100  0.00  0.00    +0.077 A 
ATOM     14  C   UNL     1       1.968   0.162  23.384  0.00  0.00    +0.017 A 
ATOM     15  C   UNL     1       2.612   0.206  22.869  0.00  0.00    +0.004 A 
ATOM     16  C   UNL     1       2.515   0.023  22.071  0.00  0.00    +0.030 A 
ATOM     17  C   UNL     1       1.774  -0.206  21.787  0.00  0.00    +0.141 A 
ATOM     18  F   UNL     1       1.677  -0.390  20.988  0.00  0.00    -0.204 F 
ATOM     19  C   UNL     1       1.131  -0.250  22.301  0.00  0.00    +0.046 A 
ENDBRANCH  12  13
ENDBRANCH   8   9
BRANCH   1  25
ATOM     25  C   UNL     1      -3.766   3.190  24.628  0.00  0.00    +0.077 C 
ATOM     26  C   UNL     1      -3.916   3.520  23.888  0.00  0.00    +0.009 C 
BRANCH  25  27
ATOM     27  C   UNL     1      -4.389   3.054  25.153  0.00  0.00    +0.241 C 
ATOM     28  O   UNL     1      -4.459   3.511  25.837  0.00  0.00    -0.273 OA
ATOM     29  N   UNL     1      -4.941   2.462  24.994  0.00  0.00    -0.207 NA
BRANCH  29  30
ATOM     30  C   UNL     1      -5.562   2.327  25.518  0.00  0.00    +0.095 C 
ATOM     31  C   UNL     1      -6.038   2.579  26.143  0.00  0.00    +0.023 C 
ATOM     32  C   UNL     1      -6.165   1.839  25.802  0.00  0.00    +0.023 C 
ENDBRANCH  29  30
ENDBRANCH  25  27
ENDBRANCH   1  25
TORSDOF 5
ENDMDL
MODEL 5
REMARK VINA RESULT:     -11.2      1.892      5.394
REMARK  Name = 
REMARK  5 active torsions:
REMARK  status: ('A' for Active; 'I' for Inactive)
REMARK    1  A    between atoms: C_2  and  C_27
REMARK    2  A    between atoms: C_9  and  N_10
REMARK    3  A    between atoms: N_13  and  C_14
REMARK    4  A    between atoms: C_27  and  C_29
REMARK    5  A    between atoms: N_31  and  C_32
REMARK                            x       y       z     vdW  Elec       q    Type
REMARK                         _______ _______ _______ _____ _____    ______ ____
ROOT
ATOM      1  C   UNL     1      -4.121  -0.704  24.418  0.00  0.00    +0.052 C 
ATOM      2  C   UNL     1      -4.655  -0.613  25.042  0.00  0.00    -0.001 C 
ATOM      3  C   UNL     1      -4.842   0.141  25.317  0.00  0.00    -0.000 C 
ATOM      4  C   UNL     1      -4.498   0.804  24.969  0.00  0.00    -0.001 C 
ATOM      5  C   UNL     1      -5.030   0.896  25.592  0.00  0.00    -0.000 C 
ATOM      6  C   UNL     1      -4.685   1.560  25.244  0.00  0.00    +0.002 C 
ATOM      7  C   UNL     1      -4.341   2.223  24.896  0.00  0.00    +0.022 C 
ATOM      8  C   UNL     1      -3.807   2.132  24.272  0.00  0.00    +0.097 C 
ATOM     20  C   UNL     1      -3.620   1.377  23.997  0.00  0.00    +0.019 C 
ATOM     21  C   UNL     1      -3.087   1.286  23.374  0.00  0.00    +0.002 C 
ATOM     22  C   UNL     1      -3.964   0.713  24.345  0.00  0.00    +0.045 C 
ATOM     23  C   UNL     1      -3.777  -0.041  24.071  0.00  0.00    +0.145 C 
ATOM     24  O   UNL     1      -3.244  -0.132  23.447  0.00  0.00    -0.224 OA
ENDROOT
BRANCH   8   9
ATOM      9  N   UNL     1      -3.463   2.796  23.924  0.00  0.00    -0.189 NA
ATOM     10  C   UNL     1      -2.870   3.210  24.321  0.00  0.00    +0.343 C 
ATOM     11  O   UNL     1      -2.622   2.959  25.068  0.00  0.00    -0.249 OA
ATOM     12  N   UNL     1      -2.526   3.874  23.973  0.00  0.00    -0.161 NA
BRANCH  12  13
ATOM     13  C   UNL     1      -1.934   4.288  24.370  0.00  0.00    +0.077 A 
ATOM     14  C   UNL     1      -1.165   3.986  24.396  0.00  0.00    +0.017 A 
ATOM     15  C   UNL     1      -0.573   4.401  24.793  0.00  0.00    +0.004 A 
ATOM     16  C   UNL     1      -0.747   5.115  25.165  0.00  0.00    +0.030 A 
ATOM     17  C   UNL     1      -1.516   5.417  25.140  0.00  0.00    +0.141 A 
ATOM     18  F   UNL     1      -1.690   6.132  25.513  0.00  0.00    -0.204 F 
ATOM     19  C   UNL     1      -2.108   5.003  24.743  0.00  0.00    +0.046 A 
ENDBRANCH  12  13
ENDBRANCH   8   9
BRANCH   1  25
ATOM     25  C   UNL     1      -3.934  -1.460  24.144  0.00  0.00    +0.077 C 
ATOM     26  C   UNL     1      -4.326  -1.768  23.487  0.00  0.00    +0.009 C 
BRANCH  25  27
ATOM     27  C   UNL     1      -3.354  -1.906  24.525  0.00  0.00    +0.241 C 
ATOM     28  O   UNL     1      -3.535  -2.303  25.227  0.00  0.00    -0.273 OA
ATOM     29  N   UNL     1      -2.596  -1.957  24.206  0.00  0.00    -0.207 NA
BRANCH  29  30
ATOM     30  C   UNL     1      -2.017  -2.404  24.587  0.00  0.00    +0.095 C 
ATOM     31  C   UNL     1      -1.772  -3.114  24.929  0.00  0.00    +0.023 C 
ATOM     32  C   UNL     1      -1.258  -2.468  24.906  0.00  0.00    +0.023 C 
ENDBRANCH  29  30
ENDBRANCH  25  27
ENDBRANCH   1  25
TORSDOF 5
ENDMDL
MODEL 6
REMARK VINA RESULT:     -10.6      3.409      5.252
REMARK  Name = 
REMARK  5 active torsions:
REMARK  status: ('A' for Active; 'I' for Inactive)
REMARK    1  A    between atoms: C_2  and  C_27
REMARK    2  A    between atoms: C_9  and  N_10
REMARK    3  A    between atoms: N_13  and  C_14
REMARK    4  A    between atoms: C_27  and  C_29
REMARK    5  A    between atoms: N_31  and  C_32
REMARK                            x       y       z     vdW  Elec       q    Type
REMARK                         _______ _______ _______ _____ _____    ______ ____
ROOT
ATOM      1  C   UNL     1       0.158   0.763  23.861  0.00  0.00    +0.052 C 
ATOM      2  C   UNL     1       0.577   1.285  24.346  0.00  0.00    -0.001 C 
ATOM      3  C   UNL     1       0.216   1.974  24.619  0.00  0.00    -0.000 C 
ATOM      4  C   UNL     1      -0.563   2.142  24.409  0.00  0.00    -0.001 C 
ATOM      5  C   UNL     1      -0.145   2.663  24.892  0.00  0.00    -0.000 C 
ATOM      6  C   UNL     1      -0.925   2.832  24.682  0.00  0.00    +0.002 C 
ATOM      7  C   UNL     1      -1.704   3.000  24.472  0.00  0.00    +0.022 C 
ATOM      8  C   UNL     1      -2.123   2.479  23.988  0.00  0.00    +0.097 C 
ATOM     20  C   UNL     1      -1.762   1.790  23.714  0.00  0.00    +0.019 C 
ATOM     21  C   UNL     1      -2.181   1.269  23.230  0.00  0.00    +0.002 C 
ATOM     22  C   UNL     1      -0.982   1.621  23.924  0.00  0.00    +0.045 C 
ATOM     23  C   UNL     1      -0.621   0.932  23.651  0.00  0.00    +0.145 C 
ATOM     24  O   UNL     1      -1.040   0.411  23.167  0.00  0.00    -0.224 OA
ENDROOT
BRANCH   8   9
ATOM      9  N   UNL     1      -2.903   2.648  23.777  0.00  0.00    -0.189 NA
ATOM     10  C   UNL     1      -3.492   2.663  24.354  0.00  0.00    +0.343 C 
ATOM     11  O   UNL     1      -3.302   2.509  25.143  0.00  0.00    -0.249 OA
ATOM     12  N   UNL     1      -4.272   2.832  24.144  0.00  0.00    -0.161 NA
BRANCH  12  13
ATOM     13  C   UNL     1      -4.861   2.847  24.721  0.00  0.00    +0.077 A 
ATOM     14  C   UNL     1      -4.982   3.530  25.170  0.00  0.00    +0.017 A 
ATOM     15  C   UNL     1      -5.571   3.544  25.747  0.00  0.00    +0.004 A 
ATOM     16  C   UNL     1      -6.040   2.878  25.875  0.00  0.00    +0.030 A 
ATOM     17  C   UNL     1      -5.919   2.196  25.426  0.00  0.00    +0.141 A 
ATOM     18  F   UNL     1      -6.389   1.529  25.555  0.00  0.00    -0.204 F 
ATOM     19  C   UNL     1      -5.330   2.181  24.849  0.00  0.00    +0.046 A 
ENDBRANCH  12  13
ENDBRANCH   8   9
BRANCH   1  25
ATOM     25  C   UNL     1       0.520   0.074  23.588  0.00  0.00    +0.077 C 
ATOM     26  C   UNL     1       0.278  -0.660  23.876  0.00  0.00    +0.009 C 
BRANCH  25  27
ATOM     27  C   UNL     1       1.124   0.118  23.028  0.00  0.00    +0.241 C 
ATOM     28  O   UNL     1       0.940   0.124  22.222  0.00  0.00    -0.273 OA
ATOM     29  N   UNL     1       1.911   0.156  23.270  0.00  0.00    -0.207 NA
BRANCH  29  30
ATOM     30  C   UNL     1       2.514   0.200  22.710  0.00  0.00    +0.095 C 
ATOM     31  C   UNL     1       2.792   0.055  21.947  0.00  0.00    +0.023 C 
ATOM     32  C   UNL     1       3.281   0.422  22.501  0.00  0.00    +0.023 C 
ENDBRANCH  29  30
ENDBRANCH  25  27
ENDBRANCH   1  25
TORSDOF 5
ENDMDL
MODEL 7
REMARK VINA RESULT:     -10.4      4.404      6.074
REMARK  Name = 
REMARK  5 active torsions:
REMARK  status: ('A' for Active; 'I' for Inactive)
REMARK    1  A    between atoms: C_2  and  C_27
REMARK    2  A    between atoms: C_9  and  N_10
REMARK    3  A    between atoms: N_13  and  C_14
REMARK    4  A    between atoms: C_27  and  C_29
REMARK    5  A    between atoms: N_31  and  C_32
REMARK                            x       y       z     vdW  Elec       q    Type
REMARK                         _______ _______ _______ _____ _____    ______ ____
ROOT
ATOM      1  C   UNL     1      -1.605  -0.019  25.049  0.00  0.00    +0.052 C 
ATOM      2  C   UNL     1      -1.668   0.789  25.208  0.00  0.00    -0.001 C 
ATOM      3  C   UNL     1      -1.129   1.318  24.877  0.00  0.00    -0.000 C 
ATOM      4  C   UNL     1      -0.527   1.040  24.388  0.00  0.00    -0.001 C 
ATOM      5  C   UNL     1      -0.590   1.846  24.547  0.00  0.00    -0.000 C 
ATOM      6  C   UNL     1       0.013   1.569  24.056  0.00  0.00    +0.002 C 
ATOM      7  C   UNL     1       0.615   1.292  23.567  0.00  0.00    +0.022 C 
ATOM      8  C   UNL     1       0.679   0.484  23.407  0.00  0.00    +0.097 C 
ATOM     20  C   UNL     1       0.140  -0.045  23.738  0.00  0.00    +0.019 C 
ATOM     21  C   UNL     1       0.203  -0.852  23.579  0.00  0.00    +0.002 C 
ATOM     22  C   UNL     1      -0.463   0.232  24.228  0.00  0.00    +0.045 C 
ATOM     23  C   UNL     1      -1.003  -0.296  24.559  0.00  0.00    +0.145 C 
ATOM     24  O   UNL     1      -0.939  -1.104  24.400  0.00  0.00    -0.224 OA
ENDROOT
BRANCH   8   9
ATOM      9  N   UNL     1       1.282   0.206  22.917  0.00  0.00    -0.189 NA
ATOM     10  C   UNL     1       2.070   0.351  23.110  0.00  0.00    +0.343 C 
ATOM     11  O   UNL     1       2.257   0.774  23.794  0.00  0.00    -0.249 OA
ATOM     12  N   UNL     1       2.673   0.074  22.619  0.00  0.00    -0.161 NA
BRANCH  12  13
ATOM     13  C   UNL     1       3.461   0.219  22.812  0.00  0.00    +0.077 A 
ATOM     14  C   UNL     1       3.814   0.934  22.597  0.00  0.00    +0.017 A 
ATOM     15  C   UNL     1       4.604   1.079  22.790  0.00  0.00    +0.004 A 
ATOM     16  C   UNL     1       5.040   0.510  23.197  0.00  0.00    +0.030 A 
ATOM     17  C   UNL     1       4.687  -0.205  23.413  0.00  0.00    +0.141 A 
ATOM     18  F   UNL     1       5.124  -0.773  23.821  0.00  0.00    -0.204 F 
ATOM     19  C   UNL     1       3.899  -0.350  23.220  0.00  0.00    +0.046 A 
ENDBRANCH  12  13
ENDBRANCH   8   9
BRANCH   1  25
ATOM     25  C   UNL     1      -2.145  -0.548  25.380  0.00  0.00    +0.077 C 
ATOM     26  C   UNL     1      -1.941  -0.975  26.057  0.00  0.00    +0.009 C 
BRANCH  25  27
ATOM     27  C   UNL     1      -2.888  -0.651  25.037  0.00  0.00    +0.241 C 
ATOM     28  O   UNL     1      -3.447  -0.044  25.075  0.00  0.00    -0.273 OA
ATOM     29  N   UNL     1      -3.072  -1.357  24.655  0.00  0.00    -0.207 NA
BRANCH  29  30
ATOM     30  C   UNL     1      -3.814  -1.459  24.311  0.00  0.00    +0.095 C 
ATOM     31  C   UNL     1      -4.570  -1.173  24.143  0.00  0.00    +0.023 C 
ATOM     32  C   UNL     1      -4.347  -1.924  23.884  0.00  0.00    +0.023 C 
ENDBRANCH  29  30
ENDBRANCH  25  27
ENDBRANCH   1  25
TORSDOF 5
ENDMDL
MODEL 8
REMARK VINA RESULT:     -10.3      3.516      4.880
REMARK  Name = 
REMARK  5 active torsions:
REMARK  status: ('A' for Active; 'I' for Inactive)
REMARK    1  A    between atoms: C_2  and  C_27
REMARK    2  A    between atoms: C_9  and  N_10
REMARK    3  A    between atoms: N_13  and  C_14
REMARK    4  A    between atoms: C_27  and  C_29
REMARK    5  A    between atoms: N_31  and  C_32
REMARK                            x       y       z     vdW  Elec       q    Type
REMARK                         _______ _______ _______ _____ _____    ______ ____
ROOT
ATOM      1  C   UNL     1      -3.360  -0.038  24.777  0.00  0.00    +0.052 C 
ATOM      2  C   UNL     1      -3.147  -0.559  25.381  0.00  0.00    -0.001 C 
ATOM      3  C   UNL     1      -2.353  -0.650  25.585  0.00  0.00    -0.000 C 
ATOM      4  C   UNL     1      -1.773  -0.222  25.186  0.00  0.00    -0.001 C 
ATOM      5  C   UNL     1      -1.560  -0.742  25.789  0.00  0.00    -0.000 C 
ATOM      6  C   UNL     1      -0.978  -0.314  25.390  0.00  0.00    +0.002 C 
ATOM      7  C   UNL     1      -0.398   0.115  24.991  0.00  0.00    +0.022 C 
ATOM      8  C   UNL     1      -0.611   0.636  24.387  0.00  0.00    +0.097 C 
ATOM     20  C   UNL     1      -1.405   0.727  24.183  0.00  0.00    +0.019 C 
ATOM     21  C   UNL     1      -1.618   1.248  23.579  0.00  0.00    +0.002 C 
ATOM     22  C   UNL     1      -1.986   0.299  24.582  0.00  0.00    +0.045 C 
ATOM     23  C   UNL     1      -2.780   0.391  24.378  0.00  0.00    +0.145 C 
ATOM     24  O   UNL     1      -2.993   0.911  23.774  0.00  0.00    -0.224 OA
ENDROOT
BRANCH   8   9
ATOM      9  N   UNL     1      -0.030   1.064  23.988  0.00  0.00    -0.189 NA
ATOM     10  C   UNL     1       0.629   0.677  23.678  0.00  0.00    +0.343 C 
ATOM     11  O   UNL     1       0.708  -0.140  23.768  0.00  0.00    -0.249 OA
ATOM     12  N   UNL     1       1.211   1.106  23.279  0.00  0.00    -0.161 NA
BRANCH  12  13
ATOM     13  C   UNL     1       1.870   0.719  22.970  0.00  0.00    +0.077 A 
ATOM     14  C   UNL     1       1.771   0.103  22.429  0.00  0.00    +0.017 A 
ATOM     15  C   UNL     1       2.431  -0.284  22.120  0.00  0.00    +0.004 A 
ATOM     16  C   UNL     1       3.189  -0.057  22.351  0.00  0.00    +0.030 A 
ATOM     17  C   UNL     1       3.288   0.559  22.892  0.00  0.00    +0.141 A 
ATOM     18  F   UNL     1       4.047   0.786  23.124  0.00  0.00    -0.204 F 
ATOM     19  C   UNL     1       2.629   0.946  23.201  0.00  0.00    +0.046 A 
ENDBRANCH  12  13
ENDBRANCH   8   9
BRANCH   1  25
ATOM     25  C   UNL     1      -4.155   0.054  24.573  0.00  0.00    +0.077 C 
ATOM     26  C   UNL     1      -4.461  -0.346  23.920  0.00  0.00    +0.009 C 
BRANCH  25  27
ATOM     27  C   UNL     1      -4.643   0.545  25.021  0.00  0.00    +0.241 C 
ATOM     28  O   UNL     1      -4.837   0.337  25.797  0.00  0.00    -0.273 OA
ATOM     29  N   UNL     1      -4.937   1.243  24.696  0.00  0.00    -0.207 NA
BRANCH  29  30
ATOM     30  C   UNL     1      -5.425   1.733  25.145  0.00  0.00    +0.095 C 
ATOM     31  C   UNL     1      -6.042   1.827  25.684  0.00  0.00    +0.023 C 
ATOM     32  C   UNL     1      -5.653   2.490  25.383  0.00  0.00    +0.023 C 
ENDBRANCH  29  30
ENDBRANCH  25  27
ENDBRANCH   1  25
TORSDOF 5
ENDMDL
MODEL 9
REMARK VINA RESULT:     -10.3      1.913      3.104
REMARK  Name = 
REMARK  5 active torsions:
REMARK  status: ('A' for Active; 'I' for Inactive)
REMARK    1  A    between atoms: C_2  and  C_27
REMARK    2  A    between atoms: C_9  and  N_10
REMARK    3  A    between atoms: N_13  and  C_14
REMARK    4  A    between atoms: C_27  and  C_29
REMARK    5  A    between atoms: N_31  and  C_32
REMARK                            x       y       z     vdW  Elec       q    Type
REMARK                         _______ _______ _______ _____ _____    ______ ____
ROOT
ATOM      1  C   UNL     1      -2.866   3.574  24.977  0.00  0.00    +0.052 C 
ATOM      2  C   UNL     1      -2.435   3.904  25.599  0.00  0.00    -0.001 C 
ATOM      3  C   UNL     1      -1.719   3.566  25.828  0.00  0.00    -0.000 C 
ATOM      4  C   UNL     1      -1.433   2.899  25.437  0.00  0.00    -0.001 C 
ATOM      5  C   UNL     1      -1.002   3.228  26.058  0.00  0.00    -0.000 C 
ATOM      6  C   UNL     1      -0.716   2.561  25.666  0.00  0.00    +0.002 C 
ATOM      7  C   UNL     1      -0.430   1.894  25.274  0.00  0.00    +0.022 C 
ATOM      8  C   UNL     1      -0.862   1.564  24.652  0.00  0.00    +0.097 C 
ATOM     20  C   UNL     1      -1.578   1.902  24.423  0.00  0.00    +0.019 C 
ATOM     21  C   UNL     1      -2.009   1.572  23.802  0.00  0.00    +0.002 C 
ATOM     22  C   UNL     1      -1.864   2.569  24.815  0.00  0.00    +0.045 C 
ATOM     23  C   UNL     1      -2.581   2.907  24.586  0.00  0.00    +0.145 C 
ATOM     24  O   UNL     1      -3.012   2.577  23.964  0.00  0.00    -0.224 OA
ENDROOT
BRANCH   8   9
ATOM      9  N   UNL     1      -0.575   0.897  24.260  0.00  0.00    -0.189 NA
ATOM     10  C   UNL     1      -0.730   0.144  24.559  0.00  0.00    +0.343 C 
ATOM     11  O   UNL     1      -1.172   0.058  25.252  0.00  0.00    -0.249 OA
ATOM     12  N   UNL     1      -0.444  -0.523  24.168  0.00  0.00    -0.161 NA
BRANCH  12  13
ATOM     13  C   UNL     1      -0.598  -1.276  24.467  0.00  0.00    +0.077 A 
ATOM     14  C   UNL     1      -0.085  -1.614  25.019  0.00  0.00    +0.017 A 
ATOM     15  C   UNL     1      -0.241  -2.367  25.318  0.00  0.00    +0.004 A 
ATOM     16  C   UNL     1      -0.907  -2.782  25.066  0.00  0.00    +0.030 A 
ATOM     17  C   UNL     1      -1.420  -2.443  24.514  0.00  0.00    +0.141 A 
ATOM     18  F   UNL     1      -2.088  -2.859  24.263  0.00  0.00    -0.204 F 
ATOM     19  C   UNL     1      -1.266  -1.691  24.215  0.00  0.00    +0.046 A 
ENDBRANCH  12  13
ENDBRANCH   8   9
BRANCH   1  25
ATOM     25  C   UNL     1      -3.583   3.912  24.748  0.00  0.00    +0.077 C 
ATOM     26  C   UNL     1      -3.620   4.381  24.070  0.00  0.00    +0.009 C 
BRANCH  25  27
ATOM     27  C   UNL     1      -4.264   3.782  25.196  0.00  0.00    +0.241 C 
ATOM     28  O   UNL     1      -4.410   4.240  25.868  0.00  0.00    -0.273 OA
ATOM     29  N   UNL     1      -4.799   3.195  24.974  0.00  0.00    -0.207 NA
BRANCH  29  30
ATOM     30  C   UNL     1      -5.479   3.065  25.421  0.00  0.00    +0.095 C 
ATOM     31  C   UNL     1      -6.139   3.359  25.820  0.00  0.00    +0.023 C 
ATOM     32  C   UNL     1      -5.998   2.546  25.799  0.00  0.00    +0.023 C 
ENDBRANCH  29  30
ENDBRANCH  25  27
ENDBRANCH   1  25
TORSDOF 5
ENDMDL
