MODEL 1
REMARK VINA RESULT:     -10.5      0.000      0.000
REMARK  Name = 
REMARK  4 active torsions:
REMARK  status: ('A' for Active; 'I' for Inactive)
REMARK    1  A    between atoms: C_2  and  O_5
REMARK    2  A    between atoms: O_5  and  C_6
REMARK    3  A    between atoms: C_9  and  C_12
REMARK    4  A    between atoms: C_15  and  C_17
REMARK                            x       y       z     vdW  Elec       q    Type
REMARK                         _______ _______ _______ _____ _____    ______ ____
ROOT
ATOM      6  C   UNL     1      -3.945  -1.291  24.563  0.00  0.00    +0.147 A 
ATOM      7  C   UNL     1      -3.922  -0.832  23.878  0.00  0.00    +0.037 A 
ATOM      8  C   UNL     1      -3.902  -0.009  23.932  0.00  0.00    +0.005 A 
ATOM      9  C   UNL     1      -3.906   0.355  24.672  0.00  0.00    +0.019 A 
ATOM     10  C   UNL     1      -3.930  -0.103  25.358  0.00  0.00    +0.005 A 
ATOM     11  C   UNL     1      -3.949  -0.926  25.304  0.00  0.00    +0.037 A 
ENDROOT
BRANCH   9  12
ATOM     12  C   UNL     1      -3.886   1.179  24.726  0.00  0.00    +0.102 A 
ATOM     13  C   UNL     1      -4.514   1.689  24.568  0.00  0.00    +0.119 A 
ATOM     14  N   UNL     1      -4.251   2.462  24.692  0.00  0.00    -0.226 NA
ATOM     15  C   UNL     1      -3.461   2.428  24.928  0.00  0.00    +0.157 A 
ATOM     16  N   UNL     1      -3.235   1.634  24.949  0.00  0.00    -0.228 NA
BRANCH  15  17
ATOM     17  C   UNL     1      -2.981   3.074  25.111  0.00  0.00    +0.160 C 
ATOM     18  C   UNL     1      -3.227   3.624  25.674  0.00  0.00    +0.167 C 
ATOM     19  O   UNL     1      -2.747   4.270  25.856  0.00  0.00    -0.350 OA
ATOM     20  C   UNL     1      -2.021   4.365  25.475  0.00  0.00    +0.161 C 
ATOM     21  C   UNL     1      -1.776   3.815  24.912  0.00  0.00    +0.121 C 
ATOM     22  N   UNL     1      -2.256   3.168  24.729  0.00  0.00    -0.207 NA
ENDBRANCH  15  17
ENDBRANCH   9  12
BRANCH   6   5
ATOM      5  O   UNL     1      -3.965  -2.113  24.509  0.00  0.00    -0.404 OA
BRANCH   5   2
ATOM      1  F   UNL     1      -2.643  -3.001  24.946  0.00  0.00    -0.133 F 
ATOM      2  C   UNL     1      -3.304  -2.557  24.727  0.00  0.00    +0.575 C 
ATOM      3  F   UNL     1      -3.631  -2.674  25.476  0.00  0.00    -0.133 F 
ATOM      4  F   UNL     1      -2.977  -2.440  23.979  0.00  0.00    -0.133 F 
ENDBRANCH   5   2
ENDBRANCH   6   5
TORSDOF 4
ENDMDL
