REMARK  Name = 
REMARK  4 active torsions:
REMARK  status: ('A' for Active; 'I' for Inactive)
REMARK    1  A    between atoms: C_5  and  C_8
REMARK    2  A    between atoms: N_10  and  C_11
REMARK    3  A    between atoms: C_15  and  N_19
REMARK    4  A    between atoms: C_22  and  C_26
REMARK                            x       y       z     vdW  Elec       q    Type
REMARK                         _______ _______ _______ _____ _____    ______ ____
ROOT
ATOM     11  C   UNL     1       1.270  -0.922   0.000  0.00  0.00    +0.155 C 
ATOM     12  C   UNL     1       0.785  -0.255   0.000  0.00  0.00    +0.166 C 
ATOM     13  O   UNL     1       1.270   0.412   0.000  0.00  0.00    -0.350 OA
ATOM     14  C   UNL     1       2.054   0.158   0.000  0.00  0.00    +0.166 C 
ATOM     15  C   UNL     1       2.839   0.412   0.000  0.00  0.00    +0.154 C 
ATOM     16  C   UNL     1       3.324  -0.255   0.000  0.00  0.00    +0.166 C 
ATOM     17  O   UNL     1       2.839  -0.922   0.000  0.00  0.00    -0.350 OA
ATOM     18  C   UNL     1       2.054  -0.667   0.000  0.00  0.00    +0.166 C 
ENDROOT
BRANCH  15  19
ATOM     19  N   UNL     1       3.094   1.197   0.000  0.00  0.00    -0.200 NA
ATOM     20  C   UNL     1       3.901   1.369   0.000  0.00  0.00    +0.237 A 
ATOM     21  N   UNL     1       4.156   2.153   0.000  0.00  0.00    -0.209 NA
ATOM     22  C   UNL     1       4.963   2.325   0.000  0.00  0.00    +0.120 A 
ATOM     23  C   UNL     1       5.515   1.712   0.000  0.00  0.00    +0.043 A 
ATOM     24  C   UNL     1       5.260   0.927   0.000  0.00  0.00    +0.104 A 
ATOM     25  N   UNL     1       4.453   0.756   0.000  0.00  0.00    -0.211 NA
BRANCH  22  26
ATOM     26  C   UNL     1       5.218   3.109   0.000  0.00  0.00    +0.163 A 
ATOM     27  C   UNL     1       4.733   3.777   0.000  0.00  0.00    +0.042 A 
ATOM     28  C   UNL     1       5.218   4.444   0.000  0.00  0.00    +0.044 A 
ATOM     29  C   UNL     1       6.002   4.189   0.000  0.00  0.00    +0.180 A 
ATOM     30  O   UNL     1       6.002   3.364   0.000  0.00  0.00    -0.449 OA
ENDBRANCH  22  26
ENDBRANCH  15  19
BRANCH  11  10
ATOM      8  C   UNL     1       0.208  -1.879   0.000  0.00  0.00    +0.265 C 
ATOM      9  O   UNL     1      -0.344  -1.265   0.000  0.00  0.00    -0.268 OA
ATOM     10  N   UNL     1       1.015  -1.707   0.000  0.00  0.00    -0.198 NA
BRANCH   8   5
ATOM      1  C   UNL     1      -0.812  -5.017   0.000  0.00  0.00    +0.031 C 
ATOM      2  C   UNL     1      -0.557  -4.232   0.000  0.00  0.00    -0.022 A 
ATOM      3  C   UNL     1      -1.109  -3.619   0.000  0.00  0.00    -0.004 A 
ATOM      4  C   UNL     1      -0.854  -2.835   0.000  0.00  0.00    +0.004 A 
ATOM      5  C   UNL     1      -0.047  -2.663   0.000  0.00  0.00    +0.055 A 
ATOM      6  C   UNL     1       0.505  -3.276   0.000  0.00  0.00    +0.004 A 
ATOM      7  C   UNL     1       0.250  -4.061   0.000  0.00  0.00    -0.004 A 
ENDBRANCH   8   5
ENDBRANCH  11  10
TORSDOF 4
