MODEL 1
REMARK VINA RESULT:     -12.9      0.000      0.000
REMARK  Name = 
REMARK  4 active torsions:
REMARK  status: ('A' for Active; 'I' for Inactive)
REMARK    1  A    between atoms: C_2  and  C_4
REMARK    2  A    between atoms: C_11  and  C_13
REMARK    3  A    between atoms: N_16  and  C_17
REMARK    4  A    between atoms: C_17  and  C_18
REMARK                            x       y       z     vdW  Elec       q    Type
REMARK                         _______ _______ _______ _____ _____    ______ ____
ROOT
ATOM     13  C   UNL     1      -3.073   1.584  24.374  0.00  0.00    +0.076 C 
ATOM     14  C   UNL     1      -3.161   1.292  23.607  0.00  0.00    +0.026 C 
ATOM     15  C   UNL     1      -3.655   0.632  23.640  0.00  0.00    +0.073 C 
ATOM     16  N   UNL     1      -3.873   0.516  24.428  0.00  0.00    -0.269 NA
ATOM     26  C   UNL     1      -3.514   1.105  24.881  0.00  0.00    +0.080 C 
ENDROOT
BRANCH  13  11
ATOM      4  C   UNL     1      -0.889   3.332  25.238  0.00  0.00    +0.076 A 
ATOM      5  C   UNL     1      -0.829   4.143  25.373  0.00  0.00    +0.006 A 
ATOM      6  C   UNL     1      -1.486   4.630  25.261  0.00  0.00    +0.002 A 
ATOM      7  C   UNL     1      -2.202   4.305  25.014  0.00  0.00    +0.021 A 
ATOM      8  C   UNL     1      -2.263   3.493  24.878  0.00  0.00    +0.100 A 
ATOM      9  C   UNL     1      -1.606   3.007  24.991  0.00  0.00    +0.105 A 
ATOM     10  N   UNL     1      -1.829   2.232  24.815  0.00  0.00    -0.229 NA
ATOM     11  C   UNL     1      -2.625   2.241  24.595  0.00  0.00    +0.140 A 
ATOM     12  N   UNL     1      -2.892   3.020  24.634  0.00  0.00    -0.229 NA
BRANCH   4   2
ATOM      1  N   UNL     1      -0.035   2.587  26.108  0.00  0.00    -0.084 NA
ATOM      2  C   UNL     1      -0.233   2.846  25.350  0.00  0.00    +0.286 C 
ATOM      3  O   UNL     1       0.227   2.617  24.704  0.00  0.00    -0.267 OA
ENDBRANCH   4   2
ENDBRANCH  13  11
BRANCH  16  17
ATOM     17  C   UNL     1      -4.364  -0.083  24.712  0.00  0.00    +0.099 C 
BRANCH  17  18
ATOM     18  C   UNL     1      -4.106  -0.866  24.704  0.00  0.00    -0.004 A 
ATOM     19  C   UNL     1      -4.316  -1.363  24.080  0.00  0.00    +0.029 A 
ATOM     20  C   UNL     1      -4.059  -2.147  24.072  0.00  0.00    +0.167 A 
ATOM     21  F   UNL     1      -4.269  -2.644  23.448  0.00  0.00    -0.202 F 
ATOM     22  C   UNL     1      -3.591  -2.433  24.688  0.00  0.00    +0.167 A 
ATOM     23  F   UNL     1      -3.333  -3.217  24.680  0.00  0.00    -0.202 F 
ATOM     24  C   UNL     1      -3.381  -1.936  25.312  0.00  0.00    +0.032 A 
ATOM     25  C   UNL     1      -3.638  -1.153  25.320  0.00  0.00    -0.000 A 
ENDBRANCH  17  18
ENDBRANCH  16  17
TORSDOF 4
ENDMDL
MODEL 2
REMARK VINA RESULT:     -12.7      2.735      5.048
REMARK  Name = 
REMARK  4 active torsions:
REMARK  status: ('A' for Active; 'I' for Inactive)
REMARK    1  A    between atoms: C_2  and  C_4
REMARK    2  A    between atoms: C_11  and  C_13
REMARK    3  A    between atoms: N_16  and  C_17
REMARK    4  A    between atoms: C_17  and  C_18
REMARK                            x       y       z     vdW  Elec       q    Type
REMARK                         _______ _______ _______ _____ _____    ______ ____
ROOT
ATOM     13  C   UNL     1      -4.276   0.814  24.675  0.00  0.00    +0.076 C 
ATOM     14  C   UNL     1      -4.931   1.079  25.101  0.00  0.00    +0.026 C 
ATOM     15  C   UNL     1      -4.960   1.901  25.039  0.00  0.00    +0.073 C 
ATOM     16  N   UNL     1      -4.323   2.145  24.575  0.00  0.00    -0.269 NA
ATOM     26  C   UNL     1      -3.900   1.473  24.349  0.00  0.00    +0.080 C 
ENDROOT
BRANCH  13  11
ATOM      4  C   UNL     1      -2.730  -1.672  24.705  0.00  0.00    +0.076 A 
ATOM      5  C   UNL     1      -2.893  -2.445  24.469  0.00  0.00    +0.006 A 
ATOM      6  C   UNL     1      -3.629  -2.633  24.146  0.00  0.00    +0.002 A 
ATOM      7  C   UNL     1      -4.202  -2.047  24.059  0.00  0.00    +0.021 A 
ATOM      8  C   UNL     1      -4.040  -1.273  24.295  0.00  0.00    +0.100 A 
ATOM      9  C   UNL     1      -3.305  -1.085  24.618  0.00  0.00    +0.105 A 
ATOM     10  N   UNL     1      -3.303  -0.281  24.799  0.00  0.00    -0.229 NA
ATOM     11  C   UNL     1      -4.039   0.029  24.589  0.00  0.00    +0.140 A 
ATOM     12  N   UNL     1      -4.494  -0.584  24.277  0.00  0.00    -0.229 NA
BRANCH   4   2
ATOM      1  N   UNL     1      -1.340  -1.391  24.535  0.00  0.00    -0.084 NA
ATOM      2  C   UNL     1      -1.995  -1.485  25.027  0.00  0.00    +0.286 C 
ATOM      3  O   UNL     1      -1.914  -1.391  25.843  0.00  0.00    -0.267 OA
ENDBRANCH   4   2
ENDBRANCH  13  11
BRANCH  16  17
ATOM     17  C   UNL     1      -4.141   2.923  24.371  0.00  0.00    +0.099 C 
BRANCH  17  18
ATOM     18  C   UNL     1      -3.535   3.321  24.764  0.00  0.00    -0.004 A 
ATOM     19  C   UNL     1      -3.679   3.672  25.497  0.00  0.00    +0.029 A 
ATOM     20  C   UNL     1      -3.072   4.070  25.890  0.00  0.00    +0.167 A 
ATOM     21  F   UNL     1      -3.217   4.421  26.624  0.00  0.00    -0.202 F 
ATOM     22  C   UNL     1      -2.322   4.118  25.550  0.00  0.00    +0.167 A 
ATOM     23  F   UNL     1      -1.716   4.517  25.943  0.00  0.00    -0.202 F 
ATOM     24  C   UNL     1      -2.179   3.768  24.817  0.00  0.00    +0.032 A 
ATOM     25  C   UNL     1      -2.785   3.370  24.424  0.00  0.00    -0.000 A 
ENDBRANCH  17  18
ENDBRANCH  16  17
TORSDOF 4
ENDMDL
MODEL 3
REMARK VINA RESULT:     -12.3      1.408      1.922
REMARK  Name = 
REMARK  4 active torsions:
REMARK  status: ('A' for Active; 'I' for Inactive)
REMARK    1  A    between atoms: C_2  and  C_4
REMARK    2  A    between atoms: C_11  and  C_13
REMARK    3  A    between atoms: N_16  and  C_17
REMARK    4  A    between atoms: C_17  and  C_18
REMARK                            x       y       z     vdW  Elec       q    Type
REMARK                         _______ _______ _______ _____ _____    ______ ____
ROOT
ATOM     13  C   UNL     1      -1.630   0.972  25.081  0.00  0.00    +0.076 C 
ATOM     14  C   UNL     1      -1.126   0.465  24.669  0.00  0.00    +0.026 C 
ATOM     15  C   UNL     1      -1.377  -0.309  24.804  0.00  0.00    +0.073 C 
ATOM     16  N   UNL     1      -2.036  -0.281  25.300  0.00  0.00    -0.269 NA
ATOM     26  C   UNL     1      -2.193   0.511  25.471  0.00  0.00    +0.080 C 
ENDROOT
BRANCH  13  11
ATOM      4  C   UNL     1      -2.285   3.824  25.189  0.00  0.00    +0.076 A 
ATOM      5  C   UNL     1      -1.831   4.512  25.183  0.00  0.00    +0.006 A 
ATOM      6  C   UNL     1      -1.008   4.464  25.139  0.00  0.00    +0.002 A 
ATOM      7  C   UNL     1      -0.640   3.727  25.101  0.00  0.00    +0.021 A 
ATOM      8  C   UNL     1      -1.094   3.038  25.106  0.00  0.00    +0.100 A 
ATOM      9  C   UNL     1      -1.916   3.086  25.150  0.00  0.00    +0.105 A 
ATOM     10  N   UNL     1      -2.217   2.319  25.146  0.00  0.00    -0.229 NA
ATOM     11  C   UNL     1      -1.581   1.796  25.100  0.00  0.00    +0.140 A 
ATOM     12  N   UNL     1      -0.887   2.240  25.075  0.00  0.00    -0.229 NA
BRANCH   4   2
ATOM      1  N   UNL     1      -3.478   3.930  25.967  0.00  0.00    -0.084 NA
ATOM      2  C   UNL     1      -3.106   3.872  25.233  0.00  0.00    +0.286 C 
ATOM      3  O   UNL     1      -3.558   3.863  24.542  0.00  0.00    -0.267 OA
ENDBRANCH   4   2
ENDBRANCH  13  11
BRANCH  16  17
ATOM     17  C   UNL     1      -2.463  -0.930  25.576  0.00  0.00    +0.099 C 
BRANCH  17  18
ATOM     18  C   UNL     1      -2.971  -1.336  25.069  0.00  0.00    -0.004 A 
ATOM     19  C   UNL     1      -3.683  -0.991  24.835  0.00  0.00    +0.029 A 
ATOM     20  C   UNL     1      -4.192  -1.398  24.327  0.00  0.00    +0.167 A 
ATOM     21  F   UNL     1      -4.904  -1.053  24.093  0.00  0.00    -0.202 F 
ATOM     22  C   UNL     1      -3.987  -2.149  24.054  0.00  0.00    +0.167 A 
ATOM     23  F   UNL     1      -4.495  -2.555  23.546  0.00  0.00    -0.202 F 
ATOM     24  C   UNL     1      -3.275  -2.493  24.287  0.00  0.00    +0.032 A 
ATOM     25  C   UNL     1      -2.767  -2.087  24.795  0.00  0.00    -0.000 A 
ENDBRANCH  17  18
ENDBRANCH  16  17
TORSDOF 4
ENDMDL
MODEL 4
REMARK VINA RESULT:     -12.2      2.967      5.527
REMARK  Name = 
REMARK  4 active torsions:
REMARK  status: ('A' for Active; 'I' for Inactive)
REMARK    1  A    between atoms: C_2  and  C_4
REMARK    2  A    between atoms: C_11  and  C_13
REMARK    3  A    between atoms: N_16  and  C_17
REMARK    4  A    between atoms: C_17  and  C_18
REMARK                            x       y       z     vdW  Elec       q    Type
REMARK                         _______ _______ _______ _____ _____    ______ ____
ROOT
ATOM     13  C   UNL     1      -1.001   0.679  24.837  0.00  0.00    +0.076 C 
ATOM     14  C   UNL     1      -0.493   0.984  24.263  0.00  0.00    +0.026 C 
ATOM     15  C   UNL     1      -0.208   1.710  24.535  0.00  0.00    +0.073 C 
ATOM     16  N   UNL     1      -0.540   1.853  25.277  0.00  0.00    -0.269 NA
ATOM     26  C   UNL     1      -1.030   1.215  25.464  0.00  0.00    +0.080 C 
ENDROOT
BRANCH  13  11
ATOM      4  C   UNL     1      -3.105  -1.356  24.759  0.00  0.00    +0.076 A 
ATOM      5  C   UNL     1      -3.099  -2.177  24.684  0.00  0.00    +0.006 A 
ATOM      6  C   UNL     1      -2.383  -2.580  24.611  0.00  0.00    +0.002 A 
ATOM      7  C   UNL     1      -1.673  -2.162  24.613  0.00  0.00    +0.021 A 
ATOM      8  C   UNL     1      -1.677  -1.340  24.688  0.00  0.00    +0.100 A 
ATOM      9  C   UNL     1      -2.393  -0.937  24.761  0.00  0.00    +0.105 A 
ATOM     10  N   UNL     1      -2.228  -0.132  24.825  0.00  0.00    -0.229 NA
ATOM     11  C   UNL     1      -1.408  -0.037  24.793  0.00  0.00    +0.140 A 
ATOM     12  N   UNL     1      -1.069  -0.784  24.708  0.00  0.00    -0.229 NA
BRANCH   4   2
ATOM      1  N   UNL     1      -4.275  -0.795  24.162  0.00  0.00    -0.084 NA
ATOM      2  C   UNL     1      -3.820  -0.953  24.832  0.00  0.00    +0.286 C 
ATOM      3  O   UNL     1      -4.083  -0.709  25.575  0.00  0.00    -0.267 OA
ENDBRANCH   4   2
ENDBRANCH  13  11
BRANCH  16  17
ATOM     17  C   UNL     1      -0.406   2.515  25.748  0.00  0.00    +0.099 C 
BRANCH  17  18
ATOM     18  C   UNL     1      -0.806   3.219  25.595  0.00  0.00    -0.004 A 
ATOM     19  C   UNL     1      -0.443   3.813  25.151  0.00  0.00    +0.029 A 
ATOM     20  C   UNL     1      -0.844   4.518  24.997  0.00  0.00    +0.167 A 
ATOM     21  F   UNL     1      -0.481   5.111  24.554  0.00  0.00    -0.202 F 
ATOM     22  C   UNL     1      -1.609   4.628  25.288  0.00  0.00    +0.167 A 
ATOM     23  F   UNL     1      -2.010   5.333  25.134  0.00  0.00    -0.202 F 
ATOM     24  C   UNL     1      -1.972   4.035  25.731  0.00  0.00    +0.032 A 
ATOM     25  C   UNL     1      -1.571   3.331  25.885  0.00  0.00    -0.000 A 
ENDBRANCH  17  18
ENDBRANCH  16  17
TORSDOF 4
ENDMDL
