MODEL 1
REMARK VINA RESULT:     -13.4      0.000      0.000
REMARK  Name = 
REMARK  6 active torsions:
REMARK  status: ('A' for Active; 'I' for Inactive)
REMARK    1  A    between atoms: C_2  and  C_3
REMARK    2  A    between atoms: C_2  and  C_25
REMARK    3  A    between atoms: C_10  and  N_11
REMARK    4  A    between atoms: C_12  and  C_14
REMARK    5  A    between atoms: N_27  and  C_28
REMARK    6  A    between atoms: C_28  and  C_29
REMARK                            x       y       z     vdW  Elec       q    Type
REMARK                         _______ _______ _______ _____ _____    ______ ____
ROOT
ATOM      3  C   UNL     1      -4.124   3.120  24.531  0.00  0.00    +0.039 C 
ATOM      4  C   UNL     1      -4.743   3.217  25.068  0.00  0.00    +0.003 C 
ATOM      5  C   UNL     1      -5.156   2.559  25.346  0.00  0.00    +0.000 C 
ATOM      6  C   UNL     1      -4.950   1.804  25.087  0.00  0.00    +0.002 C 
ATOM      7  C   UNL     1      -5.568   1.902  25.623  0.00  0.00    +0.000 C 
ATOM      8  C   UNL     1      -5.363   1.146  25.364  0.00  0.00    +0.002 C 
ATOM      9  C   UNL     1      -5.157   0.391  25.105  0.00  0.00    +0.022 C 
ATOM     10  C   UNL     1      -4.538   0.293  24.567  0.00  0.00    +0.096 C 
ATOM     20  C   UNL     1      -4.125   0.951  24.290  0.00  0.00    +0.022 C 
ATOM     21  C   UNL     1      -3.507   0.853  23.753  0.00  0.00    +0.002 C 
ATOM     22  C   UNL     1      -4.331   1.707  24.549  0.00  0.00    +0.032 C 
ATOM     23  C   UNL     1      -3.918   2.365  24.272  0.00  0.00    +0.152 C 
ATOM     24  O   UNL     1      -3.300   2.267  23.735  0.00  0.00    -0.223 OA
ENDROOT
BRANCH  10  11
ATOM     11  N   UNL     1      -4.332  -0.463  24.308  0.00  0.00    -0.202 NA
ATOM     12  C   UNL     1      -4.094  -1.035  24.852  0.00  0.00    +0.282 C 
ATOM     13  O   UNL     1      -4.060  -0.852  25.656  0.00  0.00    -0.267 OA
BRANCH  12  14
ATOM     14  C   UNL     1      -3.888  -1.791  24.592  0.00  0.00    +0.136 A 
ATOM     15  N   UNL     1      -4.308  -2.146  23.978  0.00  0.00    -0.239 NA
ATOM     16  C   UNL     1      -4.103  -2.902  23.719  0.00  0.00    +0.099 A 
ATOM     17  C   UNL     1      -3.476  -3.303  24.075  0.00  0.00    +0.021 A 
ATOM     18  C   UNL     1      -3.055  -2.948  24.691  0.00  0.00    +0.003 A 
ATOM     19  C   UNL     1      -3.262  -2.193  24.949  0.00  0.00    +0.024 A 
ENDBRANCH  12  14
ENDBRANCH  10  11
BRANCH   3   2
ATOM      1  C   UNL     1      -3.886   4.094  23.511  0.00  0.00    +0.010 C 
ATOM      2  C   UNL     1      -3.711   3.778  24.253  0.00  0.00    +0.081 C 
BRANCH   2  25
ATOM     25  C   UNL     1      -3.123   4.122  24.719  0.00  0.00    +0.241 C 
ATOM     26  O   UNL     1      -3.280   4.817  25.135  0.00  0.00    -0.273 OA
ATOM     27  N   UNL     1      -2.378   3.771  24.768  0.00  0.00    -0.201 NA
BRANCH  27  28
ATOM     28  C   UNL     1      -1.790   4.114  25.233  0.00  0.00    +0.141 C 
BRANCH  28  29
ATOM     29  C   UNL     1      -1.139   3.668  25.472  0.00  0.00    -0.000 A 
ATOM     30  C   UNL     1      -1.160   3.257  26.187  0.00  0.00    -0.000 A 
ATOM     31  C   UNL     1      -0.508   2.811  26.425  0.00  0.00    +0.029 A 
ATOM     32  C   UNL     1       0.165   2.776  25.948  0.00  0.00    +0.140 A 
ATOM     33  F   UNL     1       0.816   2.330  26.186  0.00  0.00    -0.204 F 
ATOM     34  C   UNL     1       0.185   3.187  25.233  0.00  0.00    +0.029 A 
ATOM     35  C   UNL     1      -0.467   3.633  24.994  0.00  0.00    -0.000 A 
ENDBRANCH  28  29
ENDBRANCH  27  28
ENDBRANCH   2  25
ENDBRANCH   3   2
TORSDOF 6
ENDMDL
MODEL 2
REMARK VINA RESULT:     -11.9      3.349      5.083
REMARK  Name = 
REMARK  6 active torsions:
REMARK  status: ('A' for Active; 'I' for Inactive)
REMARK    1  A    between atoms: C_2  and  C_3
REMARK    2  A    between atoms: C_2  and  C_25
REMARK    3  A    between atoms: C_10  and  N_11
REMARK    4  A    between atoms: C_12  and  C_14
REMARK    5  A    between atoms: N_27  and  C_28
REMARK    6  A    between atoms: C_28  and  C_29
REMARK                            x       y       z     vdW  Elec       q    Type
REMARK                         _______ _______ _______ _____ _____    ______ ____
ROOT
ATOM      3  C   UNL     1       0.005   0.648  23.957  0.00  0.00    +0.039 C 
ATOM      4  C   UNL     1       0.410   1.365  24.024  0.00  0.00    +0.003 C 
ATOM      5  C   UNL     1       0.014   2.040  24.282  0.00  0.00    +0.000 C 
ATOM      6  C   UNL     1      -0.787   2.001  24.472  0.00  0.00    +0.002 C 
ATOM      7  C   UNL     1      -0.382   2.716  24.539  0.00  0.00    +0.000 C 
ATOM      8  C   UNL     1      -1.184   2.677  24.730  0.00  0.00    +0.002 C 
ATOM      9  C   UNL     1      -1.985   2.638  24.920  0.00  0.00    +0.022 C 
ATOM     10  C   UNL     1      -2.391   1.922  24.853  0.00  0.00    +0.096 C 
ATOM     20  C   UNL     1      -1.995   1.246  24.595  0.00  0.00    +0.022 C 
ATOM     21  C   UNL     1      -2.400   0.531  24.528  0.00  0.00    +0.002 C 
ATOM     22  C   UNL     1      -1.193   1.285  24.405  0.00  0.00    +0.032 C 
ATOM     23  C   UNL     1      -0.797   0.609  24.147  0.00  0.00    +0.152 C 
ATOM     24  O   UNL     1      -1.202  -0.106  24.080  0.00  0.00    -0.223 OA
ENDROOT
BRANCH  10  11
ATOM     11  N   UNL     1      -3.193   1.883  25.043  0.00  0.00    -0.202 NA
ATOM     12  C   UNL     1      -3.695   2.507  24.847  0.00  0.00    +0.282 C 
ATOM     13  O   UNL     1      -3.395   3.171  24.458  0.00  0.00    -0.267 OA
BRANCH  12  14
ATOM     14  C   UNL     1      -4.497   2.468  25.037  0.00  0.00    +0.136 A 
ATOM     15  N   UNL     1      -4.994   1.954  24.628  0.00  0.00    -0.239 NA
ATOM     16  C   UNL     1      -5.796   1.915  24.819  0.00  0.00    +0.099 A 
ATOM     17  C   UNL     1      -6.100   2.392  25.419  0.00  0.00    +0.021 A 
ATOM     18  C   UNL     1      -5.602   2.907  25.829  0.00  0.00    +0.003 A 
ATOM     19  C   UNL     1      -4.801   2.945  25.638  0.00  0.00    +0.024 A 
ENDBRANCH  12  14
ENDBRANCH  10  11
BRANCH   3   2
ATOM      1  C   UNL     1       0.258  -0.755  24.061  0.00  0.00    +0.010 C 
ATOM      2  C   UNL     1       0.402  -0.027  23.699  0.00  0.00    +0.081 C 
BRANCH   2  25
ATOM     25  C   UNL     1       0.943   0.024  23.078  0.00  0.00    +0.241 C 
ATOM     26  O   UNL     1       0.674   0.063  22.298  0.00  0.00    -0.273 OA
ATOM     27  N   UNL     1       1.753   0.037  23.237  0.00  0.00    -0.201 NA
BRANCH  27  28
ATOM     28  C   UNL     1       2.293   0.089  22.617  0.00  0.00    +0.141 C 
BRANCH  28  29
ATOM     29  C   UNL     1       3.096   0.188  22.776  0.00  0.00    -0.000 A 
ATOM     30  C   UNL     1       3.532  -0.431  23.105  0.00  0.00    -0.000 A 
ATOM     31  C   UNL     1       4.334  -0.332  23.264  0.00  0.00    +0.029 A 
ATOM     32  C   UNL     1       4.703   0.387  23.094  0.00  0.00    +0.140 A 
ATOM     33  F   UNL     1       5.506   0.487  23.253  0.00  0.00    -0.204 F 
ATOM     34  C   UNL     1       4.268   1.006  22.765  0.00  0.00    +0.029 A 
ATOM     35  C   UNL     1       3.464   0.906  22.606  0.00  0.00    -0.000 A 
ENDBRANCH  28  29
ENDBRANCH  27  28
ENDBRANCH   2  25
ENDBRANCH   3   2
TORSDOF 6
ENDMDL
MODEL 3
REMARK VINA RESULT:     -11.8      1.529      5.001
REMARK  Name = 
REMARK  6 active torsions:
REMARK  status: ('A' for Active; 'I' for Inactive)
REMARK    1  A    between atoms: C_2  and  C_3
REMARK    2  A    between atoms: C_2  and  C_25
REMARK    3  A    between atoms: C_10  and  N_11
REMARK    4  A    between atoms: C_12  and  C_14
REMARK    5  A    between atoms: N_27  and  C_28
REMARK    6  A    between atoms: C_28  and  C_29
REMARK                            x       y       z     vdW  Elec       q    Type
REMARK                         _______ _______ _______ _____ _____    ______ ____
ROOT
ATOM      3  C   UNL     1      -4.271   0.232  24.379  0.00  0.00    +0.039 C 
ATOM      4  C   UNL     1      -4.940   0.382  24.839  0.00  0.00    +0.003 C 
ATOM      5  C   UNL     1      -5.059   1.131  25.162  0.00  0.00    +0.000 C 
ATOM      6  C   UNL     1      -4.509   1.731  25.027  0.00  0.00    +0.002 C 
ATOM      7  C   UNL     1      -5.177   1.880  25.485  0.00  0.00    +0.000 C 
ATOM      8  C   UNL     1      -4.627   2.481  25.350  0.00  0.00    +0.002 C 
ATOM      9  C   UNL     1      -4.078   3.080  25.214  0.00  0.00    +0.022 C 
ATOM     10  C   UNL     1      -3.408   2.930  24.754  0.00  0.00    +0.096 C 
ATOM     20  C   UNL     1      -3.290   2.181  24.431  0.00  0.00    +0.022 C 
ATOM     21  C   UNL     1      -2.621   2.030  23.971  0.00  0.00    +0.002 C 
ATOM     22  C   UNL     1      -3.840   1.580  24.567  0.00  0.00    +0.032 C 
ATOM     23  C   UNL     1      -3.722   0.831  24.243  0.00  0.00    +0.152 C 
ATOM     24  O   UNL     1      -3.053   0.681  23.784  0.00  0.00    -0.223 OA
ENDROOT
BRANCH  10  11
ATOM     11  N   UNL     1      -2.858   3.530  24.618  0.00  0.00    -0.202 NA
ATOM     12  C   UNL     1      -2.466   3.881  25.252  0.00  0.00    +0.282 C 
ATOM     13  O   UNL     1      -2.622   3.632  26.024  0.00  0.00    -0.267 OA
BRANCH  12  14
ATOM     14  C   UNL     1      -1.916   4.481  25.117  0.00  0.00    +0.136 A 
ATOM     15  N   UNL     1      -1.126   4.293  24.974  0.00  0.00    -0.239 NA
ATOM     16  C   UNL     1      -0.576   4.893  24.838  0.00  0.00    +0.099 A 
ATOM     17  C   UNL     1      -0.817   5.682  24.845  0.00  0.00    +0.021 A 
ATOM     18  C   UNL     1      -1.608   5.871  24.988  0.00  0.00    +0.003 A 
ATOM     19  C   UNL     1      -2.157   5.270  25.124  0.00  0.00    +0.024 A 
ENDBRANCH  12  14
ENDBRANCH  10  11
BRANCH   3   2
ATOM      1  C   UNL     1      -4.350  -0.665  23.268  0.00  0.00    +0.010 C 
ATOM      2  C   UNL     1      -4.153  -0.518  24.056  0.00  0.00    +0.081 C 
BRANCH   2  25
ATOM     25  C   UNL     1      -3.838  -1.122  24.521  0.00  0.00    +0.241 C 
ATOM     26  O   UNL     1      -4.330  -1.563  25.016  0.00  0.00    -0.273 OA
ATOM     27  N   UNL     1      -3.029  -1.286  24.492  0.00  0.00    -0.201 NA
BRANCH  27  28
ATOM     28  C   UNL     1      -2.714  -1.889  24.957  0.00  0.00    +0.141 C 
BRANCH  28  29
ATOM     29  C   UNL     1      -1.898  -1.939  25.071  0.00  0.00    -0.000 A 
ATOM     30  C   UNL     1      -1.532  -1.471  25.643  0.00  0.00    -0.000 A 
ATOM     31  C   UNL     1      -0.717  -1.522  25.757  0.00  0.00    +0.029 A 
ATOM     32  C   UNL     1      -0.267  -2.040  25.299  0.00  0.00    +0.140 A 
ATOM     33  F   UNL     1       0.548  -2.091  25.413  0.00  0.00    -0.204 F 
ATOM     34  C   UNL     1      -0.634  -2.509  24.727  0.00  0.00    +0.029 A 
ATOM     35  C   UNL     1      -1.450  -2.458  24.613  0.00  0.00    -0.000 A 
ENDBRANCH  28  29
ENDBRANCH  27  28
ENDBRANCH   2  25
ENDBRANCH   3   2
TORSDOF 6
ENDMDL
MODEL 4
REMARK VINA RESULT:     -11.6      2.204      3.649
REMARK  Name = 
REMARK  6 active torsions:
REMARK  status: ('A' for Active; 'I' for Inactive)
REMARK    1  A    between atoms: C_2  and  C_3
REMARK    2  A    between atoms: C_2  and  C_25
REMARK    3  A    between atoms: C_10  and  N_11
REMARK    4  A    between atoms: C_12  and  C_14
REMARK    5  A    between atoms: N_27  and  C_28
REMARK    6  A    between atoms: C_28  and  C_29
REMARK                            x       y       z     vdW  Elec       q    Type
REMARK                         _______ _______ _______ _____ _____    ______ ____
ROOT
ATOM      3  C   UNL     1      -0.202   2.074  25.285  0.00  0.00    +0.039 C 
ATOM      4  C   UNL     1       0.298   2.091  24.628  0.00  0.00    +0.003 C 
ATOM      5  C   UNL     1       0.325   1.447  24.114  0.00  0.00    +0.000 C 
ATOM      6  C   UNL     1      -0.147   0.786  24.256  0.00  0.00    +0.002 C 
ATOM      7  C   UNL     1       0.352   0.802  23.601  0.00  0.00    +0.000 C 
ATOM      8  C   UNL     1      -0.120   0.141  23.743  0.00  0.00    +0.002 C 
ATOM      9  C   UNL     1      -0.592  -0.520  23.885  0.00  0.00    +0.022 C 
ATOM     10  C   UNL     1      -1.092  -0.537  24.542  0.00  0.00    +0.096 C 
ATOM     20  C   UNL     1      -1.119   0.108  25.056  0.00  0.00    +0.022 C 
ATOM     21  C   UNL     1      -1.618   0.091  25.712  0.00  0.00    +0.002 C 
ATOM     22  C   UNL     1      -0.647   0.769  24.914  0.00  0.00    +0.032 C 
ATOM     23  C   UNL     1      -0.673   1.413  25.427  0.00  0.00    +0.152 C 
ATOM     24  O   UNL     1      -1.173   1.397  26.084  0.00  0.00    -0.223 OA
ENDROOT
BRANCH  10  11
ATOM     11  N   UNL     1      -1.564  -1.198  24.684  0.00  0.00    -0.202 NA
ATOM     12  C   UNL     1      -2.197  -1.369  24.184  0.00  0.00    +0.282 C 
ATOM     13  O   UNL     1      -2.359  -0.877  23.540  0.00  0.00    -0.267 OA
BRANCH  12  14
ATOM     14  C   UNL     1      -2.669  -2.031  24.325  0.00  0.00    +0.136 A 
ATOM     15  N   UNL     1      -2.323  -2.747  24.542  0.00  0.00    -0.239 NA
ATOM     16  C   UNL     1      -2.795  -3.408  24.684  0.00  0.00    +0.099 A 
ATOM     17  C   UNL     1      -3.614  -3.353  24.609  0.00  0.00    +0.021 A 
ATOM     18  C   UNL     1      -3.962  -2.636  24.392  0.00  0.00    +0.003 A 
ATOM     19  C   UNL     1      -3.489  -1.976  24.250  0.00  0.00    +0.024 A 
ENDBRANCH  12  14
ENDBRANCH  10  11
BRANCH   3   2
ATOM      1  C   UNL     1       0.177   2.693  26.517  0.00  0.00    +0.010 C 
ATOM      2  C   UNL     1      -0.228   2.719  25.799  0.00  0.00    +0.081 C 
BRANCH   2  25
ATOM     25  C   UNL     1      -0.661   3.391  25.595  0.00  0.00    +0.241 C 
ATOM     26  O   UNL     1      -0.280   4.039  25.252  0.00  0.00    -0.273 OA
ATOM     27  N   UNL     1      -1.475   3.416  25.732  0.00  0.00    -0.201 NA
BRANCH  27  28
ATOM     28  C   UNL     1      -1.907   4.088  25.528  0.00  0.00    +0.141 C 
BRANCH  28  29
ATOM     29  C   UNL     1      -2.729   4.049  25.474  0.00  0.00    -0.000 A 
ATOM     30  C   UNL     1      -3.190   4.095  26.156  0.00  0.00    -0.000 A 
ATOM     31  C   UNL     1      -4.012   4.056  26.102  0.00  0.00    +0.029 A 
ATOM     32  C   UNL     1      -4.373   3.972  25.365  0.00  0.00    +0.140 A 
ATOM     33  F   UNL     1      -5.195   3.933  25.310  0.00  0.00    -0.204 F 
ATOM     34  C   UNL     1      -3.912   3.926  24.682  0.00  0.00    +0.029 A 
ATOM     35  C   UNL     1      -3.089   3.965  24.737  0.00  0.00    -0.000 A 
ENDBRANCH  28  29
ENDBRANCH  27  28
ENDBRANCH   2  25
ENDBRANCH   3   2
TORSDOF 6
ENDMDL
MODEL 5
REMARK VINA RESULT:     -11.5      2.698      4.979
REMARK  Name = 
REMARK  6 active torsions:
REMARK  status: ('A' for Active; 'I' for Inactive)
REMARK    1  A    between atoms: C_2  and  C_3
REMARK    2  A    between atoms: C_2  and  C_25
REMARK    3  A    between atoms: C_10  and  N_11
REMARK    4  A    between atoms: C_12  and  C_14
REMARK    5  A    between atoms: N_27  and  C_28
REMARK    6  A    between atoms: C_28  and  C_29
REMARK                            x       y       z     vdW  Elec       q    Type
REMARK                         _______ _______ _______ _____ _____    ______ ____
ROOT
ATOM      3  C   UNL     1      -2.826   2.322  24.601  0.00  0.00    +0.039 C 
ATOM      4  C   UNL     1      -2.657   2.677  25.328  0.00  0.00    +0.003 C 
ATOM      5  C   UNL     1      -1.874   2.772  25.568  0.00  0.00    +0.000 C 
ATOM      6  C   UNL     1      -1.259   2.513  25.083  0.00  0.00    +0.002 C 
ATOM      7  C   UNL     1      -1.091   2.867  25.808  0.00  0.00    +0.000 C 
ATOM      8  C   UNL     1      -0.476   2.608  25.323  0.00  0.00    +0.002 C 
ATOM      9  C   UNL     1       0.139   2.349  24.838  0.00  0.00    +0.022 C 
ATOM     10  C   UNL     1      -0.030   1.994  24.112  0.00  0.00    +0.096 C 
ATOM     20  C   UNL     1      -0.813   1.900  23.872  0.00  0.00    +0.022 C 
ATOM     21  C   UNL     1      -0.982   1.546  23.146  0.00  0.00    +0.002 C 
ATOM     22  C   UNL     1      -1.428   2.159  24.357  0.00  0.00    +0.032 C 
ATOM     23  C   UNL     1      -2.211   2.064  24.117  0.00  0.00    +0.152 C 
ATOM     24  O   UNL     1      -2.380   1.710  23.391  0.00  0.00    -0.223 OA
ENDROOT
BRANCH  10  11
ATOM     11  N   UNL     1       0.585   1.736  23.627  0.00  0.00    -0.202 NA
ATOM     12  C   UNL     1       1.062   1.107  23.865  0.00  0.00    +0.282 C 
ATOM     13  O   UNL     1       0.924   0.735  24.589  0.00  0.00    -0.267 OA
BRANCH  12  14
ATOM     14  C   UNL     1       1.677   0.848  23.380  0.00  0.00    +0.136 A 
ATOM     15  N   UNL     1       2.396   1.251  23.373  0.00  0.00    -0.239 NA
ATOM     16  C   UNL     1       3.011   0.993  22.888  0.00  0.00    +0.099 A 
ATOM     17  C   UNL     1       2.907   0.329  22.409  0.00  0.00    +0.021 A 
ATOM     18  C   UNL     1       2.187  -0.076  22.416  0.00  0.00    +0.003 A 
ATOM     19  C   UNL     1       1.573   0.184  22.901  0.00  0.00    +0.024 A 
ENDBRANCH  12  14
ENDBRANCH  10  11
BRANCH   3   2
ATOM      1  C   UNL     1      -3.927   2.720  23.780  0.00  0.00    +0.010 C 
ATOM      2  C   UNL     1      -3.609   2.228  24.361  0.00  0.00    +0.081 C 
BRANCH   2  25
ATOM     25  C   UNL     1      -4.077   1.640  24.703  0.00  0.00    +0.241 C 
ATOM     26  O   UNL     1      -4.658   1.843  25.254  0.00  0.00    -0.273 OA
ATOM     27  N   UNL     1      -3.963   0.849  24.495  0.00  0.00    -0.201 NA
BRANCH  27  28
ATOM     28  C   UNL     1      -4.430   0.262  24.836  0.00  0.00    +0.141 C 
BRANCH  28  29
ATOM     29  C   UNL     1      -4.219  -0.531  24.757  0.00  0.00    -0.000 A 
ATOM     30  C   UNL     1      -4.415  -0.944  24.070  0.00  0.00    -0.000 A 
ATOM     31  C   UNL     1      -4.204  -1.737  23.991  0.00  0.00    +0.029 A 
ATOM     32  C   UNL     1      -3.797  -2.119  24.599  0.00  0.00    +0.140 A 
ATOM     33  F   UNL     1      -3.586  -2.912  24.521  0.00  0.00    -0.204 F 
ATOM     34  C   UNL     1      -3.602  -1.706  25.286  0.00  0.00    +0.029 A 
ATOM     35  C   UNL     1      -3.813  -0.912  25.366  0.00  0.00    -0.000 A 
ENDBRANCH  28  29
ENDBRANCH  27  28
ENDBRANCH   2  25
ENDBRANCH   3   2
TORSDOF 6
ENDMDL
MODEL 6
REMARK VINA RESULT:     -11.3      2.950      4.674
REMARK  Name = 
REMARK  6 active torsions:
REMARK  status: ('A' for Active; 'I' for Inactive)
REMARK    1  A    between atoms: C_2  and  C_3
REMARK    2  A    between atoms: C_2  and  C_25
REMARK    3  A    between atoms: C_10  and  N_11
REMARK    4  A    between atoms: C_12  and  C_14
REMARK    5  A    between atoms: N_27  and  C_28
REMARK    6  A    between atoms: C_28  and  C_29
REMARK                            x       y       z     vdW  Elec       q    Type
REMARK                         _______ _______ _______ _____ _____    ______ ____
ROOT
ATOM      3  C   UNL     1      -1.697   3.733  25.523  0.00  0.00    +0.039 C 
ATOM      4  C   UNL     1      -1.484   3.525  26.293  0.00  0.00    +0.003 C 
ATOM      5  C   UNL     1      -0.899   2.959  26.420  0.00  0.00    +0.000 C 
ATOM      6  C   UNL     1      -0.527   2.599  25.778  0.00  0.00    +0.002 C 
ATOM      7  C   UNL     1      -0.314   2.392  26.547  0.00  0.00    +0.000 C 
ATOM      8  C   UNL     1       0.059   2.032  25.905  0.00  0.00    +0.002 C 
ATOM      9  C   UNL     1       0.431   1.672  25.263  0.00  0.00    +0.022 C 
ATOM     10  C   UNL     1       0.217   1.880  24.493  0.00  0.00    +0.096 C 
ATOM     20  C   UNL     1      -0.368   2.446  24.366  0.00  0.00    +0.022 C 
ATOM     21  C   UNL     1      -0.581   2.653  23.596  0.00  0.00    +0.002 C 
ATOM     22  C   UNL     1      -0.740   2.807  25.008  0.00  0.00    +0.032 C 
ATOM     23  C   UNL     1      -1.325   3.373  24.881  0.00  0.00    +0.152 C 
ATOM     24  O   UNL     1      -1.539   3.580  24.112  0.00  0.00    -0.223 OA
ENDROOT
BRANCH  10  11
ATOM     11  N   UNL     1       0.590   1.519  23.851  0.00  0.00    -0.202 NA
ATOM     12  C   UNL     1       0.645   0.698  23.813  0.00  0.00    +0.282 C 
ATOM     13  O   UNL     1       0.327   0.234  24.418  0.00  0.00    -0.267 OA
BRANCH  12  14
ATOM     14  C   UNL     1       1.018   0.337  23.171  0.00  0.00    +0.136 A 
ATOM     15  N   UNL     1       1.821   0.465  23.034  0.00  0.00    -0.239 NA
ATOM     16  C   UNL     1       2.193   0.105  22.392  0.00  0.00    +0.099 A 
ATOM     17  C   UNL     1       1.762  -0.384  21.887  0.00  0.00    +0.021 A 
ATOM     18  C   UNL     1       0.957  -0.512  22.023  0.00  0.00    +0.003 A 
ATOM     19  C   UNL     1       0.586  -0.151  22.665  0.00  0.00    +0.024 A 
ENDBRANCH  12  14
ENDBRANCH  10  11
BRANCH   3   2
ATOM      1  C   UNL     1      -2.126   4.959  24.925  0.00  0.00    +0.010 C 
ATOM      2  C   UNL     1      -2.283   4.300  25.396  0.00  0.00    +0.081 C 
BRANCH   2  25
ATOM     25  C   UNL     1      -3.027   4.208  25.741  0.00  0.00    +0.241 C 
ATOM     26  O   UNL     1      -3.191   4.562  26.470  0.00  0.00    -0.273 OA
ATOM     27  N   UNL     1      -3.608   3.763  25.359  0.00  0.00    -0.201 NA
BRANCH  27  28
ATOM     28  C   UNL     1      -4.350   3.671  25.704  0.00  0.00    +0.141 C 
BRANCH  28  29
ATOM     29  C   UNL     1      -4.846   3.059  25.459  0.00  0.00    -0.000 A 
ATOM     30  C   UNL     1      -4.804   2.777  24.685  0.00  0.00    -0.000 A 
ATOM     31  C   UNL     1      -5.300   2.165  24.442  0.00  0.00    +0.029 A 
ATOM     32  C   UNL     1      -5.839   1.835  24.972  0.00  0.00    +0.140 A 
ATOM     33  F   UNL     1      -6.335   1.223  24.728  0.00  0.00    -0.204 F 
ATOM     34  C   UNL     1      -5.882   2.117  25.746  0.00  0.00    +0.029 A 
ATOM     35  C   UNL     1      -5.385   2.730  25.990  0.00  0.00    -0.000 A 
ENDBRANCH  28  29
ENDBRANCH  27  28
ENDBRANCH   2  25
ENDBRANCH   3   2
TORSDOF 6
ENDMDL
MODEL 7
REMARK VINA RESULT:     -11.1      2.280      5.307
REMARK  Name = 
REMARK  6 active torsions:
REMARK  status: ('A' for Active; 'I' for Inactive)
REMARK    1  A    between atoms: C_2  and  C_3
REMARK    2  A    between atoms: C_2  and  C_25
REMARK    3  A    between atoms: C_10  and  N_11
REMARK    4  A    between atoms: C_12  and  C_14
REMARK    5  A    between atoms: N_27  and  C_28
REMARK    6  A    between atoms: C_28  and  C_29
REMARK                            x       y       z     vdW  Elec       q    Type
REMARK                         _______ _______ _______ _____ _____    ______ ____
ROOT
ATOM      3  C   UNL     1      -0.588   1.063  24.404  0.00  0.00    +0.039 C 
ATOM      4  C   UNL     1      -0.060   1.413  24.934  0.00  0.00    +0.003 C 
ATOM      5  C   UNL     1      -0.294   2.069  25.376  0.00  0.00    +0.000 C 
ATOM      6  C   UNL     1      -1.054   2.375  25.288  0.00  0.00    +0.002 C 
ATOM      7  C   UNL     1      -0.528   2.724  25.817  0.00  0.00    +0.000 C 
ATOM      8  C   UNL     1      -1.289   3.032  25.730  0.00  0.00    +0.002 C 
ATOM      9  C   UNL     1      -2.049   3.338  25.643  0.00  0.00    +0.022 C 
ATOM     10  C   UNL     1      -2.577   2.988  25.113  0.00  0.00    +0.096 C 
ATOM     20  C   UNL     1      -2.343   2.332  24.671  0.00  0.00    +0.022 C 
ATOM     21  C   UNL     1      -2.870   1.983  24.142  0.00  0.00    +0.002 C 
ATOM     22  C   UNL     1      -1.582   2.025  24.758  0.00  0.00    +0.032 C 
ATOM     23  C   UNL     1      -1.348   1.369  24.317  0.00  0.00    +0.152 C 
ATOM     24  O   UNL     1      -1.876   1.020  23.787  0.00  0.00    -0.223 OA
ENDROOT
BRANCH  10  11
ATOM     11  N   UNL     1      -3.338   3.295  25.026  0.00  0.00    -0.202 NA
ATOM     12  C   UNL     1      -3.815   3.409  25.688  0.00  0.00    +0.282 C 
ATOM     13  O   UNL     1      -3.532   3.216  26.439  0.00  0.00    -0.267 OA
BRANCH  12  14
ATOM     14  C   UNL     1      -4.576   3.717  25.601  0.00  0.00    +0.136 A 
ATOM     15  N   UNL     1      -4.681   4.510  25.404  0.00  0.00    -0.239 NA
ATOM     16  C   UNL     1      -5.442   4.817  25.317  0.00  0.00    +0.099 A 
ATOM     17  C   UNL     1      -6.098   4.330  25.427  0.00  0.00    +0.021 A 
ATOM     18  C   UNL     1      -5.993   3.534  25.623  0.00  0.00    +0.003 A 
ATOM     19  C   UNL     1      -5.232   3.229  25.710  0.00  0.00    +0.024 A 
ENDBRANCH  12  14
ENDBRANCH  10  11
BRANCH   3   2
ATOM      1  C   UNL     1      -0.100   0.501  23.183  0.00  0.00    +0.010 C 
ATOM      2  C   UNL     1      -0.354   0.406  23.962  0.00  0.00    +0.081 C 
BRANCH   2  25
ATOM     25  C   UNL     1      -0.374  -0.346  24.300  0.00  0.00    +0.241 C 
ATOM     26  O   UNL     1       0.311  -0.669  24.630  0.00  0.00    -0.273 OA
ATOM     27  N   UNL     1      -1.078  -0.776  24.309  0.00  0.00    -0.201 NA
BRANCH  27  28
ATOM     28  C   UNL     1      -1.098  -1.528  24.647  0.00  0.00    +0.141 C 
BRANCH  28  29
ATOM     29  C   UNL     1      -1.813  -1.934  24.708  0.00  0.00    -0.000 A 
ATOM     30  C   UNL     1      -2.346  -1.743  25.308  0.00  0.00    -0.000 A 
ATOM     31  C   UNL     1      -3.061  -2.150  25.369  0.00  0.00    +0.029 A 
ATOM     32  C   UNL     1      -3.243  -2.748  24.830  0.00  0.00    +0.140 A 
ATOM     33  F   UNL     1      -3.958  -3.154  24.891  0.00  0.00    -0.204 F 
ATOM     34  C   UNL     1      -2.710  -2.939  24.231  0.00  0.00    +0.029 A 
ATOM     35  C   UNL     1      -1.994  -2.532  24.169  0.00  0.00    -0.000 A 
ENDBRANCH  28  29
ENDBRANCH  27  28
ENDBRANCH   2  25
ENDBRANCH   3   2
TORSDOF 6
ENDMDL
MODEL 8
REMARK VINA RESULT:     -10.9      2.551      6.250
REMARK  Name = 
REMARK  6 active torsions:
REMARK  status: ('A' for Active; 'I' for Inactive)
REMARK    1  A    between atoms: C_2  and  C_3
REMARK    2  A    between atoms: C_2  and  C_25
REMARK    3  A    between atoms: C_10  and  N_11
REMARK    4  A    between atoms: C_12  and  C_14
REMARK    5  A    between atoms: N_27  and  C_28
REMARK    6  A    between atoms: C_28  and  C_29
REMARK                            x       y       z     vdW  Elec       q    Type
REMARK                         _______ _______ _______ _____ _____    ______ ____
ROOT
ATOM      3  C   UNL     1      -0.401  -0.939  24.845  0.00  0.00    +0.039 C 
ATOM      4  C   UNL     1      -0.007  -1.001  24.122  0.00  0.00    +0.003 C 
ATOM      5  C   UNL     1       0.184  -0.320  23.697  0.00  0.00    +0.000 C 
ATOM      6  C   UNL     1      -0.018   0.421  23.994  0.00  0.00    +0.002 C 
ATOM      7  C   UNL     1       0.375   0.360  23.272  0.00  0.00    +0.000 C 
ATOM      8  C   UNL     1       0.172   1.103  23.569  0.00  0.00    +0.002 C 
ATOM      9  C   UNL     1      -0.030   1.845  23.865  0.00  0.00    +0.022 C 
ATOM     10  C   UNL     1      -0.425   1.906  24.588  0.00  0.00    +0.096 C 
ATOM     20  C   UNL     1      -0.616   1.226  25.013  0.00  0.00    +0.022 C 
ATOM     21  C   UNL     1      -1.010   1.288  25.735  0.00  0.00    +0.002 C 
ATOM     22  C   UNL     1      -0.413   0.483  24.717  0.00  0.00    +0.032 C 
ATOM     23  C   UNL     1      -0.604  -0.197  25.141  0.00  0.00    +0.152 C 
ATOM     24  O   UNL     1      -0.998  -0.135  25.863  0.00  0.00    -0.223 OA
ENDROOT
BRANCH  10  11
ATOM     11  N   UNL     1      -0.628   2.649  24.885  0.00  0.00    -0.202 NA
ATOM     12  C   UNL     1      -1.068   3.172  24.424  0.00  0.00    +0.282 C 
ATOM     13  O   UNL     1      -1.306   2.952  23.664  0.00  0.00    -0.267 OA
BRANCH  12  14
ATOM     14  C   UNL     1      -1.271   3.915  24.720  0.00  0.00    +0.136 A 
ATOM     15  N   UNL     1      -2.010   4.034  25.064  0.00  0.00    -0.239 NA
ATOM     16  C   UNL     1      -2.213   4.777  25.361  0.00  0.00    +0.099 A 
ATOM     17  C   UNL     1      -1.675   5.401  25.313  0.00  0.00    +0.021 A 
ATOM     18  C   UNL     1      -0.934   5.282  24.968  0.00  0.00    +0.003 A 
ATOM     19  C   UNL     1      -0.733   4.539  24.672  0.00  0.00    +0.024 A 
ENDBRANCH  12  14
ENDBRANCH  10  11
BRANCH   3   2
ATOM      1  C   UNL     1      -0.224  -1.774  25.992  0.00  0.00    +0.010 C 
ATOM      2  C   UNL     1      -0.592  -1.620  25.269  0.00  0.00    +0.081 C 
BRANCH   2  25
ATOM     25  C   UNL     1      -1.151  -2.148  24.971  0.00  0.00    +0.241 C 
ATOM     26  O   UNL     1      -0.906  -2.848  24.608  0.00  0.00    -0.273 OA
ATOM     27  N   UNL     1      -1.957  -1.978  25.036  0.00  0.00    -0.201 NA
BRANCH  27  28
ATOM     28  C   UNL     1      -2.515  -2.505  24.738  0.00  0.00    +0.141 C 
BRANCH  28  29
ATOM     29  C   UNL     1      -3.253  -2.230  24.493  0.00  0.00    -0.000 A 
ATOM     30  C   UNL     1      -3.588  -1.568  24.854  0.00  0.00    -0.000 A 
ATOM     31  C   UNL     1      -4.326  -1.294  24.609  0.00  0.00    +0.029 A 
ATOM     32  C   UNL     1      -4.730  -1.682  24.003  0.00  0.00    +0.140 A 
ATOM     33  F   UNL     1      -5.468  -1.408  23.757  0.00  0.00    -0.204 F 
ATOM     34  C   UNL     1      -4.395  -2.344  23.642  0.00  0.00    +0.029 A 
ATOM     35  C   UNL     1      -3.656  -2.619  23.888  0.00  0.00    -0.000 A 
ENDBRANCH  28  29
ENDBRANCH  27  28
ENDBRANCH   2  25
ENDBRANCH   3   2
TORSDOF 6
ENDMDL
MODEL 9
REMARK VINA RESULT:     -10.8      2.871      5.227
REMARK  Name = 
REMARK  6 active torsions:
REMARK  status: ('A' for Active; 'I' for Inactive)
REMARK    1  A    between atoms: C_2  and  C_3
REMARK    2  A    between atoms: C_2  and  C_25
REMARK    3  A    between atoms: C_10  and  N_11
REMARK    4  A    between atoms: C_12  and  C_14
REMARK    5  A    between atoms: N_27  and  C_28
REMARK    6  A    between atoms: C_28  and  C_29
REMARK                            x       y       z     vdW  Elec       q    Type
REMARK                         _______ _______ _______ _____ _____    ______ ____
ROOT
ATOM      3  C   UNL     1      -2.985  -1.023  25.204  0.00  0.00    +0.039 C 
ATOM      4  C   UNL     1      -3.045  -1.801  24.932  0.00  0.00    +0.003 C 
ATOM      5  C   UNL     1      -2.410  -2.149  24.538  0.00  0.00    +0.000 C 
ATOM      6  C   UNL     1      -1.716  -1.722  24.416  0.00  0.00    +0.002 C 
ATOM      7  C   UNL     1      -1.776  -2.498  24.144  0.00  0.00    +0.000 C 
ATOM      8  C   UNL     1      -1.080  -2.071  24.022  0.00  0.00    +0.002 C 
ATOM      9  C   UNL     1      -0.385  -1.644  23.901  0.00  0.00    +0.022 C 
ATOM     10  C   UNL     1      -0.325  -0.867  24.173  0.00  0.00    +0.096 C 
ATOM     20  C   UNL     1      -0.960  -0.518  24.567  0.00  0.00    +0.022 C 
ATOM     21  C   UNL     1      -0.900   0.258  24.839  0.00  0.00    +0.002 C 
ATOM     22  C   UNL     1      -1.656  -0.945  24.689  0.00  0.00    +0.032 C 
ATOM     23  C   UNL     1      -2.291  -0.596  25.083  0.00  0.00    +0.152 C 
ATOM     24  O   UNL     1      -2.231   0.180  25.355  0.00  0.00    -0.223 OA
ENDROOT
BRANCH  10  11
ATOM     11  N   UNL     1       0.370  -0.440  24.051  0.00  0.00    -0.202 NA
ATOM     12  C   UNL     1       0.671  -0.351  23.289  0.00  0.00    +0.282 C 
ATOM     13  O   UNL     1       0.277  -0.688  22.647  0.00  0.00    -0.267 OA
BRANCH  12  14
ATOM     14  C   UNL     1       1.367   0.076  23.167  0.00  0.00    +0.136 A 
ATOM     15  N   UNL     1       1.433   0.848  23.450  0.00  0.00    -0.239 NA
ATOM     16  C   UNL     1       2.129   1.275  23.328  0.00  0.00    +0.099 A 
ATOM     17  C   UNL     1       2.758   0.929  22.922  0.00  0.00    +0.021 A 
ATOM     18  C   UNL     1       2.692   0.156  22.639  0.00  0.00    +0.003 A 
ATOM     19  C   UNL     1       1.997  -0.269  22.761  0.00  0.00    +0.024 A 
ENDBRANCH  12  14
ENDBRANCH  10  11
BRANCH   3   2
ATOM      1  C   UNL     1      -3.681  -0.733  26.419  0.00  0.00    +0.010 C 
ATOM      2  C   UNL     1      -3.621  -0.675  25.598  0.00  0.00    +0.081 C 
BRANCH   2  25
ATOM     25  C   UNL     1      -4.197  -0.267  25.171  0.00  0.00    +0.241 C 
ATOM     26  O   UNL     1      -4.604  -0.647  24.561  0.00  0.00    -0.273 OA
ATOM     27  N   UNL     1      -4.367   0.520  25.353  0.00  0.00    -0.201 NA
BRANCH  27  28
ATOM     28  C   UNL     1      -4.942   0.927  24.926  0.00  0.00    +0.141 C 
BRANCH  28  29
ATOM     29  C   UNL     1      -5.082   1.726  25.078  0.00  0.00    -0.000 A 
ATOM     30  C   UNL     1      -4.627   2.303  24.704  0.00  0.00    -0.000 A 
ATOM     31  C   UNL     1      -4.767   3.101  24.857  0.00  0.00    +0.029 A 
ATOM     32  C   UNL     1      -5.362   3.323  25.384  0.00  0.00    +0.140 A 
ATOM     33  F   UNL     1      -5.502   4.121  25.536  0.00  0.00    -0.204 F 
ATOM     34  C   UNL     1      -5.817   2.745  25.758  0.00  0.00    +0.029 A 
ATOM     35  C   UNL     1      -5.677   1.946  25.605  0.00  0.00    -0.000 A 
ENDBRANCH  28  29
ENDBRANCH  27  28
ENDBRANCH   2  25
ENDBRANCH   3   2
TORSDOF 6
ENDMDL
MODEL 10
REMARK VINA RESULT:     -10.7      2.621      4.696
REMARK  Name = 
REMARK  6 active torsions:
REMARK  status: ('A' for Active; 'I' for Inactive)
REMARK    1  A    between atoms: C_2  and  C_3
REMARK    2  A    between atoms: C_2  and  C_25
REMARK    3  A    between atoms: C_10  and  N_11
REMARK    4  A    between atoms: C_12  and  C_14
REMARK    5  A    between atoms: N_27  and  C_28
REMARK    6  A    between atoms: C_28  and  C_29
REMARK                            x       y       z     vdW  Elec       q    Type
REMARK                         _______ _______ _______ _____ _____    ______ ____
ROOT
ATOM      3  C   UNL     1      -1.702  -1.123  24.678  0.00  0.00    +0.039 C 
ATOM      4  C   UNL     1      -2.214  -1.720  24.424  0.00  0.00    +0.003 C 
ATOM      5  C   UNL     1      -3.027  -1.586  24.412  0.00  0.00    +0.000 C 
ATOM      6  C   UNL     1      -3.330  -0.858  24.652  0.00  0.00    +0.002 C 
ATOM      7  C   UNL     1      -3.841  -1.453  24.399  0.00  0.00    +0.000 C 
ATOM      8  C   UNL     1      -4.144  -0.724  24.639  0.00  0.00    +0.002 C 
ATOM      9  C   UNL     1      -4.446   0.004  24.880  0.00  0.00    +0.022 C 
ATOM     10  C   UNL     1      -3.934   0.601  25.133  0.00  0.00    +0.096 C 
ATOM     20  C   UNL     1      -3.120   0.467  25.146  0.00  0.00    +0.022 C 
ATOM     21  C   UNL     1      -2.609   1.063  25.399  0.00  0.00    +0.002 C 
ATOM     22  C   UNL     1      -2.817  -0.262  24.905  0.00  0.00    +0.032 C 
ATOM     23  C   UNL     1      -2.004  -0.395  24.918  0.00  0.00    +0.152 C 
ATOM     24  O   UNL     1      -1.492   0.201  25.171  0.00  0.00    -0.223 OA
ENDROOT
BRANCH  10  11
ATOM     11  N   UNL     1      -4.237   1.330  25.373  0.00  0.00    -0.202 NA
ATOM     12  C   UNL     1      -4.743   1.750  24.877  0.00  0.00    +0.282 C 
ATOM     13  O   UNL     1      -4.947   1.442  24.138  0.00  0.00    -0.267 OA
BRANCH  12  14
ATOM     14  C   UNL     1      -5.046   2.479  25.117  0.00  0.00    +0.136 A 
ATOM     15  N   UNL     1      -4.643   3.175  24.934  0.00  0.00    -0.239 NA
ATOM     16  C   UNL     1      -4.946   3.904  25.174  0.00  0.00    +0.099 A 
ATOM     17  C   UNL     1      -5.653   3.936  25.598  0.00  0.00    +0.021 A 
ATOM     18  C   UNL     1      -6.057   3.240  25.782  0.00  0.00    +0.003 A 
ATOM     19  C   UNL     1      -5.753   2.512  25.541  0.00  0.00    +0.024 A 
ENDBRANCH  12  14
ENDBRANCH  10  11
BRANCH   3   2
ATOM      1  C   UNL     1      -0.506  -1.422  25.403  0.00  0.00    +0.010 C 
ATOM      2  C   UNL     1      -0.887  -1.257  24.690  0.00  0.00    +0.081 C 
BRANCH   2  25
ATOM     25  C   UNL     1      -0.454  -1.227  23.989  0.00  0.00    +0.241 C 
ATOM     26  O   UNL     1      -0.584  -1.789  23.398  0.00  0.00    -0.273 OA
ATOM     27  N   UNL     1       0.109  -0.634  23.877  0.00  0.00    -0.201 NA
BRANCH  27  28
ATOM     28  C   UNL     1       0.542  -0.603  23.176  0.00  0.00    +0.141 C 
BRANCH  28  29
ATOM     29  C   UNL     1       1.198  -0.106  23.117  0.00  0.00    -0.000 A 
ATOM     30  C   UNL     1       1.174   0.650  23.447  0.00  0.00    -0.000 A 
ATOM     31  C   UNL     1       1.830   1.146  23.388  0.00  0.00    +0.029 A 
ATOM     32  C   UNL     1       2.510   0.888  22.999  0.00  0.00    +0.140 A 
ATOM     33  F   UNL     1       3.166   1.384  22.939  0.00  0.00    -0.204 F 
ATOM     34  C   UNL     1       2.534   0.132  22.669  0.00  0.00    +0.029 A 
ATOM     35  C   UNL     1       1.877  -0.366  22.729  0.00  0.00    -0.000 A 
ENDBRANCH  28  29
ENDBRANCH  27  28
ENDBRANCH   2  25
ENDBRANCH   3   2
TORSDOF 6
ENDMDL
