MODEL 1
REMARK VINA RESULT:     -11.2      0.000      0.000
REMARK  Name = 
REMARK  6 active torsions:
REMARK  status: ('A' for Active; 'I' for Inactive)
REMARK    1  A    between atoms: C_5  and  C_6
REMARK    2  A    between atoms: C_6  and  C_7
REMARK    3  A    between atoms: C_10  and  C_12
REMARK    4  A    between atoms: C_19  and  C_20
REMARK    5  A    between atoms: C_20  and  N_21
REMARK    6  A    between atoms: N_21  and  C_22
REMARK                            x       y       z     vdW  Elec       q    Type
REMARK                         _______ _______ _______ _____ _____    ______ ____
ROOT
ATOM      1  O   UNL     1      -4.971   3.924  26.100  0.00  0.00    -0.220 OA
ATOM      2  C   UNL     1      -4.924   3.217  25.676  0.00  0.00    +0.180 C 
ATOM      3  C   UNL     1      -5.588   2.733  25.606  0.00  0.00    +0.038 C 
ATOM      4  C   UNL     1      -5.542   2.027  25.183  0.00  0.00    +0.033 C 
ATOM      5  C   UNL     1      -4.830   1.805  24.830  0.00  0.00    +0.121 C 
ATOM     18  O   UNL     1      -4.166   2.288  24.900  0.00  0.00    -0.354 OA
ATOM     19  C   UNL     1      -4.213   2.994  25.323  0.00  0.00    +0.163 C 
ENDROOT
BRANCH   5   6
ATOM      6  C   UNL     1      -4.783   1.098  24.406  0.00  0.00    +0.079 C 
BRANCH   6   7
ATOM      7  C   UNL     1      -4.434   0.433  24.749  0.00  0.00    +0.103 A 
ATOM      8  N   UNL     1      -4.585   0.143  25.506  0.00  0.00    -0.081 NA
ATOM      9  O   UNL     1      -4.117  -0.527  25.620  0.00  0.00    -0.352 OA
ATOM     10  C   UNL     1      -3.677  -0.651  24.934  0.00  0.00    +0.194 A 
ATOM     11  C   UNL     1      -3.874  -0.057  24.395  0.00  0.00    +0.060 A 
BRANCH  10  12
ATOM     12  C   UNL     1      -3.137  -1.261  24.808  0.00  0.00    +0.118 A 
ATOM     13  N   UNL     1      -2.327  -1.101  24.804  0.00  0.00    -0.241 NA
ATOM     14  C   UNL     1      -1.787  -1.710  24.678  0.00  0.00    +0.099 A 
ATOM     15  C   UNL     1      -2.055  -2.480  24.554  0.00  0.00    +0.021 A 
ATOM     16  C   UNL     1      -2.864  -2.641  24.557  0.00  0.00    +0.003 A 
ATOM     17  C   UNL     1      -3.405  -2.032  24.684  0.00  0.00    +0.022 A 
ENDBRANCH  10  12
ENDBRANCH   6   7
ENDBRANCH   5   6
BRANCH  19  20
ATOM     20  C   UNL     1      -3.548   3.478  25.394  0.00  0.00    +0.121 C 
BRANCH  20  21
ATOM     21  N   UNL     1      -2.938   3.423  24.841  0.00  0.00    -0.217 NA
BRANCH  21  22
ATOM     22  C   UNL     1      -2.219   3.805  24.981  0.00  0.00    +0.076 C 
ATOM     23  C   UNL     1      -1.541   3.362  25.139  0.00  0.00    +0.036 C 
ATOM     24  C   UNL     1      -0.823   3.744  25.279  0.00  0.00    +0.090 C 
ATOM     25  N   UNL     1      -0.783   4.568  25.260  0.00  0.00    -0.218 NA
ATOM     26  C   UNL     1      -1.462   5.010  25.102  0.00  0.00    +0.090 C 
ATOM     27  C   UNL     1      -2.180   4.629  24.962  0.00  0.00    +0.036 C 
ENDBRANCH  21  22
ENDBRANCH  20  21
ENDBRANCH  19  20
TORSDOF 6
ENDMDL
MODEL 2
REMARK VINA RESULT:     -10.7      1.248      4.376
REMARK  Name = 
REMARK  6 active torsions:
REMARK  status: ('A' for Active; 'I' for Inactive)
REMARK    1  A    between atoms: C_5  and  C_6
REMARK    2  A    between atoms: C_6  and  C_7
REMARK    3  A    between atoms: C_10  and  C_12
REMARK    4  A    between atoms: C_19  and  C_20
REMARK    5  A    between atoms: C_20  and  N_21
REMARK    6  A    between atoms: N_21  and  C_22
REMARK                            x       y       z     vdW  Elec       q    Type
REMARK                         _______ _______ _______ _____ _____    ______ ____
ROOT
ATOM      1  O   UNL     1      -6.090   1.245  25.737  0.00  0.00    -0.220 OA
ATOM      2  C   UNL     1      -5.533   1.731  25.370  0.00  0.00    +0.180 C 
ATOM      3  C   UNL     1      -5.623   2.550  25.389  0.00  0.00    +0.038 C 
ATOM      4  C   UNL     1      -5.066   3.035  25.022  0.00  0.00    +0.033 C 
ATOM      5  C   UNL     1      -4.419   2.700  24.636  0.00  0.00    +0.121 C 
ATOM     18  O   UNL     1      -4.329   1.882  24.616  0.00  0.00    -0.354 OA
ATOM     19  C   UNL     1      -4.886   1.396  24.983  0.00  0.00    +0.163 C 
ENDROOT
BRANCH   5   6
ATOM      6  C   UNL     1      -3.862   3.186  24.268  0.00  0.00    +0.079 C 
BRANCH   6   7
ATOM      7  C   UNL     1      -3.148   3.355  24.646  0.00  0.00    +0.103 A 
ATOM      8  N   UNL     1      -2.976   4.038  25.075  0.00  0.00    -0.081 NA
ATOM      9  O   UNL     1      -2.203   3.975  25.356  0.00  0.00    -0.352 OA
ATOM     10  C   UNL     1      -1.897   3.254  25.101  0.00  0.00    +0.194 A 
ATOM     11  C   UNL     1      -2.481   2.870  24.662  0.00  0.00    +0.060 A 
BRANCH  10  12
ATOM     12  C   UNL     1      -1.140   2.966  25.256  0.00  0.00    +0.118 A 
ATOM     13  N   UNL     1      -0.635   2.775  24.632  0.00  0.00    -0.241 NA
ATOM     14  C   UNL     1       0.122   2.487  24.788  0.00  0.00    +0.099 A 
ATOM     15  C   UNL     1       0.375   2.389  25.566  0.00  0.00    +0.021 A 
ATOM     16  C   UNL     1      -0.130   2.580  26.191  0.00  0.00    +0.003 A 
ATOM     17  C   UNL     1      -0.887   2.868  26.036  0.00  0.00    +0.022 A 
ENDBRANCH  10  12
ENDBRANCH   6   7
ENDBRANCH   5   6
BRANCH  19  20
ATOM     20  C   UNL     1      -4.795   0.576  24.964  0.00  0.00    +0.121 C 
BRANCH  20  21
ATOM     21  N   UNL     1      -4.131   0.243  24.606  0.00  0.00    -0.217 NA
BRANCH  21  22
ATOM     22  C   UNL     1      -4.010  -0.573  24.639  0.00  0.00    +0.076 C 
ATOM     23  C   UNL     1      -3.650  -0.910  25.300  0.00  0.00    +0.036 C 
ATOM     24  C   UNL     1      -3.529  -1.725  25.333  0.00  0.00    +0.090 C 
ATOM     25  N   UNL     1      -3.769  -2.204  24.705  0.00  0.00    -0.218 NA
ATOM     26  C   UNL     1      -4.129  -1.866  24.044  0.00  0.00    +0.090 C 
ATOM     27  C   UNL     1      -4.250  -1.051  24.011  0.00  0.00    +0.036 C 
ENDBRANCH  21  22
ENDBRANCH  20  21
ENDBRANCH  19  20
TORSDOF 6
ENDMDL
MODEL 3
REMARK VINA RESULT:     -10.5      1.519      3.069
REMARK  Name = 
REMARK  6 active torsions:
REMARK  status: ('A' for Active; 'I' for Inactive)
REMARK    1  A    between atoms: C_5  and  C_6
REMARK    2  A    between atoms: C_6  and  C_7
REMARK    3  A    between atoms: C_10  and  C_12
REMARK    4  A    between atoms: C_19  and  C_20
REMARK    5  A    between atoms: C_20  and  N_21
REMARK    6  A    between atoms: N_21  and  C_22
REMARK                            x       y       z     vdW  Elec       q    Type
REMARK                         _______ _______ _______ _____ _____    ______ ____
ROOT
ATOM      1  O   UNL     1      -1.763   4.283  25.786  0.00  0.00    -0.220 OA
ATOM      2  C   UNL     1      -1.561   3.557  25.448  0.00  0.00    +0.180 C 
ATOM      3  C   UNL     1      -0.768   3.352  25.358  0.00  0.00    +0.038 C 
ATOM      4  C   UNL     1      -0.564   2.627  25.021  0.00  0.00    +0.033 C 
ATOM      5  C   UNL     1      -1.156   2.109  24.773  0.00  0.00    +0.121 C 
ATOM     18  O   UNL     1      -1.949   2.314  24.862  0.00  0.00    -0.354 OA
ATOM     19  C   UNL     1      -2.152   3.039  25.200  0.00  0.00    +0.163 C 
ENDROOT
BRANCH   5   6
ATOM      6  C   UNL     1      -0.953   1.383  24.435  0.00  0.00    +0.079 C 
BRANCH   6   7
ATOM      7  C   UNL     1      -1.169   0.679  24.807  0.00  0.00    +0.103 A 
ATOM      8  N   UNL     1      -0.860   0.390  25.514  0.00  0.00    -0.081 NA
ATOM      9  O   UNL     1      -1.232  -0.327  25.682  0.00  0.00    -0.352 OA
ATOM     10  C   UNL     1      -1.772  -0.481  25.079  0.00  0.00    +0.194 A 
ATOM     11  C   UNL     1      -1.733   0.141  24.537  0.00  0.00    +0.060 A 
BRANCH  10  12
ATOM     12  C   UNL     1      -2.265  -1.140  25.024  0.00  0.00    +0.118 A 
ATOM     13  N   UNL     1      -2.021  -1.804  24.599  0.00  0.00    -0.241 NA
ATOM     14  C   UNL     1      -2.513  -2.463  24.545  0.00  0.00    +0.099 A 
ATOM     15  C   UNL     1      -3.250  -2.459  24.916  0.00  0.00    +0.021 A 
ATOM     16  C   UNL     1      -3.494  -1.796  25.342  0.00  0.00    +0.003 A 
ATOM     17  C   UNL     1      -3.002  -1.137  25.396  0.00  0.00    +0.022 A 
ENDBRANCH  10  12
ENDBRANCH   6   7
ENDBRANCH   5   6
BRANCH  19  20
ATOM     20  C   UNL     1      -2.946   3.245  25.290  0.00  0.00    +0.121 C 
BRANCH  20  21
ATOM     21  N   UNL     1      -3.512   2.938  24.775  0.00  0.00    -0.217 NA
BRANCH  21  22
ATOM     22  C   UNL     1      -4.305   2.907  25.003  0.00  0.00    +0.076 C 
ATOM     23  C   UNL     1      -4.741   2.217  24.885  0.00  0.00    +0.036 C 
ATOM     24  C   UNL     1      -5.533   2.186  25.114  0.00  0.00    +0.090 C 
ATOM     25  N   UNL     1      -5.889   2.846  25.461  0.00  0.00    -0.218 NA
ATOM     26  C   UNL     1      -5.452   3.535  25.578  0.00  0.00    +0.090 C 
ATOM     27  C   UNL     1      -4.660   3.566  25.350  0.00  0.00    +0.036 C 
ENDBRANCH  21  22
ENDBRANCH  20  21
ENDBRANCH  19  20
TORSDOF 6
ENDMDL
MODEL 4
REMARK VINA RESULT:     -10.3      1.872      4.108
REMARK  Name = 
REMARK  6 active torsions:
REMARK  status: ('A' for Active; 'I' for Inactive)
REMARK    1  A    between atoms: C_5  and  C_6
REMARK    2  A    between atoms: C_6  and  C_7
REMARK    3  A    between atoms: C_10  and  C_12
REMARK    4  A    between atoms: C_19  and  C_20
REMARK    5  A    between atoms: C_20  and  N_21
REMARK    6  A    between atoms: N_21  and  C_22
REMARK                            x       y       z     vdW  Elec       q    Type
REMARK                         _______ _______ _______ _____ _____    ______ ____
ROOT
ATOM      1  O   UNL     1      -0.361  -1.597  24.375  0.00  0.00    -0.220 OA
ATOM      2  C   UNL     1      -1.136  -1.498  24.641  0.00  0.00    +0.180 C 
ATOM      3  C   UNL     1      -1.675  -2.119  24.583  0.00  0.00    +0.038 C 
ATOM      4  C   UNL     1      -2.449  -2.020  24.848  0.00  0.00    +0.033 C 
ATOM      5  C   UNL     1      -2.684  -1.298  25.172  0.00  0.00    +0.121 C 
ATOM     18  O   UNL     1      -2.145  -0.678  25.231  0.00  0.00    -0.354 OA
ATOM     19  C   UNL     1      -1.371  -0.777  24.966  0.00  0.00    +0.163 C 
ENDROOT
BRANCH   5   6
ATOM      6  C   UNL     1      -3.459  -1.199  25.438  0.00  0.00    +0.079 C 
BRANCH   6   7
ATOM      7  C   UNL     1      -3.938  -0.616  25.104  0.00  0.00    +0.103 A 
ATOM      8  N   UNL     1      -4.341  -0.671  24.387  0.00  0.00    -0.081 NA
ATOM      9  O   UNL     1      -4.750   0.035  24.268  0.00  0.00    -0.352 OA
ATOM     10  C   UNL     1      -4.601   0.527  24.913  0.00  0.00    +0.194 A 
ATOM     11  C   UNL     1      -4.100   0.125  25.430  0.00  0.00    +0.060 A 
BRANCH  10  12
ATOM     12  C   UNL     1      -4.901   1.288  25.022  0.00  0.00    +0.118 A 
ATOM     13  N   UNL     1      -5.601   1.399  25.444  0.00  0.00    -0.241 NA
ATOM     14  C   UNL     1      -5.901   2.159  25.553  0.00  0.00    +0.099 A 
ATOM     15  C   UNL     1      -5.501   2.809  25.241  0.00  0.00    +0.021 A 
ATOM     16  C   UNL     1      -4.801   2.699  24.818  0.00  0.00    +0.003 A 
ATOM     17  C   UNL     1      -4.501   1.938  24.709  0.00  0.00    +0.022 A 
ENDBRANCH  10  12
ENDBRANCH   6   7
ENDBRANCH   5   6
BRANCH  19  20
ATOM     20  C   UNL     1      -0.831  -0.155  25.024  0.00  0.00    +0.121 C 
BRANCH  20  21
ATOM     21  N   UNL     1      -1.053   0.606  24.798  0.00  0.00    -0.217 NA
BRANCH  21  22
ATOM     22  C   UNL     1      -0.563   1.248  24.972  0.00  0.00    +0.076 C 
ATOM     23  C   UNL     1      -0.577   1.584  25.726  0.00  0.00    +0.036 C 
ATOM     24  C   UNL     1      -0.087   2.225  25.900  0.00  0.00    +0.090 C 
ATOM     25  N   UNL     1       0.415   2.530  25.320  0.00  0.00    -0.218 NA
ATOM     26  C   UNL     1       0.428   2.193  24.567  0.00  0.00    +0.090 C 
ATOM     27  C   UNL     1      -0.062   1.552  24.393  0.00  0.00    +0.036 C 
ENDBRANCH  21  22
ENDBRANCH  20  21
ENDBRANCH  19  20
TORSDOF 6
ENDMDL
MODEL 5
REMARK VINA RESULT:     -10.2      1.694      5.276
REMARK  Name = 
REMARK  6 active torsions:
REMARK  status: ('A' for Active; 'I' for Inactive)
REMARK    1  A    between atoms: C_5  and  C_6
REMARK    2  A    between atoms: C_6  and  C_7
REMARK    3  A    between atoms: C_10  and  C_12
REMARK    4  A    between atoms: C_19  and  C_20
REMARK    5  A    between atoms: C_20  and  N_21
REMARK    6  A    between atoms: N_21  and  C_22
REMARK                            x       y       z     vdW  Elec       q    Type
REMARK                         _______ _______ _______ _____ _____    ______ ____
ROOT
ATOM      1  O   UNL     1      -0.153  -0.695  23.778  0.00  0.00    -0.220 OA
ATOM      2  C   UNL     1      -0.445  -0.021  24.155  0.00  0.00    +0.180 C 
ATOM      3  C   UNL     1      -0.003   0.674  24.157  0.00  0.00    +0.038 C 
ATOM      4  C   UNL     1      -0.294   1.348  24.533  0.00  0.00    +0.033 C 
ATOM      5  C   UNL     1      -1.029   1.325  24.908  0.00  0.00    +0.121 C 
ATOM     18  O   UNL     1      -1.471   0.629  24.906  0.00  0.00    -0.354 OA
ATOM     19  C   UNL     1      -1.180  -0.044  24.530  0.00  0.00    +0.163 C 
ENDROOT
BRANCH   5   6
ATOM      6  C   UNL     1      -1.321   1.999  25.285  0.00  0.00    +0.079 C 
BRANCH   6   7
ATOM      7  C   UNL     1      -2.012   2.357  25.012  0.00  0.00    +0.103 A 
ATOM      8  N   UNL     1      -2.092   2.792  24.316  0.00  0.00    -0.081 NA
ATOM      9  O   UNL     1      -2.875   3.047  24.262  0.00  0.00    -0.352 OA
ATOM     10  C   UNL     1      -3.279   2.770  24.924  0.00  0.00    +0.194 A 
ATOM     11  C   UNL     1      -2.746   2.343  25.389  0.00  0.00    +0.060 A 
BRANCH  10  12
ATOM     12  C   UNL     1      -4.076   2.896  25.094  0.00  0.00    +0.118 A 
ATOM     13  N   UNL     1      -4.314   3.596  25.461  0.00  0.00    -0.241 NA
ATOM     14  C   UNL     1      -5.111   3.722  25.631  0.00  0.00    +0.099 A 
ATOM     15  C   UNL     1      -5.671   3.149  25.434  0.00  0.00    +0.021 A 
ATOM     16  C   UNL     1      -5.433   2.449  25.067  0.00  0.00    +0.003 A 
ATOM     17  C   UNL     1      -4.636   2.323  24.898  0.00  0.00    +0.022 A 
ENDBRANCH  10  12
ENDBRANCH   6   7
ENDBRANCH   5   6
BRANCH  19  20
ATOM     20  C   UNL     1      -1.622  -0.740  24.528  0.00  0.00    +0.121 C 
BRANCH  20  21
ATOM     21  N   UNL     1      -2.377  -0.750  24.860  0.00  0.00    -0.217 NA
BRANCH  21  22
ATOM     22  C   UNL     1      -2.903  -1.358  24.672  0.00  0.00    +0.076 C 
ATOM     23  C   UNL     1      -2.772  -2.120  24.961  0.00  0.00    +0.036 C 
ATOM     24  C   UNL     1      -3.298  -2.728  24.774  0.00  0.00    +0.090 C 
ATOM     25  N   UNL     1      -3.954  -2.574  24.298  0.00  0.00    -0.218 NA
ATOM     26  C   UNL     1      -4.084  -1.812  24.009  0.00  0.00    +0.090 C 
ATOM     27  C   UNL     1      -3.559  -1.204  24.197  0.00  0.00    +0.036 C 
ENDBRANCH  21  22
ENDBRANCH  20  21
ENDBRANCH  19  20
TORSDOF 6
ENDMDL
MODEL 6
REMARK VINA RESULT:     -10.2      1.758      4.630
REMARK  Name = 
REMARK  6 active torsions:
REMARK  status: ('A' for Active; 'I' for Inactive)
REMARK    1  A    between atoms: C_5  and  C_6
REMARK    2  A    between atoms: C_6  and  C_7
REMARK    3  A    between atoms: C_10  and  C_12
REMARK    4  A    between atoms: C_19  and  C_20
REMARK    5  A    between atoms: C_20  and  N_21
REMARK    6  A    between atoms: N_21  and  C_22
REMARK                            x       y       z     vdW  Elec       q    Type
REMARK                         _______ _______ _______ _____ _____    ______ ____
ROOT
ATOM      1  O   UNL     1       0.558   2.404  26.087  0.00  0.00    -0.220 OA
ATOM      2  C   UNL     1      -0.123   2.714  25.737  0.00  0.00    +0.180 C 
ATOM      3  C   UNL     1      -0.256   3.527  25.743  0.00  0.00    +0.038 C 
ATOM      4  C   UNL     1      -0.936   3.837  25.394  0.00  0.00    +0.033 C 
ATOM      5  C   UNL     1      -1.483   3.332  25.039  0.00  0.00    +0.121 C 
ATOM     18  O   UNL     1      -1.350   2.518  25.034  0.00  0.00    -0.354 OA
ATOM     19  C   UNL     1      -0.670   2.208  25.383  0.00  0.00    +0.163 C 
ENDROOT
BRANCH   5   6
ATOM      6  C   UNL     1      -2.163   3.641  24.690  0.00  0.00    +0.079 C 
BRANCH   6   7
ATOM      7  C   UNL     1      -2.895   3.554  25.062  0.00  0.00    +0.103 A 
ATOM      8  N   UNL     1      -3.157   3.976  25.720  0.00  0.00    -0.081 NA
ATOM      9  O   UNL     1      -3.917   3.713  25.906  0.00  0.00    -0.352 OA
ATOM     10  C   UNL     1      -4.123   3.128  25.363  0.00  0.00    +0.194 A 
ATOM     11  C   UNL     1      -3.492   3.030  24.841  0.00  0.00    +0.060 A 
BRANCH  10  12
ATOM     12  C   UNL     1      -4.836   2.714  25.345  0.00  0.00    +0.118 A 
ATOM     13  N   UNL     1      -5.481   2.981  25.786  0.00  0.00    -0.241 NA
ATOM     14  C   UNL     1      -6.193   2.566  25.767  0.00  0.00    +0.099 A 
ATOM     15  C   UNL     1      -6.263   1.885  25.308  0.00  0.00    +0.021 A 
ATOM     16  C   UNL     1      -5.618   1.617  24.867  0.00  0.00    +0.003 A 
ATOM     17  C   UNL     1      -4.906   2.031  24.885  0.00  0.00    +0.022 A 
ENDBRANCH  10  12
ENDBRANCH   6   7
ENDBRANCH   5   6
BRANCH  19  20
ATOM     20  C   UNL     1      -0.537   1.394  25.377  0.00  0.00    +0.121 C 
BRANCH  20  21
ATOM     21  N   UNL     1      -1.033   0.899  24.944  0.00  0.00    -0.217 NA
BRANCH  21  22
ATOM     22  C   UNL     1      -0.937   0.079  24.985  0.00  0.00    +0.076 C 
ATOM     23  C   UNL     1      -1.288  -0.346  25.600  0.00  0.00    +0.036 C 
ATOM     24  C   UNL     1      -1.192  -1.164  25.641  0.00  0.00    +0.090 C 
ATOM     25  N   UNL     1      -0.746  -1.557  25.068  0.00  0.00    -0.218 NA
ATOM     26  C   UNL     1      -0.396  -1.131  24.454  0.00  0.00    +0.090 C 
ATOM     27  C   UNL     1      -0.492  -0.313  24.413  0.00  0.00    +0.036 C 
ENDBRANCH  21  22
ENDBRANCH  20  21
ENDBRANCH  19  20
TORSDOF 6
ENDMDL
MODEL 7
REMARK VINA RESULT:     -10.1      1.916      4.425
REMARK  Name = 
REMARK  6 active torsions:
REMARK  status: ('A' for Active; 'I' for Inactive)
REMARK    1  A    between atoms: C_5  and  C_6
REMARK    2  A    between atoms: C_6  and  C_7
REMARK    3  A    between atoms: C_10  and  C_12
REMARK    4  A    between atoms: C_19  and  C_20
REMARK    5  A    between atoms: C_20  and  N_21
REMARK    6  A    between atoms: N_21  and  C_22
REMARK                            x       y       z     vdW  Elec       q    Type
REMARK                         _______ _______ _______ _____ _____    ______ ____
ROOT
ATOM      1  O   UNL     1      -4.694  -1.701  23.889  0.00  0.00    -0.220 OA
ATOM      2  C   UNL     1      -3.971  -1.590  24.271  0.00  0.00    +0.180 C 
ATOM      3  C   UNL     1      -3.423  -2.205  24.302  0.00  0.00    +0.038 C 
ATOM      4  C   UNL     1      -2.699  -2.095  24.683  0.00  0.00    +0.033 C 
ATOM      5  C   UNL     1      -2.526  -1.368  25.033  0.00  0.00    +0.121 C 
ATOM     18  O   UNL     1      -3.074  -0.754  25.002  0.00  0.00    -0.354 OA
ATOM     19  C   UNL     1      -3.797  -0.864  24.621  0.00  0.00    +0.163 C 
ENDROOT
BRANCH   5   6
ATOM      6  C   UNL     1      -1.802  -1.257  25.414  0.00  0.00    +0.079 C 
BRANCH   6   7
ATOM      7  C   UNL     1      -1.279  -0.678  25.147  0.00  0.00    +0.103 A 
ATOM      8  N   UNL     1      -0.730  -0.764  24.538  0.00  0.00    -0.081 NA
ATOM      9  O   UNL     1      -0.325  -0.049  24.457  0.00  0.00    -0.352 OA
ATOM     10  C   UNL     1      -0.624   0.478  25.015  0.00  0.00    +0.194 A 
ATOM     11  C   UNL     1      -1.213   0.090  25.442  0.00  0.00    +0.060 A 
BRANCH  10  12
ATOM     12  C   UNL     1      -0.377   1.257  25.128  0.00  0.00    +0.118 A 
ATOM     13  N   UNL     1       0.035   1.650  24.531  0.00  0.00    -0.241 NA
ATOM     14  C   UNL     1       0.281   2.429  24.643  0.00  0.00    +0.099 A 
ATOM     15  C   UNL     1       0.117   2.815  25.353  0.00  0.00    +0.021 A 
ATOM     16  C   UNL     1      -0.294   2.422  25.951  0.00  0.00    +0.003 A 
ATOM     17  C   UNL     1      -0.541   1.644  25.839  0.00  0.00    +0.022 A 
ENDBRANCH  10  12
ENDBRANCH   6   7
ENDBRANCH   5   6
BRANCH  19  20
ATOM     20  C   UNL     1      -4.345  -0.249  24.590  0.00  0.00    +0.121 C 
BRANCH  20  21
ATOM     21  N   UNL     1      -4.335   0.342  25.164  0.00  0.00    -0.217 NA
BRANCH  21  22
ATOM     22  C   UNL     1      -4.744   1.048  25.038  0.00  0.00    +0.076 C 
ATOM     23  C   UNL     1      -4.398   1.651  24.594  0.00  0.00    +0.036 C 
ATOM     24  C   UNL     1      -4.806   2.357  24.467  0.00  0.00    +0.090 C 
ATOM     25  N   UNL     1      -5.561   2.459  24.786  0.00  0.00    -0.218 NA
ATOM     26  C   UNL     1      -5.907   1.856  25.230  0.00  0.00    +0.090 C 
ATOM     27  C   UNL     1      -5.498   1.150  25.356  0.00  0.00    +0.036 C 
ENDBRANCH  21  22
ENDBRANCH  20  21
ENDBRANCH  19  20
TORSDOF 6
ENDMDL
MODEL 8
REMARK VINA RESULT:      -8.1     16.244     18.990
REMARK  Name = 
REMARK  6 active torsions:
REMARK  status: ('A' for Active; 'I' for Inactive)
REMARK    1  A    between atoms: C_5  and  C_6
REMARK    2  A    between atoms: C_6  and  C_7
REMARK    3  A    between atoms: C_10  and  C_12
REMARK    4  A    between atoms: C_19  and  C_20
REMARK    5  A    between atoms: C_20  and  N_21
REMARK    6  A    between atoms: N_21  and  C_22
REMARK                            x       y       z     vdW  Elec       q    Type
REMARK                         _______ _______ _______ _____ _____    ______ ____
ROOT
ATOM      1  O   UNL     1      14.888   6.417  20.930  0.00  0.00    -0.220 OA
ATOM      2  C   UNL     1      14.770   6.950  20.310  0.00  0.00    +0.180 C 
ATOM      3  C   UNL     1      15.384   7.117  19.787  0.00  0.00    +0.038 C 
ATOM      4  C   UNL     1      15.266   7.649  19.168  0.00  0.00    +0.033 C 
ATOM      5  C   UNL     1      14.532   8.014  19.074  0.00  0.00    +0.121 C 
ATOM     18  O   UNL     1      13.918   7.847  19.597  0.00  0.00    -0.354 OA
ATOM     19  C   UNL     1      14.036   7.315  20.216  0.00  0.00    +0.163 C 
ENDROOT
BRANCH   5   6
ATOM      6  C   UNL     1      14.414   8.547  18.454  0.00  0.00    +0.079 C 
BRANCH   6   7
ATOM      7  C   UNL     1      13.890   8.361  17.844  0.00  0.00    +0.103 A 
ATOM      8  N   UNL     1      13.990   7.764  17.284  0.00  0.00    -0.081 NA
ATOM      9  O   UNL     1      13.336   7.773  16.781  0.00  0.00    -0.352 OA
ATOM     10  C   UNL     1      12.831   8.375  17.030  0.00  0.00    +0.194 A 
ATOM     11  C   UNL     1      13.174   8.739  17.688  0.00  0.00    +0.060 A 
BRANCH  10  12
ATOM     12  C   UNL     1      12.111   8.579  16.684  0.00  0.00    +0.118 A 
ATOM     13  N   UNL     1      12.093   8.881  15.916  0.00  0.00    -0.241 NA
ATOM     14  C   UNL     1      11.373   9.085  15.570  0.00  0.00    +0.099 A 
ATOM     15  C   UNL     1      10.671   8.988  15.991  0.00  0.00    +0.021 A 
ATOM     16  C   UNL     1      10.688   8.686  16.759  0.00  0.00    +0.003 A 
ATOM     17  C   UNL     1      11.408   8.482  17.105  0.00  0.00    +0.022 A 
ENDBRANCH  10  12
ENDBRANCH   6   7
ENDBRANCH   5   6
BRANCH  19  20
ATOM     20  C   UNL     1      13.421   7.147  20.740  0.00  0.00    +0.121 C 
BRANCH  20  21
ATOM     21  N   UNL     1      12.664   6.994  20.451  0.00  0.00    -0.217 NA
BRANCH  21  22
ATOM     22  C   UNL     1      12.014   7.023  20.960  0.00  0.00    +0.076 C 
ATOM     23  C   UNL     1      11.700   7.752  21.186  0.00  0.00    +0.036 C 
ATOM     24  C   UNL     1      11.051   7.781  21.694  0.00  0.00    +0.090 C 
ATOM     25  N   UNL     1      10.716   7.082  21.977  0.00  0.00    -0.218 NA
ATOM     26  C   UNL     1      11.031   6.354  21.751  0.00  0.00    +0.090 C 
ATOM     27  C   UNL     1      11.680   6.324  21.242  0.00  0.00    +0.036 C 
ENDBRANCH  21  22
ENDBRANCH  20  21
ENDBRANCH  19  20
TORSDOF 6
ENDMDL
