MODEL 1
REMARK VINA RESULT:     -13.0      0.000      0.000
REMARK  Name = 
REMARK  4 active torsions:
REMARK  status: ('A' for Active; 'I' for Inactive)
REMARK    1  A    between atoms: O_2  and  C_3
REMARK    2  A    between atoms: C_8  and  C_9
REMARK    3  A    between atoms: C_12  and  C_14
REMARK    4  A    between atoms: C_19  and  C_21
REMARK                            x       y       z     vdW  Elec       q    Type
REMARK                         _______ _______ _______ _____ _____    ______ ____
ROOT
ATOM      9  C   UNL     1      -3.738  -0.453  24.179  0.00  0.00    +0.252 A 
ATOM     10  N   UNL     1      -3.436  -0.008  23.554  0.00  0.00    -0.107 NA
ATOM     11  N   UNL     1      -3.668   0.776  23.661  0.00  0.00    -0.111 NA
ATOM     12  C   UNL     1      -4.114   0.816  24.354  0.00  0.00    +0.228 A 
ATOM     13  O   UNL     1      -4.158   0.057  24.674  0.00  0.00    -0.419 OA
ENDROOT
BRANCH  12  14
ATOM     14  C   UNL     1      -4.457   1.496  24.671  0.00  0.00    +0.100 C 
ATOM     15  C   UNL     1      -5.260   1.607  24.826  0.00  0.00    +0.033 C 
ATOM     16  C   UNL     1      -5.357   2.364  25.140  0.00  0.00    +0.094 C 
ATOM     17  N   UNL     1      -4.615   2.721  25.179  0.00  0.00    -0.276 N 
ATOM     18  C   UNL     1      -4.058   2.184  24.889  0.00  0.00    +0.103 C 
ATOM     19  C   UNL     1      -4.456   3.481  25.458  0.00  0.00    +0.249 C 
ATOM     20  O   UNL     1      -5.072   3.956  25.732  0.00  0.00    -0.270 OA
BRANCH  19  21
ATOM     21  C   UNL     1      -3.682   3.765  25.464  0.00  0.00    +0.054 A 
ATOM     22  C   UNL     1      -3.228   3.714  26.151  0.00  0.00    +0.005 A 
ATOM     23  C   UNL     1      -2.454   3.998  26.157  0.00  0.00    +0.000 A 
ATOM     24  C   UNL     1      -2.133   4.333  25.474  0.00  0.00    +0.000 A 
ATOM     25  C   UNL     1      -2.585   4.384  24.787  0.00  0.00    +0.000 A 
ATOM     26  C   UNL     1      -3.361   4.100  24.781  0.00  0.00    +0.005 A 
ENDBRANCH  19  21
ENDBRANCH  12  14
BRANCH   9   8
ATOM      3  C   UNL     1      -2.978  -1.546  24.695  0.00  0.00    +0.143 A 
ATOM      4  C   UNL     1      -2.878  -2.358  24.807  0.00  0.00    +0.037 A 
ATOM      5  C   UNL     1      -3.439  -2.887  24.514  0.00  0.00    +0.003 A 
ATOM      6  C   UNL     1      -4.100  -2.604  24.108  0.00  0.00    +0.000 A 
ATOM      7  C   UNL     1      -4.200  -1.792  23.997  0.00  0.00    +0.008 A 
ATOM      8  C   UNL     1      -3.638  -1.264  24.291  0.00  0.00    +0.089 A 
BRANCH   3   2
ATOM      1  C   UNL     1      -1.739  -1.302  25.364  0.00  0.00    +0.252 C 
ATOM      2  O   UNL     1      -2.416  -1.018  24.989  0.00  0.00    -0.471 OA
ENDBRANCH   3   2
ENDBRANCH   9   8
TORSDOF 4
ENDMDL
MODEL 2
REMARK VINA RESULT:     -12.1      1.740      5.444
REMARK  Name = 
REMARK  4 active torsions:
REMARK  status: ('A' for Active; 'I' for Inactive)
REMARK    1  A    between atoms: O_2  and  C_3
REMARK    2  A    between atoms: C_8  and  C_9
REMARK    3  A    between atoms: C_12  and  C_14
REMARK    4  A    between atoms: C_19  and  C_21
REMARK                            x       y       z     vdW  Elec       q    Type
REMARK                         _______ _______ _______ _____ _____    ______ ____
ROOT
ATOM      9  C   UNL     1      -1.479   2.663  24.376  0.00  0.00    +0.252 A 
ATOM     10  N   UNL     1      -1.677   2.452  23.604  0.00  0.00    -0.107 NA
ATOM     11  N   UNL     1      -1.562   1.639  23.523  0.00  0.00    -0.111 NA
ATOM     12  C   UNL     1      -1.293   1.348  24.247  0.00  0.00    +0.228 A 
ATOM     13  O   UNL     1      -1.241   1.981  24.774  0.00  0.00    -0.419 OA
ENDROOT
BRANCH  12  14
ATOM     14  C   UNL     1      -1.107   0.562  24.414  0.00  0.00    +0.100 C 
ATOM     15  C   UNL     1      -0.348   0.245  24.473  0.00  0.00    +0.033 C 
ATOM     16  C   UNL     1      -0.420  -0.559  24.648  0.00  0.00    +0.094 C 
ATOM     17  N   UNL     1      -1.223  -0.738  24.696  0.00  0.00    -0.276 N 
ATOM     18  C   UNL     1      -1.648  -0.046  24.552  0.00  0.00    +0.103 C 
ATOM     19  C   UNL     1      -1.546  -1.480  24.860  0.00  0.00    +0.249 C 
ATOM     20  O   UNL     1      -1.049  -2.125  24.993  0.00  0.00    -0.270 OA
BRANCH  19  21
ATOM     21  C   UNL     1      -2.364  -1.576  24.891  0.00  0.00    +0.054 A 
ATOM     22  C   UNL     1      -2.778  -1.373  25.575  0.00  0.00    +0.005 A 
ATOM     23  C   UNL     1      -3.597  -1.469  25.606  0.00  0.00    +0.000 A 
ATOM     24  C   UNL     1      -4.002  -1.769  24.952  0.00  0.00    +0.000 A 
ATOM     25  C   UNL     1      -3.588  -1.973  24.268  0.00  0.00    +0.000 A 
ATOM     26  C   UNL     1      -2.769  -1.876  24.237  0.00  0.00    +0.005 A 
ENDBRANCH  19  21
ENDBRANCH  12  14
BRANCH   9   8
ATOM      3  C   UNL     1      -2.210   3.696  25.039  0.00  0.00    +0.143 A 
ATOM      4  C   UNL     1      -2.244   4.456  25.358  0.00  0.00    +0.037 A 
ATOM      5  C   UNL     1      -1.579   4.944  25.333  0.00  0.00    +0.003 A 
ATOM      6  C   UNL     1      -0.881   4.671  24.988  0.00  0.00    +0.000 A 
ATOM      7  C   UNL     1      -0.847   3.911  24.669  0.00  0.00    +0.008 A 
ATOM      8  C   UNL     1      -1.512   3.424  24.695  0.00  0.00    +0.089 A 
BRANCH   3   2
ATOM      1  C   UNL     1      -3.579   3.486  25.394  0.00  0.00    +0.252 C 
ATOM      2  O   UNL     1      -2.876   3.208  25.065  0.00  0.00    -0.471 OA
ENDBRANCH   3   2
ENDBRANCH   9   8
TORSDOF 4
ENDMDL
