REMARK  Name = 
REMARK  4 active torsions:
REMARK  status: ('A' for Active; 'I' for Inactive)
REMARK    1  A    between atoms: C_1  and  N_2
REMARK    2  A    between atoms: C_1  and  C_16
REMARK    3  A    between atoms: C_7  and  O_9
REMARK    4  A    between atoms: O_9  and  C_10
REMARK                            x       y       z     vdW  Elec       q    Type
REMARK                         _______ _______ _______ _____ _____    ______ ____
ROOT
ATOM      2  N   UNL     1       4.715   5.288   0.000  0.00  0.00    -0.264 NA
ATOM      3  C   UNL     1       5.531   5.165   0.000  0.00  0.00    +0.105 C 
ATOM      4  C   UNL     1       5.943   4.450   0.000  0.00  0.00    +0.160 C 
ATOM      5  O   UNL     1       5.642   3.682   0.000  0.00  0.00    -0.348 OA
ATOM      6  C   UNL     1       4.853   3.439   0.000  0.00  0.00    +0.187 C 
ATOM      7  C   UNL     1       4.172   3.904   0.000  0.00  0.00    +0.213 C 
ATOM      8  C   UNL     1       4.110   4.727   0.000  0.00  0.00    +0.119 C 
ENDROOT
BRANCH   2   1
ATOM      1  C   UNL     1       4.472   6.076   0.000  0.00  0.00    +0.101 C 
BRANCH   1  16
ATOM     16  C   UNL     1       5.033   6.681   0.000  0.00  0.00    +0.013 A 
ATOM     17  C   UNL     1       4.790   7.469   0.000  0.00  0.00    +0.000 A 
ATOM     18  C   UNL     1       5.351   8.074   0.000  0.00  0.00    +0.020 A 
ATOM     19  C   UNL     1       6.155   7.890   0.000  0.00  0.00    +0.099 A 
ATOM     20  N   UNL     1       6.398   7.102   0.000  0.00  0.00    -0.243 NA
ATOM     21  C   UNL     1       5.837   6.497   0.000  0.00  0.00    +0.096 A 
ENDBRANCH   1  16
ENDBRANCH   2   1
BRANCH   7   9
ATOM      9  O   UNL     1       3.457   3.491   0.000  0.00  0.00    -0.459 OA
BRANCH   9  10
ATOM     10  C   UNL     1       3.457   2.666   0.000  0.00  0.00    +0.245 A 
ATOM     11  C   UNL     1       4.172   2.254   0.000  0.00  0.00    +0.156 A 
ATOM     12  N   UNL     1       4.172   1.429   0.000  0.00  0.00    -0.236 NA
ATOM     13  C   UNL     1       3.457   1.016   0.000  0.00  0.00    +0.120 A 
ATOM     14  C   UNL     1       2.743   1.429   0.000  0.00  0.00    +0.123 A 
ATOM     15  N   UNL     1       2.743   2.254   0.000  0.00  0.00    -0.207 NA
ENDBRANCH   9  10
ENDBRANCH   7   9
TORSDOF 4
