REMARK  Name = 
REMARK  7 active torsions:
REMARK  status: ('A' for Active; 'I' for Inactive)
REMARK    1  A    between atoms: O_2  and  C_3
REMARK    2  A    between atoms: C_6  and  N_7
REMARK    3  A    between atoms: C_8  and  O_10
REMARK    4  A    between atoms: O_10  and  C_11
REMARK    5  A    between atoms: C_11  and  C_12
REMARK    6  A    between atoms: C_19  and  C_20
REMARK    7  A    between atoms: C_22  and  C_26
REMARK                            x       y       z     vdW  Elec       q    Type
REMARK                         _______ _______ _______ _____ _____    ______ ____
ROOT
ATOM     12  C   UNL     1      -1.838  -6.006   0.000  0.00  0.00    +0.102 C 
ATOM     13  C   UNL     1      -1.062  -5.946   0.000  0.00  0.00    +0.020 C 
ATOM     14  C   UNL     1      -0.644  -5.252   0.000  0.00  0.00    +0.010 C 
ATOM     15  C   UNL     1       0.241  -5.396   0.000  0.00  0.00    +0.018 C 
ATOM     16  C   UNL     1      -0.390  -5.567   0.000  0.00  0.00    +0.072 C 
ATOM     17  N   UNL     1      -1.404  -5.304   0.000  0.00  0.00    -0.270 NA
ATOM     18  C   UNL     1      -1.660  -4.428   0.000  0.00  0.00    +0.078 C 
ATOM     19  C   UNL     1      -0.897  -4.412   0.000  0.00  0.00    +0.056 C 
ENDROOT
BRANCH  19  20
ATOM     20  C   UNL     1      -0.412  -3.744   0.000  0.00  0.00    +0.058 A 
ATOM     21  C   UNL     1      -0.667  -2.960   0.000  0.00  0.00    +0.035 A 
ATOM     22  C   UNL     1       0.000  -2.475   0.000  0.00  0.00    +0.102 A 
ATOM     23  N   UNL     1       0.667  -2.960   0.000  0.00  0.00    -0.170 NA
ATOM     24  N   UNL     1       0.412  -3.744   0.000  0.00  0.00    -0.253 N 
ATOM     25  C   UNL     1       0.897  -4.412   0.000  0.00  0.00    +0.153 C 
BRANCH  22  26
ATOM     26  C   UNL     1       0.000  -1.650   0.000  0.00  0.00    +0.019 A 
ATOM     27  C   UNL     1       0.715  -1.238   0.000  0.00  0.00    +0.002 A 
ATOM     28  C   UNL     1       0.715  -0.412   0.000  0.00  0.00    +0.000 A 
ATOM     29  C   UNL     1       0.000   0.000   0.000  0.00  0.00    +0.000 A 
ATOM     30  C   UNL     1       0.000   0.825   0.000  0.00  0.00    +0.000 A 
ATOM     31  C   UNL     1       0.715   1.238   0.000  0.00  0.00    +0.000 A 
ATOM     32  C   UNL     1       1.429   0.825   0.000  0.00  0.00    +0.000 A 
ATOM     33  C   UNL     1       1.429   0.000   0.000  0.00  0.00    +0.000 A 
ATOM     34  C   UNL     1      -0.715  -0.412   0.000  0.00  0.00    +0.000 A 
ATOM     35  C   UNL     1      -0.715  -1.238   0.000  0.00  0.00    +0.002 A 
ENDBRANCH  22  26
ENDBRANCH  19  20
BRANCH  12  11
ATOM     11  C   UNL     1      -2.542  -6.435   0.000  0.00  0.00    +0.226 C 
BRANCH  11  10
ATOM     10  O   UNL     1      -3.267  -6.040   0.000  0.00  0.00    -0.432 OA
BRANCH  10   8
ATOM      7  N   UNL     1      -4.695  -6.074   0.000  0.00  0.00    -0.142 NA
ATOM      8  C   UNL     1      -3.971  -6.469   0.000  0.00  0.00    +0.425 C 
ATOM      9  O   UNL     1      -3.951  -7.294   0.000  0.00  0.00    -0.224 OA
BRANCH   7   6
ATOM      3  C   UNL     1      -6.808  -7.362   0.000  0.00  0.00    +0.139 A 
ATOM      4  C   UNL     1      -6.828  -6.537   0.000  0.00  0.00    +0.038 A 
ATOM      5  C   UNL     1      -6.124  -6.108   0.000  0.00  0.00    +0.020 A 
ATOM      6  C   UNL     1      -5.399  -6.503   0.000  0.00  0.00    +0.077 A 
ATOM     36  C   UNL     1      -5.380  -7.328   0.000  0.00  0.00    +0.020 A 
ATOM     37  C   UNL     1      -6.084  -7.758   0.000  0.00  0.00    +0.038 A 
BRANCH   3   2
ATOM      1  C   UNL     1      -7.493  -8.616   0.000  0.00  0.00    +0.252 C 
ATOM      2  O   UNL     1      -7.513  -7.791   0.000  0.00  0.00    -0.471 OA
ENDBRANCH   3   2
ENDBRANCH   7   6
ENDBRANCH  10   8
ENDBRANCH  11  10
ENDBRANCH  12  11
TORSDOF 7
