REMARK  Name = 
REMARK  2 active torsions:
REMARK  status: ('A' for Active; 'I' for Inactive)
REMARK    1  A    between atoms: O_2  and  C_3
REMARK    2  A    between atoms: C_4  and  C_9
REMARK                            x       y       z     vdW  Elec       q    Type
REMARK                         _______ _______ _______ _____ _____    ______ ____
ROOT
ATOM      9  C   UNL     1       4.067   2.348   0.000  0.00  0.00    +0.252 C 
ATOM     10  O   UNL     1       4.781   1.935   0.000  0.00  0.00    -0.270 OA
ATOM     11  N   UNL     1       3.352   1.935   0.000  0.00  0.00    -0.272 N 
ATOM     12  C   UNL     1       3.352   1.110   0.000  0.00  0.00    +0.115 C 
ATOM     13  C   UNL     1       2.638   0.698   0.000  0.00  0.00    +0.117 C 
ATOM     14  N   UNL     1       1.923   1.110   0.000  0.00  0.00    -0.259 N 
ATOM     15  C   UNL     1       1.923   1.935   0.000  0.00  0.00    +0.118 C 
ATOM     16  C   UNL     1       1.139   2.190   0.000  0.00  0.00    +0.138 C 
ATOM     17  N   UNL     1       0.654   1.523   0.000  0.00  0.00    -0.187 NA
ATOM     18  C   UNL     1       1.139   0.856   0.000  0.00  0.00    +0.323 C 
ATOM     19  O   UNL     1       0.884   0.071   0.000  0.00  0.00    -0.251 OA
ATOM     20  C   UNL     1       2.638   2.348   0.000  0.00  0.00    +0.115 C 
ENDROOT
BRANCH   9   4
ATOM      3  C   UNL     1       4.781   3.585   0.000  0.00  0.00    +0.143 A 
ATOM      4  C   UNL     1       4.067   3.173   0.000  0.00  0.00    +0.087 A 
ATOM      5  C   UNL     1       3.352   3.585   0.000  0.00  0.00    +0.008 A 
ATOM      6  C   UNL     1       3.352   4.410   0.000  0.00  0.00    +0.000 A 
ATOM      7  C   UNL     1       4.067   4.823   0.000  0.00  0.00    +0.003 A 
ATOM      8  C   UNL     1       4.781   4.410   0.000  0.00  0.00    +0.037 A 
BRANCH   3   2
ATOM      1  C   UNL     1       6.210   3.585   0.000  0.00  0.00    +0.252 C 
ATOM      2  O   UNL     1       5.496   3.173   0.000  0.00  0.00    -0.471 OA
ENDBRANCH   3   2
ENDBRANCH   9   4
TORSDOF 2
