MODEL 1
REMARK VINA RESULT:     -12.9      0.000      0.000
REMARK  Name = 
REMARK  4 active torsions:
REMARK  status: ('A' for Active; 'I' for Inactive)
REMARK    1  A    between atoms: C_7  and  N_10
REMARK    2  A    between atoms: C_13  and  C_15
REMARK    3  A    between atoms: C_18  and  C_19
REMARK    4  A    between atoms: C_19  and  C_20
REMARK                            x       y       z     vdW  Elec       q    Type
REMARK                         _______ _______ _______ _____ _____    ______ ____
ROOT
ATOM     15  C   UNL     1      -4.324   2.567  25.224  0.00  0.00    +0.227 A 
ATOM     16  N   UNL     1      -4.730   3.248  24.993  0.00  0.00    -0.112 NA
ATOM     17  N   UNL     1      -4.283   3.901  25.221  0.00  0.00    -0.111 NA
ATOM     18  C   UNL     1      -3.600   3.627  25.594  0.00  0.00    +0.231 A 
ATOM     29  O   UNL     1      -3.626   2.802  25.595  0.00  0.00    -0.423 OA
ENDROOT
BRANCH  15  13
ATOM     10  N   UNL     1      -4.562   0.466  24.927  0.00  0.00    -0.273 NA
ATOM     11  C   UNL     1      -5.347   0.720  24.912  0.00  0.00    +0.073 C 
ATOM     12  C   UNL     1      -5.353   1.538  25.022  0.00  0.00    +0.028 C 
ATOM     13  C   UNL     1      -4.573   1.790  25.104  0.00  0.00    +0.095 C 
ATOM     14  C   UNL     1      -4.083   1.129  25.045  0.00  0.00    +0.081 C 
BRANCH  10   7
ATOM      1  C   UNL     1      -3.652  -3.046  23.865  0.00  0.00    +0.095 C 
ATOM      2  C   UNL     1      -3.519  -2.644  24.573  0.00  0.00    +0.226 C 
ATOM      3  O   UNL     1      -3.125  -3.020  25.193  0.00  0.00    -0.275 OA
ATOM      4  N   UNL     1      -3.780  -1.866  24.661  0.00  0.00    -0.279 N 
ATOM      5  C   UNL     1      -3.646  -1.465  25.369  0.00  0.00    +0.095 C 
ATOM      6  C   UNL     1      -3.908  -0.687  25.458  0.00  0.00    +0.038 C 
ATOM      7  C   UNL     1      -4.302  -0.311  24.838  0.00  0.00    +0.061 C 
ATOM      8  C   UNL     1      -4.434  -0.713  24.130  0.00  0.00    +0.038 C 
ATOM      9  C   UNL     1      -4.174  -1.490  24.041  0.00  0.00    +0.095 C 
ENDBRANCH  10   7
ENDBRANCH  15  13
BRANCH  18  19
ATOM     19  C   UNL     1      -2.998   4.094  25.910  0.00  0.00    +0.115 C 
BRANCH  19  20
ATOM     20  C   UNL     1      -2.216   3.971  25.678  0.00  0.00    +0.008 A 
ATOM     21  C   UNL     1      -1.794   3.266  25.749  0.00  0.00    +0.095 A 
ATOM     22  N   UNL     1      -1.036   3.391  25.450  0.00  0.00    -0.244 NA
ATOM     23  C   UNL     1      -0.989   4.173  25.193  0.00  0.00    +0.081 A 
ATOM     24  C   UNL     1      -1.719   4.532  25.334  0.00  0.00    +0.016 A 
ATOM     25  C   UNL     1      -1.835   5.323  25.131  0.00  0.00    +0.001 A 
ATOM     26  C   UNL     1      -1.223   5.755  24.787  0.00  0.00    +0.000 A 
ATOM     27  C   UNL     1      -0.494   5.397  24.646  0.00  0.00    +0.002 A 
ATOM     28  C   UNL     1      -0.376   4.606  24.849  0.00  0.00    +0.019 A 
ENDBRANCH  19  20
ENDBRANCH  18  19
TORSDOF 4
ENDMDL
MODEL 2
REMARK VINA RESULT:     -11.6      1.442      5.643
REMARK  Name = 
REMARK  4 active torsions:
REMARK  status: ('A' for Active; 'I' for Inactive)
REMARK    1  A    between atoms: C_7  and  N_10
REMARK    2  A    between atoms: C_13  and  C_15
REMARK    3  A    between atoms: C_18  and  C_19
REMARK    4  A    between atoms: C_19  and  C_20
REMARK                            x       y       z     vdW  Elec       q    Type
REMARK                         _______ _______ _______ _____ _____    ______ ____
ROOT
ATOM     15  C   UNL     1      -4.219   0.655  24.870  0.00  0.00    +0.227 A 
ATOM     16  N   UNL     1      -4.841   0.228  24.537  0.00  0.00    -0.112 NA
ATOM     17  N   UNL     1      -4.731  -0.568  24.721  0.00  0.00    -0.111 NA
ATOM     18  C   UNL     1      -4.041  -0.634  25.167  0.00  0.00    +0.231 A 
ATOM     29  O   UNL     1      -3.724   0.123  25.259  0.00  0.00    -0.423 OA
ENDROOT
BRANCH  15  13
ATOM     10  N   UNL     1      -3.539   2.679  24.820  0.00  0.00    -0.273 NA
ATOM     11  C   UNL     1      -4.345   2.777  24.671  0.00  0.00    +0.073 C 
ATOM     12  C   UNL     1      -4.697   2.031  24.671  0.00  0.00    +0.028 C 
ATOM     13  C   UNL     1      -4.110   1.472  24.821  0.00  0.00    +0.095 C 
ATOM     14  C   UNL     1      -3.395   1.871  24.913  0.00  0.00    +0.081 C 
BRANCH  10   7
ATOM      1  C   UNL     1      -0.516   4.947  24.780  0.00  0.00    +0.095 C 
ATOM      2  C   UNL     1      -1.295   5.089  25.014  0.00  0.00    +0.226 C 
ATOM      3  O   UNL     1      -1.511   5.833  25.297  0.00  0.00    -0.275 OA
ATOM      4  N   UNL     1      -1.855   4.486  24.966  0.00  0.00    -0.279 N 
ATOM      5  C   UNL     1      -2.633   4.628  25.200  0.00  0.00    +0.095 C 
ATOM      6  C   UNL     1      -3.195   4.025  25.152  0.00  0.00    +0.038 C 
ATOM      7  C   UNL     1      -2.978   3.281  24.869  0.00  0.00    +0.061 C 
ATOM      8  C   UNL     1      -2.200   3.140  24.634  0.00  0.00    +0.038 C 
ATOM      9  C   UNL     1      -1.639   3.742  24.683  0.00  0.00    +0.095 C 
ENDBRANCH  10   7
ENDBRANCH  15  13
BRANCH  18  19
ATOM     19  C   UNL     1      -3.722  -1.333  25.469  0.00  0.00    +0.115 C 
BRANCH  19  20
ATOM     20  C   UNL     1      -3.297  -1.839  24.977  0.00  0.00    +0.008 A 
ATOM     21  C   UNL     1      -3.615  -2.333  24.397  0.00  0.00    +0.095 A 
ATOM     22  N   UNL     1      -2.992  -2.740  24.040  0.00  0.00    -0.244 NA
ATOM     23  C   UNL     1      -2.290  -2.497  24.398  0.00  0.00    +0.081 A 
ATOM     24  C   UNL     1      -2.478  -1.941  24.977  0.00  0.00    +0.016 A 
ATOM     25  C   UNL     1      -1.879  -1.598  25.429  0.00  0.00    +0.001 A 
ATOM     26  C   UNL     1      -1.093  -1.812  25.303  0.00  0.00    +0.000 A 
ATOM     27  C   UNL     1      -0.905  -2.369  24.724  0.00  0.00    +0.002 A 
ATOM     28  C   UNL     1      -1.503  -2.711  24.271  0.00  0.00    +0.019 A 
ENDBRANCH  19  20
ENDBRANCH  18  19
TORSDOF 4
ENDMDL
MODEL 3
REMARK VINA RESULT:     -11.6      1.990      3.011
REMARK  Name = 
REMARK  4 active torsions:
REMARK  status: ('A' for Active; 'I' for Inactive)
REMARK    1  A    between atoms: C_7  and  N_10
REMARK    2  A    between atoms: C_13  and  C_15
REMARK    3  A    between atoms: C_18  and  C_19
REMARK    4  A    between atoms: C_19  and  C_20
REMARK                            x       y       z     vdW  Elec       q    Type
REMARK                         _______ _______ _______ _____ _____    ______ ____
ROOT
ATOM     15  C   UNL     1      -0.224   1.193  24.875  0.00  0.00    +0.227 A 
ATOM     16  N   UNL     1       0.485   1.566  24.680  0.00  0.00    -0.112 NA
ATOM     17  N   UNL     1       0.488   2.309  25.037  0.00  0.00    -0.111 NA
ATOM     18  C   UNL     1      -0.218   2.396  25.453  0.00  0.00    +0.231 A 
ATOM     29  O   UNL     1      -0.659   1.705  25.353  0.00  0.00    -0.423 OA
ENDROOT
BRANCH  15  13
ATOM     10  N   UNL     1      -1.198  -0.650  24.409  0.00  0.00    -0.273 NA
ATOM     11  C   UNL     1      -0.438  -0.793  24.121  0.00  0.00    +0.073 C 
ATOM     12  C   UNL     1       0.019  -0.120  24.261  0.00  0.00    +0.028 C 
ATOM     13  C   UNL     1      -0.457   0.439  24.635  0.00  0.00    +0.095 C 
ATOM     14  C   UNL     1      -1.209   0.112  24.726  0.00  0.00    +0.081 C 
BRANCH  10   7
ATOM      1  C   UNL     1      -4.472  -2.499  24.024  0.00  0.00    +0.095 C 
ATOM      2  C   UNL     1      -3.739  -2.751  24.308  0.00  0.00    +0.226 C 
ATOM      3  O   UNL     1      -3.642  -3.528  24.567  0.00  0.00    -0.275 OA
ATOM      4  N   UNL     1      -3.104  -2.225  24.333  0.00  0.00    -0.279 N 
ATOM      5  C   UNL     1      -2.372  -2.478  24.617  0.00  0.00    +0.095 C 
ATOM      6  C   UNL     1      -1.736  -1.952  24.642  0.00  0.00    +0.038 C 
ATOM      7  C   UNL     1      -1.833  -1.174  24.384  0.00  0.00    +0.061 C 
ATOM      8  C   UNL     1      -2.566  -0.923  24.100  0.00  0.00    +0.038 C 
ATOM      9  C   UNL     1      -3.201  -1.448  24.074  0.00  0.00    +0.095 C 
ENDBRANCH  10   7
ENDBRANCH  15  13
BRANCH  18  19
ATOM     19  C   UNL     1      -0.445   3.057  25.893  0.00  0.00    +0.115 C 
BRANCH  19  20
ATOM     20  C   UNL     1      -0.821   3.690  25.522  0.00  0.00    +0.008 A 
ATOM     21  C   UNL     1      -0.499   4.167  24.930  0.00  0.00    +0.095 A 
ATOM     22  N   UNL     1      -1.064   4.729  24.720  0.00  0.00    -0.244 NA
ATOM     23  C   UNL     1      -1.735   4.601  25.181  0.00  0.00    +0.081 A 
ATOM     24  C   UNL     1      -1.585   3.958  25.677  0.00  0.00    +0.016 A 
ATOM     25  C   UNL     1      -2.165   3.702  26.205  0.00  0.00    +0.001 A 
ATOM     26  C   UNL     1      -2.893   4.086  26.238  0.00  0.00    +0.000 A 
ATOM     27  C   UNL     1      -3.043   4.728  25.742  0.00  0.00    +0.002 A 
ATOM     28  C   UNL     1      -2.465   4.986  25.214  0.00  0.00    +0.019 A 
ENDBRANCH  19  20
ENDBRANCH  18  19
TORSDOF 4
ENDMDL
MODEL 4
REMARK VINA RESULT:     -11.4      1.785      6.369
REMARK  Name = 
REMARK  4 active torsions:
REMARK  status: ('A' for Active; 'I' for Inactive)
REMARK    1  A    between atoms: C_7  and  N_10
REMARK    2  A    between atoms: C_13  and  C_15
REMARK    3  A    between atoms: C_18  and  C_19
REMARK    4  A    between atoms: C_19  and  C_20
REMARK                            x       y       z     vdW  Elec       q    Type
REMARK                         _______ _______ _______ _____ _____    ______ ____
ROOT
ATOM     15  C   UNL     1      -1.112   0.351  25.462  0.00  0.00    +0.227 A 
ATOM     16  N   UNL     1      -0.659  -0.214  25.066  0.00  0.00    -0.112 NA
ATOM     17  N   UNL     1      -1.097  -0.912  25.031  0.00  0.00    -0.111 NA
ATOM     18  C   UNL     1      -1.820  -0.779  25.403  0.00  0.00    +0.231 A 
ATOM     29  O   UNL     1      -1.829   0.002  25.670  0.00  0.00    -0.423 OA
ENDROOT
BRANCH  15  13
ATOM     10  N   UNL     1      -0.847   2.464  25.625  0.00  0.00    -0.273 NA
ATOM     11  C   UNL     1      -0.233   2.188  26.103  0.00  0.00    +0.073 C 
ATOM     12  C   UNL     1      -0.258   1.363  26.100  0.00  0.00    +0.028 C 
ATOM     13  C   UNL     1      -0.886   1.129  25.620  0.00  0.00    +0.095 C 
ATOM     14  C   UNL     1      -1.251   1.808  25.327  0.00  0.00    +0.081 C 
BRANCH  10   7
ATOM      1  C   UNL     1      -2.297   5.932  25.229  0.00  0.00    +0.095 C 
ATOM      2  C   UNL     1      -1.561   5.626  25.013  0.00  0.00    +0.226 C 
ATOM      3  O   UNL     1      -1.004   6.111  24.644  0.00  0.00    -0.275 OA
ATOM      4  N   UNL     1      -1.383   4.835  25.166  0.00  0.00    -0.279 N 
ATOM      5  C   UNL     1      -0.648   4.530  24.950  0.00  0.00    +0.095 C 
ATOM      6  C   UNL     1      -0.469   3.738  25.103  0.00  0.00    +0.038 C 
ATOM      7  C   UNL     1      -1.026   3.254  25.472  0.00  0.00    +0.061 C 
ATOM      8  C   UNL     1      -1.761   3.561  25.688  0.00  0.00    +0.038 C 
ATOM      9  C   UNL     1      -1.939   4.351  25.535  0.00  0.00    +0.095 C 
ENDBRANCH  10   7
ENDBRANCH  15  13
BRANCH  18  19
ATOM     19  C   UNL     1      -2.428  -1.330  25.494  0.00  0.00    +0.115 C 
BRANCH  19  20
ATOM     20  C   UNL     1      -3.091  -1.298  25.005  0.00  0.00    +0.008 A 
ATOM     21  C   UNL     1      -3.523  -0.620  24.818  0.00  0.00    +0.095 A 
ATOM     22  N   UNL     1      -4.137  -0.840  24.314  0.00  0.00    -0.244 NA
ATOM     23  C   UNL     1      -4.086  -1.654  24.190  0.00  0.00    +0.081 A 
ATOM     24  C   UNL     1      -3.439  -1.936  24.618  0.00  0.00    +0.016 A 
ATOM     25  C   UNL     1      -3.251  -2.740  24.598  0.00  0.00    +0.001 A 
ATOM     26  C   UNL     1      -3.709  -3.260  24.151  0.00  0.00    +0.000 A 
ATOM     27  C   UNL     1      -4.356  -2.977  23.724  0.00  0.00    +0.002 A 
ATOM     28  C   UNL     1      -4.545  -2.175  23.743  0.00  0.00    +0.019 A 
ENDBRANCH  19  20
ENDBRANCH  18  19
TORSDOF 4
ENDMDL
MODEL 5
REMARK VINA RESULT:     -11.2      2.679      4.575
REMARK  Name = 
REMARK  4 active torsions:
REMARK  status: ('A' for Active; 'I' for Inactive)
REMARK    1  A    between atoms: C_7  and  N_10
REMARK    2  A    between atoms: C_13  and  C_15
REMARK    3  A    between atoms: C_18  and  C_19
REMARK    4  A    between atoms: C_19  and  C_20
REMARK                            x       y       z     vdW  Elec       q    Type
REMARK                         _______ _______ _______ _____ _____    ______ ____
ROOT
ATOM     15  C   UNL     1      -1.757   3.353  25.481  0.00  0.00    +0.227 A 
ATOM     16  N   UNL     1      -1.764   4.177  25.524  0.00  0.00    -0.112 NA
ATOM     17  N   UNL     1      -2.546   4.421  25.616  0.00  0.00    -0.111 NA
ATOM     18  C   UNL     1      -3.024   3.749  25.631  0.00  0.00    +0.231 A 
ATOM     29  O   UNL     1      -2.535   3.088  25.547  0.00  0.00    -0.423 OA
ENDROOT
BRANCH  15  13
ATOM     10  N   UNL     1      -0.193   2.035  24.868  0.00  0.00    -0.273 NA
ATOM     11  C   UNL     1       0.070   2.258  25.618  0.00  0.00    +0.073 C 
ATOM     12  C   UNL     1      -0.484   2.779  25.938  0.00  0.00    +0.028 C 
ATOM     13  C   UNL     1      -1.089   2.878  25.388  0.00  0.00    +0.095 C 
ATOM     14  C   UNL     1      -0.910   2.418  24.726  0.00  0.00    +0.081 C 
BRANCH  10   7
ATOM      1  C   UNL     1       2.125   0.125  22.572  0.00  0.00    +0.095 C 
ATOM      2  C   UNL     1       1.347  -0.027  22.803  0.00  0.00    +0.226 C 
ATOM      3  O   UNL     1       0.955  -0.694  22.518  0.00  0.00    -0.275 OA
ATOM      4  N   UNL     1       0.962   0.489  23.320  0.00  0.00    -0.279 N 
ATOM      5  C   UNL     1       0.185   0.336  23.550  0.00  0.00    +0.095 C 
ATOM      6  C   UNL     1      -0.200   0.852  24.067  0.00  0.00    +0.038 C 
ATOM      7  C   UNL     1       0.192   1.520  24.352  0.00  0.00    +0.061 C 
ATOM      8  C   UNL     1       0.970   1.671  24.121  0.00  0.00    +0.038 C 
ATOM      9  C   UNL     1       1.355   1.156  23.605  0.00  0.00    +0.095 C 
ENDBRANCH  10   7
ENDBRANCH  15  13
BRANCH  18  19
ATOM     19  C   UNL     1      -3.844   3.738  25.714  0.00  0.00    +0.115 C 
BRANCH  19  20
ATOM     20  C   UNL     1      -4.306   3.294  25.195  0.00  0.00    +0.008 A 
ATOM     21  C   UNL     1      -4.199   3.236  24.379  0.00  0.00    +0.095 A 
ATOM     22  N   UNL     1      -4.783   2.736  24.080  0.00  0.00    -0.244 NA
ATOM     23  C   UNL     1      -5.251   2.485  24.711  0.00  0.00    +0.081 A 
ATOM     24  C   UNL     1      -4.956   2.830  25.400  0.00  0.00    +0.016 A 
ATOM     25  C   UNL     1      -5.319   2.676  26.125  0.00  0.00    +0.001 A 
ATOM     26  C   UNL     1      -5.975   2.179  26.162  0.00  0.00    +0.000 A 
ATOM     27  C   UNL     1      -6.270   1.834  25.473  0.00  0.00    +0.002 A 
ATOM     28  C   UNL     1      -5.908   1.987  24.747  0.00  0.00    +0.019 A 
ENDBRANCH  19  20
ENDBRANCH  18  19
TORSDOF 4
ENDMDL
