REMARK  Name = 
REMARK  2 active torsions:
REMARK  status: ('A' for Active; 'I' for Inactive)
REMARK    1  A    between atoms: C_4  and  C_5
REMARK    2  A    between atoms: C_5  and  N_6
REMARK                            x       y       z     vdW  Elec       q    Type
REMARK                         _______ _______ _______ _____ _____    ______ ____
ROOT
ATOM      5  C   UNL     1       1.565  -3.453   0.000  0.00  0.00    +0.101 C 
ENDROOT
BRANCH   5   4
ATOM      1  C   UNL     1       1.565  -0.549   0.000  0.00  0.00    +0.130 C 
ATOM      2  N   UNL     1       1.820  -1.333   0.000  0.00  0.00    -0.324 N 
ATOM      3  C   UNL     1       1.335  -2.001   0.000  0.00  0.00    +0.073 A 
ATOM      4  C   UNL     1       1.820  -2.668   0.000  0.00  0.00    +0.012 A 
ATOM     16  C   UNL     1       2.604  -2.413   0.000  0.00  0.00    +0.015 A 
ATOM     17  C   UNL     1       2.604  -1.588   0.000  0.00  0.00    +0.060 A 
ATOM     18  C   UNL     1       3.319  -1.176   0.000  0.00  0.00    +0.017 A 
ATOM     19  C   UNL     1       4.033  -1.588   0.000  0.00  0.00    +0.001 A 
ATOM     20  C   UNL     1       4.033  -2.413   0.000  0.00  0.00    +0.000 A 
ATOM     21  C   UNL     1       3.319  -2.826   0.000  0.00  0.00    +0.001 A 
ENDBRANCH   5   4
BRANCH   5   6
ATOM      6  N   UNL     1       0.758  -3.624   0.000  0.00  0.00    -0.266 NA
ATOM      7  C   UNL     1       0.503  -4.409   0.000  0.00  0.00    +0.094 C 
ATOM      8  C   UNL     1      -0.304  -4.581   0.000  0.00  0.00    +0.112 C 
ATOM      9  N   UNL     1      -0.856  -3.967   0.000  0.00  0.00    -0.260 N 
ATOM     10  C   UNL     1      -0.601  -3.183   0.000  0.00  0.00    +0.115 C 
ATOM     11  C   UNL     1      -1.268  -2.698   0.000  0.00  0.00    +0.138 C 
ATOM     12  N   UNL     1      -1.936  -3.183   0.000  0.00  0.00    -0.187 NA
ATOM     13  C   UNL     1      -1.681  -3.967   0.000  0.00  0.00    +0.323 C 
ATOM     14  O   UNL     1      -2.166  -4.635   0.000  0.00  0.00    -0.251 OA
ATOM     15  C   UNL     1       0.206  -3.011   0.000  0.00  0.00    +0.094 C 
ENDBRANCH   5   6
TORSDOF 2
