MODEL 1
REMARK VINA RESULT:      -7.9      0.000      0.000
REMARK  Name = 
REMARK  7 active torsions:
REMARK  status: ('A' for Active; 'I' for Inactive)
REMARK    1  A    between atoms: S_2  and  C_5
REMARK    2  A    between atoms: C_8  and  C_9
REMARK    3  A    between atoms: C_9  and  N_10
REMARK    4  A    between atoms: N_10  and  C_11
REMARK    5  A    between atoms: C_14  and  C_15
REMARK    6  A    between atoms: C_15  and  N_16
REMARK    7  A    between atoms: N_19  and  C_20
REMARK                            x       y       z     vdW  Elec       q    Type
REMARK                         _______ _______ _______ _____ _____    ______ ____
ROOT
ATOM     11  C   UNL     1      -1.419   1.007  24.122  0.00  0.00    +0.135 C 
ATOM     12  C   UNL     1      -1.269   0.219  23.932  0.00  0.00    +0.162 C 
ATOM     13  O   UNL     1      -0.472   0.153  23.728  0.00  0.00    -0.350 OA
ATOM     14  C   UNL     1      -0.130   0.900  23.791  0.00  0.00    +0.169 C 
ATOM     26  C   UNL     1      -0.715   1.429  24.035  0.00  0.00    +0.199 C 
ATOM     27  O   UNL     1      -0.613   2.237  24.167  0.00  0.00    -0.219 OA
ENDROOT
BRANCH  11  10
ATOM     10  N   UNL     1      -2.145   1.321  24.357  0.00  0.00    -0.209 NA
BRANCH  10   9
ATOM      9  C   UNL     1      -2.847   0.969  24.104  0.00  0.00    +0.115 C 
BRANCH   9   8
ATOM      5  C   UNL     1      -5.018   1.764  24.988  0.00  0.00    +0.106 A 
ATOM      6  C   UNL     1      -4.744   1.010  25.183  0.00  0.00    +0.018 A 
ATOM      7  C   UNL     1      -4.021   0.746  24.888  0.00  0.00    -0.002 A 
ATOM      8  C   UNL     1      -3.571   1.234  24.399  0.00  0.00    -0.005 A 
ATOM     28  C   UNL     1      -3.844   1.987  24.204  0.00  0.00    -0.002 A 
ATOM     29  C   UNL     1      -4.568   2.252  24.499  0.00  0.00    +0.018 A 
BRANCH   5   2
ATOM      1  C   UNL     1      -6.465   2.293  25.577  0.00  0.00    +0.182 C 
ATOM      2  S   UNL     1      -5.742   2.029  25.282  0.00  0.00    +0.010 S 
ATOM      3  O   UNL     1      -6.134   1.642  24.667  0.00  0.00    -0.169 OA
ATOM      4  O   UNL     1      -5.350   2.415  25.897  0.00  0.00    -0.169 OA
ENDBRANCH   5   2
ENDBRANCH   9   8
ENDBRANCH  10   9
ENDBRANCH  11  10
BRANCH  14  15
ATOM     15  C   UNL     1       0.660   1.086  23.638  0.00  0.00    +0.149 C 
BRANCH  15  16
ATOM     16  N   UNL     1       1.143   0.543  23.249  0.00  0.00    -0.184 NA
ATOM     17  C   UNL     1       1.963   0.634  23.268  0.00  0.00    +0.344 C 
ATOM     18  O   UNL     1       2.298   1.266  23.676  0.00  0.00    -0.249 OA
ATOM     19  N   UNL     1       2.447   0.090  22.879  0.00  0.00    -0.161 NA
BRANCH  19  20
ATOM     20  C   UNL     1       3.266   0.181  22.898  0.00  0.00    +0.075 A 
ATOM     21  C   UNL     1       3.727  -0.334  23.350  0.00  0.00    +0.017 A 
ATOM     22  C   UNL     1       4.547  -0.243  23.370  0.00  0.00    +0.001 A 
ATOM     23  C   UNL     1       4.906   0.360  22.939  0.00  0.00    +0.000 A 
ATOM     24  C   UNL     1       4.446   0.875  22.487  0.00  0.00    +0.001 A 
ATOM     25  C   UNL     1       3.625   0.785  22.467  0.00  0.00    +0.017 A 
ENDBRANCH  19  20
ENDBRANCH  15  16
ENDBRANCH  14  15
TORSDOF 7
ENDMDL
MODEL 2
REMARK VINA RESULT:      -7.8      2.407      7.519
REMARK  Name = 
REMARK  7 active torsions:
REMARK  status: ('A' for Active; 'I' for Inactive)
REMARK    1  A    between atoms: S_2  and  C_5
REMARK    2  A    between atoms: C_8  and  C_9
REMARK    3  A    between atoms: C_9  and  N_10
REMARK    4  A    between atoms: N_10  and  C_11
REMARK    5  A    between atoms: C_14  and  C_15
REMARK    6  A    between atoms: C_15  and  N_16
REMARK    7  A    between atoms: N_19  and  C_20
REMARK                            x       y       z     vdW  Elec       q    Type
REMARK                         _______ _______ _______ _____ _____    ______ ____
ROOT
ATOM     11  C   UNL     1       0.832   0.652  23.437  0.00  0.00    +0.135 C 
ATOM     12  C   UNL     1       0.412   0.004  23.148  0.00  0.00    +0.162 C 
ATOM     13  O   UNL     1      -0.367   0.065  23.415  0.00  0.00    -0.350 OA
ATOM     14  C   UNL     1      -0.428   0.751  23.869  0.00  0.00    +0.169 C 
ATOM     26  C   UNL     1       0.313   1.115  23.883  0.00  0.00    +0.199 C 
ATOM     27  O   UNL     1       0.501   1.816  24.274  0.00  0.00    -0.219 OA
ENDROOT
BRANCH  11  10
ATOM     10  N   UNL     1       1.630   0.812  23.305  0.00  0.00    -0.209 NA
BRANCH  10   9
ATOM      9  C   UNL     1       2.092   0.277  22.879  0.00  0.00    +0.115 C 
BRANCH   9   8
ATOM      5  C   UNL     1       4.542   0.208  23.225  0.00  0.00    +0.106 A 
ATOM      6  C   UNL     1       4.191   0.877  22.893  0.00  0.00    +0.018 A 
ATOM      7  C   UNL     1       3.375   0.899  22.778  0.00  0.00    -0.002 A 
ATOM      8  C   UNL     1       2.909   0.254  22.994  0.00  0.00    -0.005 A 
ATOM     28  C   UNL     1       3.259  -0.415  23.327  0.00  0.00    -0.002 A 
ATOM     29  C   UNL     1       4.076  -0.438  23.442  0.00  0.00    +0.018 A 
BRANCH   5   2
ATOM      1  C   UNL     1       6.174   0.162  23.456  0.00  0.00    +0.182 C 
ATOM      2  S   UNL     1       5.358   0.185  23.341  0.00  0.00    +0.010 S 
ATOM      3  O   UNL     1       5.262   0.524  24.087  0.00  0.00    -0.169 OA
ATOM      4  O   UNL     1       5.454  -0.155  22.595  0.00  0.00    -0.169 OA
ENDBRANCH   5   2
ENDBRANCH   9   8
ENDBRANCH  10   9
ENDBRANCH  11  10
BRANCH  14  15
ATOM     15  C   UNL     1      -1.111   1.025  24.244  0.00  0.00    +0.149 C 
BRANCH  15  16
ATOM     16  N   UNL     1      -1.847   0.916  23.889  0.00  0.00    -0.184 NA
ATOM     17  C   UNL     1      -2.531   1.174  24.272  0.00  0.00    +0.344 C 
ATOM     18  O   UNL     1      -2.477   1.541  25.008  0.00  0.00    -0.249 OA
ATOM     19  N   UNL     1      -3.268   1.065  23.918  0.00  0.00    -0.161 NA
BRANCH  19  20
ATOM     20  C   UNL     1      -3.952   1.323  24.301  0.00  0.00    +0.075 A 
ATOM     21  C   UNL     1      -4.210   2.101  24.203  0.00  0.00    +0.017 A 
ATOM     22  C   UNL     1      -4.893   2.360  24.586  0.00  0.00    +0.001 A 
ATOM     23  C   UNL     1      -5.318   1.842  25.066  0.00  0.00    +0.000 A 
ATOM     24  C   UNL     1      -5.060   1.064  25.164  0.00  0.00    +0.001 A 
ATOM     25  C   UNL     1      -4.376   0.805  24.781  0.00  0.00    +0.017 A 
ENDBRANCH  19  20
ENDBRANCH  15  16
ENDBRANCH  14  15
TORSDOF 7
ENDMDL
MODEL 3
REMARK VINA RESULT:      -7.1      4.294      5.459
REMARK  Name = 
REMARK  7 active torsions:
REMARK  status: ('A' for Active; 'I' for Inactive)
REMARK    1  A    between atoms: S_2  and  C_5
REMARK    2  A    between atoms: C_8  and  C_9
REMARK    3  A    between atoms: C_9  and  N_10
REMARK    4  A    between atoms: N_10  and  C_11
REMARK    5  A    between atoms: C_14  and  C_15
REMARK    6  A    between atoms: C_15  and  N_16
REMARK    7  A    between atoms: N_19  and  C_20
REMARK                            x       y       z     vdW  Elec       q    Type
REMARK                         _______ _______ _______ _____ _____    ______ ____
ROOT
ATOM     11  C   UNL     1      -4.832   1.275  24.922  0.00  0.00    +0.135 C 
ATOM     12  C   UNL     1      -5.292   1.582  25.535  0.00  0.00    +0.162 C 
ATOM     13  O   UNL     1      -5.142   2.392  25.586  0.00  0.00    -0.350 OA
ATOM     14  C   UNL     1      -4.589   2.585  25.005  0.00  0.00    +0.169 C 
ATOM     26  C   UNL     1      -4.397   1.895  24.595  0.00  0.00    +0.199 C 
ATOM     27  O   UNL     1      -3.864   1.837  23.968  0.00  0.00    -0.219 OA
ENDROOT
BRANCH  11  10
ATOM     10  N   UNL     1      -4.810   0.487  24.679  0.00  0.00    -0.209 NA
BRANCH  10   9
ATOM      9  C   UNL     1      -4.659  -0.109  25.229  0.00  0.00    +0.115 C 
BRANCH   9   8
ATOM      5  C   UNL     1      -3.414  -2.137  24.546  0.00  0.00    +0.106 A 
ATOM      6  C   UNL     1      -3.990  -1.818  24.047  0.00  0.00    +0.018 A 
ATOM      7  C   UNL     1      -4.404  -1.143  24.275  0.00  0.00    -0.002 A 
ATOM      8  C   UNL     1      -4.244  -0.786  25.001  0.00  0.00    -0.005 A 
ATOM     28  C   UNL     1      -3.670  -1.104  25.500  0.00  0.00    -0.002 A 
ATOM     29  C   UNL     1      -3.255  -1.780  25.272  0.00  0.00    +0.018 A 
BRANCH   5   2
ATOM      1  C   UNL     1      -2.586  -3.488  24.090  0.00  0.00    +0.182 C 
ATOM      2  S   UNL     1      -3.000  -2.813  24.318  0.00  0.00    +0.010 S 
ATOM      3  O   UNL     1      -3.704  -3.244  24.318  0.00  0.00    -0.169 OA
ATOM      4  O   UNL     1      -2.297  -2.382  24.318  0.00  0.00    -0.169 OA
ENDBRANCH   5   2
ENDBRANCH   9   8
ENDBRANCH  10   9
ENDBRANCH  11  10
BRANCH  14  15
ATOM     15  C   UNL     1      -4.281   3.338  24.860  0.00  0.00    +0.149 C 
BRANCH  15  16
ATOM     16  N   UNL     1      -3.727   3.662  25.378  0.00  0.00    -0.184 NA
ATOM     17  C   UNL     1      -3.049   4.026  25.079  0.00  0.00    +0.344 C 
ATOM     18  O   UNL     1      -2.926   4.064  24.266  0.00  0.00    -0.249 OA
ATOM     19  N   UNL     1      -2.494   4.351  25.597  0.00  0.00    -0.161 NA
BRANCH  19  20
ATOM     20  C   UNL     1      -1.816   4.714  25.299  0.00  0.00    +0.075 A 
ATOM     21  C   UNL     1      -1.144   4.263  25.136  0.00  0.00    +0.017 A 
ATOM     22  C   UNL     1      -0.466   4.626  24.837  0.00  0.00    +0.001 A 
ATOM     23  C   UNL     1      -0.460   5.439  24.702  0.00  0.00    +0.000 A 
ATOM     24  C   UNL     1      -1.130   5.890  24.865  0.00  0.00    +0.001 A 
ATOM     25  C   UNL     1      -1.809   5.527  25.163  0.00  0.00    +0.017 A 
ENDBRANCH  19  20
ENDBRANCH  15  16
ENDBRANCH  14  15
TORSDOF 7
ENDMDL
MODEL 4
REMARK VINA RESULT:      -5.4     17.567     18.024
REMARK  Name = 
REMARK  7 active torsions:
REMARK  status: ('A' for Active; 'I' for Inactive)
REMARK    1  A    between atoms: S_2  and  C_5
REMARK    2  A    between atoms: C_8  and  C_9
REMARK    3  A    between atoms: C_9  and  N_10
REMARK    4  A    between atoms: N_10  and  C_11
REMARK    5  A    between atoms: C_14  and  C_15
REMARK    6  A    between atoms: C_15  and  N_16
REMARK    7  A    between atoms: N_19  and  C_20
REMARK                            x       y       z     vdW  Elec       q    Type
REMARK                         _______ _______ _______ _____ _____    ______ ____
ROOT
ATOM     11  C   UNL     1      -6.408  -8.340   9.136  0.00  0.00    +0.135 C 
ATOM     12  C   UNL     1      -6.369  -9.037   8.697  0.00  0.00    +0.162 C 
ATOM     13  O   UNL     1      -5.661  -9.418   8.884  0.00  0.00    -0.350 OA
ATOM     14  C   UNL     1      -5.262  -8.956   9.438  0.00  0.00    +0.169 C 
ATOM     26  C   UNL     1      -5.723  -8.289   9.595  0.00  0.00    +0.199 C 
ATOM     27  O   UNL     1      -5.533  -7.680  10.118  0.00  0.00    -0.219 OA
ENDROOT
BRANCH  11  10
ATOM     10  N   UNL     1      -7.022  -7.790   9.121  0.00  0.00    -0.209 NA
BRANCH  10   9
ATOM      9  C   UNL     1      -7.565  -7.796   8.500  0.00  0.00    +0.115 C 
BRANCH   9   8
ATOM      5  C   UNL     1      -9.454  -6.195   8.491  0.00  0.00    +0.106 A 
ATOM      6  C   UNL     1      -9.536  -6.929   8.861  0.00  0.00    +0.018 A 
ATOM      7  C   UNL     1      -8.907  -7.462   8.864  0.00  0.00    -0.002 A 
ATOM      8  C   UNL     1      -8.195  -7.263   8.497  0.00  0.00    -0.005 A 
ATOM     28  C   UNL     1      -8.113  -6.530   8.128  0.00  0.00    -0.002 A 
ATOM     29  C   UNL     1      -8.742  -5.996   8.125  0.00  0.00    +0.018 A 
BRANCH   5   2
ATOM      1  C   UNL     1     -10.712  -5.129   8.486  0.00  0.00    +0.182 C 
ATOM      2  S   UNL     1     -10.083  -5.662   8.489  0.00  0.00    +0.010 S 
ATOM      3  O   UNL     1     -10.616  -6.291   8.522  0.00  0.00    -0.169 OA
ATOM      4  O   UNL     1      -9.550  -5.034   8.455  0.00  0.00    -0.169 OA
ENDBRANCH   5   2
ENDBRANCH   9   8
ENDBRANCH  10   9
ENDBRANCH  11  10
BRANCH  14  15
ATOM     15  C   UNL     1      -4.530  -9.130   9.778  0.00  0.00    +0.149 C 
BRANCH  15  16
ATOM     16  N   UNL     1      -4.447  -9.794  10.259  0.00  0.00    -0.184 NA
ATOM     17  C   UNL     1      -3.781  -9.872  10.741  0.00  0.00    +0.344 C 
ATOM     18  O   UNL     1      -3.201  -9.287  10.741  0.00  0.00    -0.249 OA
ATOM     19  N   UNL     1      -3.698 -10.537  11.223  0.00  0.00    -0.161 NA
BRANCH  19  20
ATOM     20  C   UNL     1      -3.032 -10.615  11.705  0.00  0.00    +0.075 A 
ATOM     21  C   UNL     1      -3.116 -10.618  12.526  0.00  0.00    +0.017 A 
ATOM     22  C   UNL     1      -2.451 -10.696  13.008  0.00  0.00    +0.001 A 
ATOM     23  C   UNL     1      -1.703 -10.771  12.670  0.00  0.00    +0.000 A 
ATOM     24  C   UNL     1      -1.619 -10.768  11.849  0.00  0.00    +0.001 A 
ATOM     25  C   UNL     1      -2.285 -10.690  11.367  0.00  0.00    +0.017 A 
ENDBRANCH  19  20
ENDBRANCH  15  16
ENDBRANCH  14  15
TORSDOF 7
ENDMDL
MODEL 5
REMARK VINA RESULT:      -4.7     16.541     17.157
REMARK  Name = 
REMARK  7 active torsions:
REMARK  status: ('A' for Active; 'I' for Inactive)
REMARK    1  A    between atoms: S_2  and  C_5
REMARK    2  A    between atoms: C_8  and  C_9
REMARK    3  A    between atoms: C_9  and  N_10
REMARK    4  A    between atoms: N_10  and  C_11
REMARK    5  A    between atoms: C_14  and  C_15
REMARK    6  A    between atoms: C_15  and  N_16
REMARK    7  A    between atoms: N_19  and  C_20
REMARK                            x       y       z     vdW  Elec       q    Type
REMARK                         _______ _______ _______ _____ _____    ______ ____
ROOT
ATOM     11  C   UNL     1      -4.802  -9.852  10.941  0.00  0.00    +0.135 C 
ATOM     12  C   UNL     1      -4.024  -9.632  10.777  0.00  0.00    +0.162 C 
ATOM     13  O   UNL     1      -3.556  -9.850  11.420  0.00  0.00    -0.350 OA
ATOM     14  C   UNL     1      -4.044 -10.205  11.982  0.00  0.00    +0.169 C 
ATOM     26  C   UNL     1      -4.815 -10.207  11.687  0.00  0.00    +0.199 C 
ATOM     27  O   UNL     1      -5.480 -10.509  12.069  0.00  0.00    -0.219 OA
ENDROOT
BRANCH  11  10
ATOM     10  N   UNL     1      -5.453  -9.740  10.448  0.00  0.00    -0.209 NA
BRANCH  10   9
ATOM      9  C   UNL     1      -5.656  -8.978  10.202  0.00  0.00    +0.115 C 
BRANCH   9   8
ATOM      5  C   UNL     1      -7.798  -8.589   9.022  0.00  0.00    +0.106 A 
ATOM      6  C   UNL     1      -7.082  -8.483   8.625  0.00  0.00    +0.018 A 
ATOM      7  C   UNL     1      -6.369  -8.612   9.018  0.00  0.00    -0.002 A 
ATOM      8  C   UNL     1      -6.370  -8.848   9.808  0.00  0.00    -0.005 A 
ATOM     28  C   UNL     1      -7.085  -8.955  10.206  0.00  0.00    -0.002 A 
ATOM     29  C   UNL     1      -7.799  -8.825   9.812  0.00  0.00    +0.018 A 
BRANCH   5   2
ATOM      1  C   UNL     1      -9.224  -8.330   8.236  0.00  0.00    +0.182 C 
ATOM      2  S   UNL     1      -8.511  -8.459   8.629  0.00  0.00    +0.010 S 
ATOM      3  O   UNL     1      -8.347  -9.091   8.124  0.00  0.00    -0.169 OA
ATOM      4  O   UNL     1      -8.675  -7.829   9.134  0.00  0.00    -0.169 OA
ENDBRANCH   5   2
ENDBRANCH   9   8
ENDBRANCH  10   9
ENDBRANCH  11  10
BRANCH  14  15
ATOM     15  C   UNL     1      -3.804 -10.505  12.713  0.00  0.00    +0.149 C 
BRANCH  15  16
ATOM     16  N   UNL     1      -3.043 -10.351  12.992  0.00  0.00    -0.184 NA
ATOM     17  C   UNL     1      -2.859 -10.490  13.784  0.00  0.00    +0.344 C 
ATOM     18  O   UNL     1      -3.435 -10.781  14.296  0.00  0.00    -0.249 OA
ATOM     19  N   UNL     1      -2.098 -10.336  14.063  0.00  0.00    -0.161 NA
BRANCH  19  20
ATOM     20  C   UNL     1      -1.914 -10.475  14.855  0.00  0.00    +0.075 A 
ATOM     21  C   UNL     1      -2.509 -10.450  15.427  0.00  0.00    +0.017 A 
ATOM     22  C   UNL     1      -2.326 -10.588  16.219  0.00  0.00    +0.001 A 
ATOM     23  C   UNL     1      -1.549 -10.751  16.440  0.00  0.00    +0.000 A 
ATOM     24  C   UNL     1      -0.953 -10.776  15.869  0.00  0.00    +0.001 A 
ATOM     25  C   UNL     1      -1.137 -10.637  15.076  0.00  0.00    +0.017 A 
ENDBRANCH  19  20
ENDBRANCH  15  16
ENDBRANCH  14  15
TORSDOF 7
ENDMDL
MODEL 6
REMARK VINA RESULT:      -4.2     17.723     19.224
REMARK  Name = 
REMARK  7 active torsions:
REMARK  status: ('A' for Active; 'I' for Inactive)
REMARK    1  A    between atoms: S_2  and  C_5
REMARK    2  A    between atoms: C_8  and  C_9
REMARK    3  A    between atoms: C_9  and  N_10
REMARK    4  A    between atoms: N_10  and  C_11
REMARK    5  A    between atoms: C_14  and  C_15
REMARK    6  A    between atoms: C_15  and  N_16
REMARK    7  A    between atoms: N_19  and  C_20
REMARK                            x       y       z     vdW  Elec       q    Type
REMARK                         _______ _______ _______ _____ _____    ______ ____
ROOT
ATOM     11  C   UNL     1      -5.158  -9.728   9.939  0.00  0.00    +0.135 C 
ATOM     12  C   UNL     1      -5.686 -10.111  10.444  0.00  0.00    +0.162 C 
ATOM     13  O   UNL     1      -6.452  -9.946  10.184  0.00  0.00    -0.350 OA
ATOM     14  C   UNL     1      -6.398  -9.462   9.519  0.00  0.00    +0.169 C 
ATOM     26  C   UNL     1      -5.598  -9.326   9.367  0.00  0.00    +0.199 C 
ATOM     27  O   UNL     1      -5.293  -8.870   8.751  0.00  0.00    -0.219 OA
ENDROOT
BRANCH  11  10
ATOM     10  N   UNL     1      -4.336  -9.743   9.994  0.00  0.00    -0.209 NA
BRANCH  10   9
ATOM      9  C   UNL     1      -3.974 -10.021  10.682  0.00  0.00    +0.115 C 
BRANCH   9   8
ATOM      5  C   UNL     1      -1.620  -9.430  11.170  0.00  0.00    +0.106 A 
ATOM      6  C   UNL     1      -2.075  -8.946  10.679  0.00  0.00    +0.018 A 
ATOM      7  C   UNL     1      -2.859  -9.143  10.517  0.00  0.00    -0.002 A 
ATOM      8  C   UNL     1      -3.189  -9.823  10.845  0.00  0.00    -0.005 A 
ATOM     28  C   UNL     1      -2.736 -10.308  11.335  0.00  0.00    -0.002 A 
ATOM     29  C   UNL     1      -1.951 -10.111  11.497  0.00  0.00    +0.018 A 
BRANCH   5   2
ATOM      1  C   UNL     1      -0.052  -9.036  11.495  0.00  0.00    +0.182 C 
ATOM      2  S   UNL     1      -0.836  -9.233  11.332  0.00  0.00    +0.010 S 
ATOM      3  O   UNL     1      -0.743  -8.964  10.557  0.00  0.00    -0.169 OA
ATOM      4  O   UNL     1      -0.929  -9.502  12.106  0.00  0.00    -0.169 OA
ENDBRANCH   5   2
ENDBRANCH   9   8
ENDBRANCH  10   9
ENDBRANCH  11  10
BRANCH  14  15
ATOM     15  C   UNL     1      -7.032  -9.164   9.082  0.00  0.00    +0.149 C 
BRANCH  15  16
ATOM     16  N   UNL     1      -7.675  -8.823   9.470  0.00  0.00    -0.184 NA
ATOM     17  C   UNL     1      -8.252  -8.424   9.037  0.00  0.00    +0.344 C 
ATOM     18  O   UNL     1      -8.187  -8.365   8.218  0.00  0.00    -0.249 OA
ATOM     19  N   UNL     1      -8.896  -8.082   9.425  0.00  0.00    -0.161 NA
BRANCH  19  20
ATOM     20  C   UNL     1      -9.474  -7.683   8.992  0.00  0.00    +0.075 A 
ATOM     21  C   UNL     1     -10.142  -8.087   8.725  0.00  0.00    +0.017 A 
ATOM     22  C   UNL     1     -10.719  -7.688   8.292  0.00  0.00    +0.001 A 
ATOM     23  C   UNL     1     -10.629  -6.886   8.125  0.00  0.00    +0.000 A 
ATOM     24  C   UNL     1      -9.961  -6.481   8.391  0.00  0.00    +0.001 A 
ATOM     25  C   UNL     1      -9.383  -6.881   8.825  0.00  0.00    +0.017 A 
ENDBRANCH  19  20
ENDBRANCH  15  16
ENDBRANCH  14  15
TORSDOF 7
ENDMDL
