MODEL 1
REMARK VINA RESULT:     -12.0      0.000      0.000
REMARK  Name = 
REMARK  5 active torsions:
REMARK  status: ('A' for Active; 'I' for Inactive)
REMARK    1  A    between atoms: C_2  and  C_24
REMARK    2  A    between atoms: N_3  and  C_4
REMARK    3  A    between atoms: C_8  and  N_12
REMARK    4  A    between atoms: C_14  and  C_15
REMARK    5  A    between atoms: C_15  and  C_16
REMARK                            x       y       z     vdW  Elec       q    Type
REMARK                         _______ _______ _______ _____ _____    ______ ____
ROOT
ATOM      4  C   UNL     1      -3.702   0.275  24.305  0.00  0.00    +0.154 C 
ATOM      5  C   UNL     1      -3.006   0.610  24.017  0.00  0.00    +0.166 C 
ATOM      6  O   UNL     1      -3.008   1.411  24.216  0.00  0.00    -0.350 OA
ATOM      7  C   UNL     1      -3.705   1.571  24.625  0.00  0.00    +0.169 C 
ATOM      8  C   UNL     1      -4.138   2.164  25.001  0.00  0.00    +0.166 C 
ATOM      9  C   UNL     1      -4.835   1.829  25.288  0.00  0.00    +0.169 C 
ATOM     10  O   UNL     1      -4.833   1.029  25.090  0.00  0.00    -0.350 OA
ATOM     11  C   UNL     1      -4.134   0.869  24.680  0.00  0.00    +0.167 C 
ENDROOT
BRANCH   8  12
ATOM     12  N   UNL     1      -3.913   2.955  25.076  0.00  0.00    -0.227 N 
ATOM     13  C   UNL     1      -3.288   3.240  25.535  0.00  0.00    +0.113 A 
ATOM     14  C   UNL     1      -3.263   4.060  25.448  0.00  0.00    +0.101 A 
ATOM     22  N   UNL     1      -3.870   4.281  24.936  0.00  0.00    -0.133 NA
ATOM     23  N   UNL     1      -4.272   3.598  24.706  0.00  0.00    -0.064 NA
BRANCH  14  15
ATOM     15  C   UNL     1      -2.723   4.569  25.810  0.00  0.00    +0.049 C 
BRANCH  15  16
ATOM     16  C   UNL     1      -1.984   4.698  25.467  0.00  0.00    +0.006 C 
ATOM     17  C   UNL     1      -1.406   4.111  25.501  0.00  0.00    +0.000 C 
ATOM     18  C   UNL     1      -0.667   4.240  25.158  0.00  0.00    +0.000 C 
ATOM     19  C   UNL     1      -0.505   4.956  24.782  0.00  0.00    +0.000 C 
ATOM     20  C   UNL     1      -1.084   5.544  24.748  0.00  0.00    +0.000 C 
ATOM     21  C   UNL     1      -1.823   5.415  25.091  0.00  0.00    +0.000 C 
ENDBRANCH  15  16
ENDBRANCH  14  15
ENDBRANCH   8  12
BRANCH   4   3
ATOM      1  O   UNL     1      -2.599  -0.925  24.562  0.00  0.00    -0.273 OA
ATOM      2  C   UNL     1      -3.376  -1.115  24.358  0.00  0.00    +0.241 C 
ATOM      3  N   UNL     1      -3.928  -0.515  24.230  0.00  0.00    -0.202 NA
BRANCH   2  24
ATOM     24  C   UNL     1      -3.601  -1.905  24.283  0.00  0.00    +0.078 C 
ATOM     25  C   UNL     1      -4.181  -2.119  23.736  0.00  0.00    +0.009 C 
ATOM     26  C   UNL     1      -4.405  -2.909  23.661  0.00  0.00    +0.000 C 
ATOM     27  C   UNL     1      -4.051  -3.486  24.133  0.00  0.00    +0.000 C 
ATOM     28  C   UNL     1      -3.472  -3.272  24.680  0.00  0.00    +0.000 C 
ATOM     29  C   UNL     1      -3.246  -2.482  24.755  0.00  0.00    +0.009 C 
ENDBRANCH   2  24
ENDBRANCH   4   3
TORSDOF 5
ENDMDL
MODEL 2
REMARK VINA RESULT:     -11.0      3.858      6.016
REMARK  Name = 
REMARK  5 active torsions:
REMARK  status: ('A' for Active; 'I' for Inactive)
REMARK    1  A    between atoms: C_2  and  C_24
REMARK    2  A    between atoms: N_3  and  C_4
REMARK    3  A    between atoms: C_8  and  N_12
REMARK    4  A    between atoms: C_14  and  C_15
REMARK    5  A    between atoms: C_15  and  C_16
REMARK                            x       y       z     vdW  Elec       q    Type
REMARK                         _______ _______ _______ _____ _____    ______ ____
ROOT
ATOM      4  C   UNL     1       0.963   0.432  23.499  0.00  0.00    +0.154 C 
ATOM      5  C   UNL     1       0.574  -0.184  23.112  0.00  0.00    +0.166 C 
ATOM      6  O   UNL     1      -0.233  -0.113  23.270  0.00  0.00    -0.350 OA
ATOM      7  C   UNL     1      -0.342   0.545  23.754  0.00  0.00    +0.169 C 
ATOM      8  C   UNL     1      -0.906   0.996  24.152  0.00  0.00    +0.166 C 
ATOM      9  C   UNL     1      -0.516   1.612  24.539  0.00  0.00    +0.169 C 
ATOM     10  O   UNL     1       0.290   1.541  24.380  0.00  0.00    -0.350 OA
ATOM     11  C   UNL     1       0.398   0.882  23.895  0.00  0.00    +0.167 C 
ENDROOT
BRANCH   8  12
ATOM     12  N   UNL     1      -1.720   0.856  24.161  0.00  0.00    -0.227 N 
ATOM     13  C   UNL     1      -2.121   0.357  24.682  0.00  0.00    +0.113 A 
ATOM     14  C   UNL     1      -2.923   0.383  24.493  0.00  0.00    +0.101 A 
ATOM     22  N   UNL     1      -3.018   0.898  23.856  0.00  0.00    -0.133 NA
ATOM     23  N   UNL     1      -2.275   1.190  23.651  0.00  0.00    -0.064 NA
BRANCH  14  15
ATOM     15  C   UNL     1      -3.525  -0.033  24.875  0.00  0.00    +0.049 C 
BRANCH  15  16
ATOM     16  C   UNL     1      -3.655  -0.827  24.695  0.00  0.00    +0.006 C 
ATOM     17  C   UNL     1      -3.334  -1.417  25.174  0.00  0.00    +0.000 C 
ATOM     18  C   UNL     1      -3.465  -2.211  24.994  0.00  0.00    +0.000 C 
ATOM     19  C   UNL     1      -3.917  -2.416  24.335  0.00  0.00    +0.000 C 
ATOM     20  C   UNL     1      -4.238  -1.826  23.856  0.00  0.00    +0.000 C 
ATOM     21  C   UNL     1      -4.108  -1.032  24.036  0.00  0.00    +0.000 C 
ENDBRANCH  15  16
ENDBRANCH  14  15
ENDBRANCH   8  12
BRANCH   4   3
ATOM      1  O   UNL     1       1.912  -0.281  22.351  0.00  0.00    -0.273 OA
ATOM      2  C   UNL     1       2.250   0.215  22.916  0.00  0.00    +0.241 C 
ATOM      3  N   UNL     1       1.777   0.572  23.490  0.00  0.00    -0.202 NA
BRANCH   2  24
ATOM     24  C   UNL     1       3.064   0.356  22.907  0.00  0.00    +0.078 C 
ATOM     25  C   UNL     1       3.356   1.072  22.621  0.00  0.00    +0.009 C 
ATOM     26  C   UNL     1       4.168   1.212  22.612  0.00  0.00    +0.000 C 
ATOM     27  C   UNL     1       4.690   0.636  22.890  0.00  0.00    +0.000 C 
ATOM     28  C   UNL     1       4.398  -0.081  23.176  0.00  0.00    +0.000 C 
ATOM     29  C   UNL     1       3.584  -0.221  23.185  0.00  0.00    +0.009 C 
ENDBRANCH   2  24
ENDBRANCH   4   3
TORSDOF 5
ENDMDL
MODEL 3
REMARK VINA RESULT:     -10.9      1.817      6.236
REMARK  Name = 
REMARK  5 active torsions:
REMARK  status: ('A' for Active; 'I' for Inactive)
REMARK    1  A    between atoms: C_2  and  C_24
REMARK    2  A    between atoms: N_3  and  C_4
REMARK    3  A    between atoms: C_8  and  N_12
REMARK    4  A    between atoms: C_14  and  C_15
REMARK    5  A    between atoms: C_15  and  C_16
REMARK                            x       y       z     vdW  Elec       q    Type
REMARK                         _______ _______ _______ _____ _____    ______ ____
ROOT
ATOM      4  C   UNL     1      -1.335   2.031  24.665  0.00  0.00    +0.154 C 
ATOM      5  C   UNL     1      -1.798   1.733  24.052  0.00  0.00    +0.166 C 
ATOM      6  O   UNL     1      -1.863   0.917  24.155  0.00  0.00    -0.350 OA
ATOM      7  C   UNL     1      -1.440   0.711  24.832  0.00  0.00    +0.169 C 
ATOM      8  C   UNL     1      -1.219   0.080  25.316  0.00  0.00    +0.166 C 
ATOM      9  C   UNL     1      -0.756   0.379  25.930  0.00  0.00    +0.169 C 
ATOM     10  O   UNL     1      -0.691   1.194  25.826  0.00  0.00    -0.350 OA
ATOM     11  C   UNL     1      -1.114   1.400  25.148  0.00  0.00    +0.167 C 
ENDROOT
BRANCH   8  12
ATOM     12  N   UNL     1      -1.424  -0.711  25.204  0.00  0.00    -0.227 N 
ATOM     13  C   UNL     1      -2.159  -1.050  25.369  0.00  0.00    +0.113 A 
ATOM     14  C   UNL     1      -2.120  -1.850  25.175  0.00  0.00    +0.101 A 
ATOM     22  N   UNL     1      -1.362  -2.007  24.890  0.00  0.00    -0.133 NA
ATOM     23  N   UNL     1      -0.932  -1.303  24.908  0.00  0.00    -0.064 NA
BRANCH  14  15
ATOM     15  C   UNL     1      -2.732  -2.399  25.252  0.00  0.00    +0.049 C 
BRANCH  15  16
ATOM     16  C   UNL     1      -3.335  -2.425  24.691  0.00  0.00    +0.006 C 
ATOM     17  C   UNL     1      -3.384  -3.061  24.168  0.00  0.00    +0.000 C 
ATOM     18  C   UNL     1      -3.988  -3.087  23.606  0.00  0.00    +0.000 C 
ATOM     19  C   UNL     1      -4.543  -2.478  23.567  0.00  0.00    +0.000 C 
ATOM     20  C   UNL     1      -4.493  -1.841  24.091  0.00  0.00    +0.000 C 
ATOM     21  C   UNL     1      -3.890  -1.815  24.652  0.00  0.00    +0.000 C 
ENDBRANCH  15  16
ENDBRANCH  14  15
ENDBRANCH   8  12
BRANCH   4   3
ATOM      1  O   UNL     1      -2.471   3.214  24.480  0.00  0.00    -0.273 OA
ATOM      2  C   UNL     1      -1.698   3.413  24.684  0.00  0.00    +0.241 C 
ATOM      3  N   UNL     1      -1.129   2.822  24.777  0.00  0.00    -0.202 NA
BRANCH   2  24
ATOM     24  C   UNL     1      -1.492   4.205  24.796  0.00  0.00    +0.078 C 
ATOM     25  C   UNL     1      -0.758   4.481  24.539  0.00  0.00    +0.009 C 
ATOM     26  C   UNL     1      -0.553   5.271  24.651  0.00  0.00    +0.000 C 
ATOM     27  C   UNL     1      -1.081   5.787  25.020  0.00  0.00    +0.000 C 
ATOM     28  C   UNL     1      -1.815   5.511  25.277  0.00  0.00    +0.000 C 
ATOM     29  C   UNL     1      -2.020   4.720  25.165  0.00  0.00    +0.009 C 
ENDBRANCH   2  24
ENDBRANCH   4   3
TORSDOF 5
ENDMDL
MODEL 4
REMARK VINA RESULT:     -10.4      1.667      2.393
REMARK  Name = 
REMARK  5 active torsions:
REMARK  status: ('A' for Active; 'I' for Inactive)
REMARK    1  A    between atoms: C_2  and  C_24
REMARK    2  A    between atoms: N_3  and  C_4
REMARK    3  A    between atoms: C_8  and  N_12
REMARK    4  A    between atoms: C_14  and  C_15
REMARK    5  A    between atoms: C_15  and  C_16
REMARK                            x       y       z     vdW  Elec       q    Type
REMARK                         _______ _______ _______ _____ _____    ______ ____
ROOT
ATOM      4  C   UNL     1      -2.325  -0.105  24.240  0.00  0.00    +0.154 C 
ATOM      5  C   UNL     1      -2.796   0.573  24.246  0.00  0.00    +0.166 C 
ATOM      6  O   UNL     1      -2.300   1.226  24.337  0.00  0.00    -0.350 OA
ATOM      7  C   UNL     1      -1.524   0.953  24.386  0.00  0.00    +0.169 C 
ATOM      8  C   UNL     1      -0.737   1.186  24.473  0.00  0.00    +0.166 C 
ATOM      9  C   UNL     1      -0.267   0.509  24.466  0.00  0.00    +0.169 C 
ATOM     10  O   UNL     1      -0.762  -0.144  24.375  0.00  0.00    -0.350 OA
ATOM     11  C   UNL     1      -1.539   0.130  24.326  0.00  0.00    +0.167 C 
ENDROOT
BRANCH   8  12
ATOM     12  N   UNL     1      -0.469   1.963  24.552  0.00  0.00    -0.227 N 
ATOM     13  C   UNL     1      -0.673   2.488  25.155  0.00  0.00    +0.113 A 
ATOM     14  C   UNL     1      -0.280   3.200  25.018  0.00  0.00    +0.101 A 
ATOM     22  N   UNL     1       0.168   3.114  24.331  0.00  0.00    -0.133 NA
ATOM     23  N   UNL     1       0.051   2.350  24.043  0.00  0.00    -0.064 NA
BRANCH  14  15
ATOM     15  C   UNL     1      -0.326   3.878  25.486  0.00  0.00    +0.049 C 
BRANCH  15  16
ATOM     16  C   UNL     1      -0.931   4.424  25.362  0.00  0.00    +0.006 C 
ATOM     17  C   UNL     1      -1.677   4.294  25.686  0.00  0.00    +0.000 C 
ATOM     18  C   UNL     1      -2.282   4.841  25.561  0.00  0.00    +0.000 C 
ATOM     19  C   UNL     1      -2.140   5.518  25.113  0.00  0.00    +0.000 C 
ATOM     20  C   UNL     1      -1.393   5.649  24.788  0.00  0.00    +0.000 C 
ATOM     21  C   UNL     1      -0.788   5.102  24.913  0.00  0.00    +0.000 C 
ENDBRANCH  15  16
ENDBRANCH  14  15
ENDBRANCH   8  12
BRANCH   4   3
ATOM      1  O   UNL     1      -3.780  -0.545  24.882  0.00  0.00    -0.273 OA
ATOM      2  C   UNL     1      -3.321  -1.101  24.482  0.00  0.00    +0.241 C 
ATOM      3  N   UNL     1      -2.594  -0.881  24.160  0.00  0.00    -0.202 NA
BRANCH   2  24
ATOM     24  C   UNL     1      -3.590  -1.877  24.402  0.00  0.00    +0.078 C 
ATOM     25  C   UNL     1      -3.293  -2.468  24.895  0.00  0.00    +0.009 C 
ATOM     26  C   UNL     1      -3.561  -3.244  24.815  0.00  0.00    +0.000 C 
ATOM     27  C   UNL     1      -4.127  -3.429  24.243  0.00  0.00    +0.000 C 
ATOM     28  C   UNL     1      -4.424  -2.837  23.751  0.00  0.00    +0.000 C 
ATOM     29  C   UNL     1      -4.155  -2.061  23.830  0.00  0.00    +0.009 C 
ENDBRANCH   2  24
ENDBRANCH   4   3
TORSDOF 5
ENDMDL
MODEL 5
REMARK VINA RESULT:     -10.1      1.079      5.882
REMARK  Name = 
REMARK  5 active torsions:
REMARK  status: ('A' for Active; 'I' for Inactive)
REMARK    1  A    between atoms: C_2  and  C_24
REMARK    2  A    between atoms: N_3  and  C_4
REMARK    3  A    between atoms: C_8  and  N_12
REMARK    4  A    between atoms: C_14  and  C_15
REMARK    5  A    between atoms: C_15  and  C_16
REMARK                            x       y       z     vdW  Elec       q    Type
REMARK                         _______ _______ _______ _____ _____    ______ ____
ROOT
ATOM      4  C   UNL     1      -2.458   2.461  24.476  0.00  0.00    +0.154 C 
ATOM      5  C   UNL     1      -1.930   1.850  24.310  0.00  0.00    +0.166 C 
ATOM      6  O   UNL     1      -2.343   1.138  24.351  0.00  0.00    -0.350 OA
ATOM      7  C   UNL     1      -3.127   1.308  24.541  0.00  0.00    +0.169 C 
ATOM      8  C   UNL     1      -3.868   0.974  24.685  0.00  0.00    +0.166 C 
ATOM      9  C   UNL     1      -4.396   1.585  24.850  0.00  0.00    +0.169 C 
ATOM     10  O   UNL     1      -3.983   2.297  24.809  0.00  0.00    -0.350 OA
ATOM     11  C   UNL     1      -3.198   2.126  24.619  0.00  0.00    +0.167 C 
ENDROOT
BRANCH   8  12
ATOM     12  N   UNL     1      -4.048   0.169  24.665  0.00  0.00    -0.227 N 
ATOM     13  C   UNL     1      -3.668  -0.424  25.096  0.00  0.00    +0.113 A 
ATOM     14  C   UNL     1      -4.025  -1.144  24.909  0.00  0.00    +0.101 A 
ATOM     22  N   UNL     1      -4.625  -0.996  24.363  0.00  0.00    -0.133 NA
ATOM     23  N   UNL     1      -4.639  -0.185  24.213  0.00  0.00    -0.064 NA
BRANCH  14  15
ATOM     15  C   UNL     1      -3.817  -1.882  25.214  0.00  0.00    +0.049 C 
BRANCH  15  16
ATOM     16  C   UNL     1      -3.224  -2.326  24.852  0.00  0.00    +0.006 C 
ATOM     17  C   UNL     1      -3.421  -2.894  24.288  0.00  0.00    +0.000 C 
ATOM     18  C   UNL     1      -2.828  -3.338  23.925  0.00  0.00    +0.000 C 
ATOM     19  C   UNL     1      -2.038  -3.215  24.127  0.00  0.00    +0.000 C 
ATOM     20  C   UNL     1      -1.841  -2.647  24.693  0.00  0.00    +0.000 C 
ATOM     21  C   UNL     1      -2.434  -2.202  25.055  0.00  0.00    +0.000 C 
ENDBRANCH  15  16
ENDBRANCH  14  15
ENDBRANCH   8  12
BRANCH   4   3
ATOM      1  O   UNL     1      -1.137   2.992  25.310  0.00  0.00    -0.273 OA
ATOM      2  C   UNL     1      -1.618   3.531  24.912  0.00  0.00    +0.241 C 
ATOM      3  N   UNL     1      -2.278   3.266  24.495  0.00  0.00    -0.202 NA
BRANCH   2  24
ATOM     24  C   UNL     1      -1.438   4.337  24.931  0.00  0.00    +0.078 C 
ATOM     25  C   UNL     1      -0.714   4.605  24.640  0.00  0.00    +0.009 C 
ATOM     26  C   UNL     1      -0.534   5.409  24.659  0.00  0.00    +0.000 C 
ATOM     27  C   UNL     1      -1.078   5.946  24.970  0.00  0.00    +0.000 C 
ATOM     28  C   UNL     1      -1.801   5.679  25.261  0.00  0.00    +0.000 C 
ATOM     29  C   UNL     1      -1.982   4.873  25.242  0.00  0.00    +0.009 C 
ENDBRANCH   2  24
ENDBRANCH   4   3
TORSDOF 5
ENDMDL
MODEL 6
REMARK VINA RESULT:     -10.1      3.906      5.387
REMARK  Name = 
REMARK  5 active torsions:
REMARK  status: ('A' for Active; 'I' for Inactive)
REMARK    1  A    between atoms: C_2  and  C_24
REMARK    2  A    between atoms: N_3  and  C_4
REMARK    3  A    between atoms: C_8  and  N_12
REMARK    4  A    between atoms: C_14  and  C_15
REMARK    5  A    between atoms: C_15  and  C_16
REMARK                            x       y       z     vdW  Elec       q    Type
REMARK                         _______ _______ _______ _____ _____    ______ ____
ROOT
ATOM      4  C   UNL     1       0.986   0.574  23.523  0.00  0.00    +0.154 C 
ATOM      5  C   UNL     1       0.540   0.016  23.111  0.00  0.00    +0.166 C 
ATOM      6  O   UNL     1      -0.256   0.157  23.271  0.00  0.00    -0.350 OA
ATOM      7  C   UNL     1      -0.304   0.803  23.782  0.00  0.00    +0.169 C 
ATOM      8  C   UNL     1      -0.825   1.290  24.196  0.00  0.00    +0.166 C 
ATOM      9  C   UNL     1      -0.379   1.849  24.608  0.00  0.00    +0.169 C 
ATOM     10  O   UNL     1       0.417   1.707  24.448  0.00  0.00    -0.350 OA
ATOM     11  C   UNL     1       0.464   1.061  23.937  0.00  0.00    +0.167 C 
ENDROOT
BRANCH   8  12
ATOM     12  N   UNL     1      -1.648   1.228  24.198  0.00  0.00    -0.227 N 
ATOM     13  C   UNL     1      -2.175   1.764  23.858  0.00  0.00    +0.113 A 
ATOM     14  C   UNL     1      -2.941   1.487  23.991  0.00  0.00    +0.101 A 
ATOM     22  N   UNL     1      -2.887   0.781  24.413  0.00  0.00    -0.133 NA
ATOM     23  N   UNL     1      -2.087   0.621  24.541  0.00  0.00    -0.064 NA
BRANCH  14  15
ATOM     15  C   UNL     1      -3.638   1.852  23.744  0.00  0.00    +0.049 C 
BRANCH  15  16
ATOM     16  C   UNL     1      -4.130   2.218  24.296  0.00  0.00    +0.006 C 
ATOM     17  C   UNL     1      -4.746   1.794  24.644  0.00  0.00    +0.000 C 
ATOM     18  C   UNL     1      -5.238   2.160  25.196  0.00  0.00    +0.000 C 
ATOM     19  C   UNL     1      -5.114   2.949  25.401  0.00  0.00    +0.000 C 
ATOM     20  C   UNL     1      -4.497   3.373  25.053  0.00  0.00    +0.000 C 
ATOM     21  C   UNL     1      -4.005   3.008  24.501  0.00  0.00    +0.000 C 
ENDBRANCH  15  16
ENDBRANCH  14  15
ENDBRANCH   8  12
BRANCH   4   3
ATOM      1  O   UNL     1       1.865  -0.146  22.326  0.00  0.00    -0.273 OA
ATOM      2  C   UNL     1       2.248   0.276  22.923  0.00  0.00    +0.241 C 
ATOM      3  N   UNL     1       1.809   0.636  23.521  0.00  0.00    -0.202 NA
BRANCH   2  24
ATOM     24  C   UNL     1       3.071   0.338  22.921  0.00  0.00    +0.078 C 
ATOM     25  C   UNL     1       3.432   1.024  22.641  0.00  0.00    +0.009 C 
ATOM     26  C   UNL     1       4.254   1.085  22.639  0.00  0.00    +0.000 C 
ATOM     27  C   UNL     1       4.716   0.460  22.916  0.00  0.00    +0.000 C 
ATOM     28  C   UNL     1       4.354  -0.226  23.196  0.00  0.00    +0.000 C 
ATOM     29  C   UNL     1       3.531  -0.288  23.198  0.00  0.00    +0.009 C 
ENDBRANCH   2  24
ENDBRANCH   4   3
TORSDOF 5
ENDMDL
MODEL 7
REMARK VINA RESULT:      -9.9      4.870      5.827
REMARK  Name = 
REMARK  5 active torsions:
REMARK  status: ('A' for Active; 'I' for Inactive)
REMARK    1  A    between atoms: C_2  and  C_24
REMARK    2  A    between atoms: N_3  and  C_4
REMARK    3  A    between atoms: C_8  and  N_12
REMARK    4  A    between atoms: C_14  and  C_15
REMARK    5  A    between atoms: C_15  and  C_16
REMARK                            x       y       z     vdW  Elec       q    Type
REMARK                         _______ _______ _______ _____ _____    ______ ____
ROOT
ATOM      4  C   UNL     1      -0.641   0.479  24.160  0.00  0.00    +0.154 C 
ATOM      5  C   UNL     1      -0.302   1.122  24.550  0.00  0.00    +0.166 C 
ATOM      6  O   UNL     1       0.473   1.203  24.280  0.00  0.00    -0.350 OA
ATOM      7  C   UNL     1       0.614   0.612  23.723  0.00  0.00    +0.169 C 
ATOM      8  C   UNL     1       1.179   0.296  23.212  0.00  0.00    +0.166 C 
ATOM      9  C   UNL     1       0.840  -0.346  22.821  0.00  0.00    +0.169 C 
ATOM     10  O   UNL     1       0.065  -0.428  23.091  0.00  0.00    -0.350 OA
ATOM     11  C   UNL     1      -0.075   0.164  23.649  0.00  0.00    +0.167 C 
ENDROOT
BRANCH   8  12
ATOM     12  N   UNL     1       1.949   0.575  23.109  0.00  0.00    -0.227 N 
ATOM     13  C   UNL     1       2.591   0.137  22.831  0.00  0.00    +0.113 A 
ATOM     14  C   UNL     1       3.250   0.632  22.817  0.00  0.00    +0.101 A 
ATOM     22  N   UNL     1       3.016   1.375  23.085  0.00  0.00    -0.133 NA
ATOM     23  N   UNL     1       2.212   1.340  23.266  0.00  0.00    -0.064 NA
BRANCH  14  15
ATOM     15  C   UNL     1       4.011   0.420  22.576  0.00  0.00    +0.049 C 
BRANCH  15  16
ATOM     16  C   UNL     1       4.561   0.158  23.131  0.00  0.00    +0.006 C 
ATOM     17  C   UNL     1       5.111   0.685  23.446  0.00  0.00    +0.000 C 
ATOM     18  C   UNL     1       5.662   0.423  24.002  0.00  0.00    +0.000 C 
ATOM     19  C   UNL     1       5.663  -0.366  24.243  0.00  0.00    +0.000 C 
ATOM     20  C   UNL     1       5.112  -0.893  23.927  0.00  0.00    +0.000 C 
ATOM     21  C   UNL     1       4.561  -0.632  23.372  0.00  0.00    +0.000 C 
ENDBRANCH  15  16
ENDBRANCH  14  15
ENDBRANCH   8  12
BRANCH   4   3
ATOM      1  O   UNL     1      -1.325   0.479  25.661  0.00  0.00    -0.273 OA
ATOM      2  C   UNL     1      -1.753   0.201  25.013  0.00  0.00    +0.241 C 
ATOM      3  N   UNL     1      -1.411   0.200  24.262  0.00  0.00    -0.202 NA
BRANCH   2  24
ATOM     24  C   UNL     1      -2.523  -0.078  25.116  0.00  0.00    +0.078 C 
ATOM     25  C   UNL     1      -3.163   0.377  24.863  0.00  0.00    +0.009 C 
ATOM     26  C   UNL     1      -3.932   0.098  24.966  0.00  0.00    +0.000 C 
ATOM     27  C   UNL     1      -4.062  -0.635  25.321  0.00  0.00    +0.000 C 
ATOM     28  C   UNL     1      -3.422  -1.090  25.574  0.00  0.00    +0.000 C 
ATOM     29  C   UNL     1      -2.651  -0.811  25.471  0.00  0.00    +0.009 C 
ENDBRANCH   2  24
ENDBRANCH   4   3
TORSDOF 5
ENDMDL
MODEL 8
REMARK VINA RESULT:      -9.8      2.946      4.499
REMARK  Name = 
REMARK  5 active torsions:
REMARK  status: ('A' for Active; 'I' for Inactive)
REMARK    1  A    between atoms: C_2  and  C_24
REMARK    2  A    between atoms: N_3  and  C_4
REMARK    3  A    between atoms: C_8  and  N_12
REMARK    4  A    between atoms: C_14  and  C_15
REMARK    5  A    between atoms: C_15  and  C_16
REMARK                            x       y       z     vdW  Elec       q    Type
REMARK                         _______ _______ _______ _____ _____    ______ ____
ROOT
ATOM      4  C   UNL     1      -0.243   1.700  24.276  0.00  0.00    +0.154 C 
ATOM      5  C   UNL     1      -0.800   1.183  24.597  0.00  0.00    +0.166 C 
ATOM      6  O   UNL     1      -1.434   1.633  24.873  0.00  0.00    -0.350 OA
ATOM      7  C   UNL     1      -1.269   2.426  24.723  0.00  0.00    +0.169 C 
ATOM      8  C   UNL     1      -1.559   3.195  24.801  0.00  0.00    +0.166 C 
ATOM      9  C   UNL     1      -1.002   3.712  24.479  0.00  0.00    +0.169 C 
ATOM     10  O   UNL     1      -0.368   3.262  24.203  0.00  0.00    -0.350 OA
ATOM     11  C   UNL     1      -0.533   2.468  24.354  0.00  0.00    +0.167 C 
ENDROOT
BRANCH   8  12
ATOM     12  N   UNL     1      -2.280   3.409  25.141  0.00  0.00    -0.227 N 
ATOM     13  C   UNL     1      -3.013   3.415  24.761  0.00  0.00    +0.113 A 
ATOM     14  C   UNL     1      -3.580   3.664  25.305  0.00  0.00    +0.101 A 
ATOM     22  N   UNL     1      -3.198   3.813  26.021  0.00  0.00    -0.133 NA
ATOM     23  N   UNL     1      -2.394   3.655  25.919  0.00  0.00    -0.064 NA
BRANCH  14  15
ATOM     15  C   UNL     1      -4.387   3.750  25.159  0.00  0.00    +0.049 C 
BRANCH  15  16
ATOM     16  C   UNL     1      -4.893   3.104  25.247  0.00  0.00    +0.006 C 
ATOM     17  C   UNL     1      -4.979   2.562  24.633  0.00  0.00    +0.000 C 
ATOM     18  C   UNL     1      -5.485   1.916  24.720  0.00  0.00    +0.000 C 
ATOM     19  C   UNL     1      -5.905   1.813  25.423  0.00  0.00    +0.000 C 
ATOM     20  C   UNL     1      -5.819   2.357  26.038  0.00  0.00    +0.000 C 
ATOM     21  C   UNL     1      -5.313   3.002  25.950  0.00  0.00    +0.000 C 
ENDBRANCH  15  16
ENDBRANCH  14  15
ENDBRANCH   8  12
BRANCH   4   3
ATOM      1  O   UNL     1      -0.102   0.264  23.474  0.00  0.00    -0.273 OA
ATOM      2  C   UNL     1       0.548   0.768  23.535  0.00  0.00    +0.241 C 
ATOM      3  N   UNL     1       0.478   1.486  23.936  0.00  0.00    -0.202 NA
BRANCH   2  24
ATOM     24  C   UNL     1       1.269   0.554  23.196  0.00  0.00    +0.078 C 
ATOM     25  C   UNL     1       1.297  -0.050  22.634  0.00  0.00    +0.009 C 
ATOM     26  C   UNL     1       2.018  -0.264  22.295  0.00  0.00    +0.000 C 
ATOM     27  C   UNL     1       2.710   0.126  22.516  0.00  0.00    +0.000 C 
ATOM     28  C   UNL     1       2.682   0.729  23.078  0.00  0.00    +0.000 C 
ATOM     29  C   UNL     1       1.961   0.944  23.418  0.00  0.00    +0.009 C 
ENDBRANCH   2  24
ENDBRANCH   4   3
TORSDOF 5
ENDMDL
MODEL 9
REMARK VINA RESULT:      -9.6      3.575      5.297
REMARK  Name = 
REMARK  5 active torsions:
REMARK  status: ('A' for Active; 'I' for Inactive)
REMARK    1  A    between atoms: C_2  and  C_24
REMARK    2  A    between atoms: N_3  and  C_4
REMARK    3  A    between atoms: C_8  and  N_12
REMARK    4  A    between atoms: C_14  and  C_15
REMARK    5  A    between atoms: C_15  and  C_16
REMARK                            x       y       z     vdW  Elec       q    Type
REMARK                         _______ _______ _______ _____ _____    ______ ____
ROOT
ATOM      4  C   UNL     1      -2.481   1.252  24.499  0.00  0.00    +0.154 C 
ATOM      5  C   UNL     1      -2.613   0.723  23.881  0.00  0.00    +0.166 C 
ATOM      6  O   UNL     1      -1.883   0.415  23.650  0.00  0.00    -0.350 OA
ATOM      7  C   UNL     1      -1.301   0.753  24.125  0.00  0.00    +0.169 C 
ATOM      8  C   UNL     1      -0.490   0.773  24.277  0.00  0.00    +0.166 C 
ATOM      9  C   UNL     1      -0.358   1.302  24.896  0.00  0.00    +0.169 C 
ATOM     10  O   UNL     1      -1.088   1.610  25.126  0.00  0.00    -0.350 OA
ATOM     11  C   UNL     1      -1.671   1.271  24.650  0.00  0.00    +0.167 C 
ENDROOT
BRANCH   8  12
ATOM     12  N   UNL     1       0.088   0.338  23.879  0.00  0.00    -0.227 N 
ATOM     13  C   UNL     1       0.581   0.620  23.280  0.00  0.00    +0.113 A 
ATOM     14  C   UNL     1       1.071   0.002  23.042  0.00  0.00    +0.101 A 
ATOM     22  N   UNL     1       0.882  -0.662  23.492  0.00  0.00    -0.133 NA
ATOM     23  N   UNL     1       0.274  -0.454  24.010  0.00  0.00    -0.064 NA
BRANCH  14  15
ATOM     15  C   UNL     1       1.650   0.041  22.454  0.00  0.00    +0.049 C 
BRANCH  15  16
ATOM     16  C   UNL     1       2.440   0.160  22.661  0.00  0.00    +0.006 C 
ATOM     17  C   UNL     1       2.755   0.922  22.659  0.00  0.00    +0.000 C 
ATOM     18  C   UNL     1       3.545   1.042  22.865  0.00  0.00    +0.000 C 
ATOM     19  C   UNL     1       4.019   0.400  23.074  0.00  0.00    +0.000 C 
ATOM     20  C   UNL     1       3.703  -0.363  23.076  0.00  0.00    +0.000 C 
ATOM     21  C   UNL     1       2.913  -0.482  22.869  0.00  0.00    +0.000 C 
ENDBRANCH  15  16
ENDBRANCH  14  15
ENDBRANCH   8  12
BRANCH   4   3
ATOM      1  O   UNL     1      -3.810   1.797  23.686  0.00  0.00    -0.273 OA
ATOM      2  C   UNL     1      -3.723   1.959  24.490  0.00  0.00    +0.241 C 
ATOM      3  N   UNL     1      -3.059   1.687  24.897  0.00  0.00    -0.202 NA
BRANCH   2  24
ATOM     24  C   UNL     1      -4.301   2.394  24.888  0.00  0.00    +0.078 C 
ATOM     25  C   UNL     1      -4.234   3.214  24.945  0.00  0.00    +0.009 C 
ATOM     26  C   UNL     1      -4.812   3.648  25.342  0.00  0.00    +0.000 C 
ATOM     27  C   UNL     1      -5.456   3.262  25.684  0.00  0.00    +0.000 C 
ATOM     28  C   UNL     1      -5.523   2.442  25.627  0.00  0.00    +0.000 C 
ATOM     29  C   UNL     1      -4.945   2.007  25.230  0.00  0.00    +0.009 C 
ENDBRANCH   2  24
ENDBRANCH   4   3
TORSDOF 5
ENDMDL
