MODEL 1
REMARK VINA RESULT:      -9.3      0.000      0.000
REMARK  Name = 
REMARK  6 active torsions:
REMARK  status: ('A' for Active; 'I' for Inactive)
REMARK    1  A    between atoms: C_2  and  C_3
REMARK    2  A    between atoms: C_6  and  N_9
REMARK    3  A    between atoms: N_9  and  C_10
REMARK    4  A    between atoms: C_10  and  C_11
REMARK    5  A    between atoms: C_11  and  C_12
REMARK    6  A    between atoms: C_15  and  C_16
REMARK                            x       y       z     vdW  Elec       q    Type
REMARK                         _______ _______ _______ _____ _____    ______ ____
ROOT
ATOM     10  C   UNL     1      -3.463   0.882  24.464  0.00  0.00    +0.119 C 
ATOM     19  C   UNL     1      -2.712   0.577  24.619  0.00  0.00    +0.161 C 
ATOM     20  O   UNL     1      -2.388   1.094  24.064  0.00  0.00    -0.351 OA
ATOM     21  C   UNL     1      -3.138   1.398  23.909  0.00  0.00    +0.161 C 
ENDROOT
BRANCH  10   9
ATOM      9  N   UNL     1      -3.787   0.365  25.019  0.00  0.00    -0.217 NA
BRANCH   9   6
ATOM      3  C   UNL     1      -3.721  -2.078  24.626  0.00  0.00    +0.033 C 
ATOM      4  C   UNL     1      -4.094  -1.582  24.082  0.00  0.00    +0.004 C 
ATOM      5  C   UNL     1      -4.116  -0.768  24.213  0.00  0.00    +0.017 C 
ATOM      6  C   UNL     1      -3.766  -0.449  24.888  0.00  0.00    +0.073 C 
ATOM      7  C   UNL     1      -3.393  -0.945  25.432  0.00  0.00    +0.017 C 
ATOM      8  C   UNL     1      -3.370  -1.759  25.302  0.00  0.00    +0.004 C 
BRANCH   3   2
ATOM      1  O   UNL     1      -3.028  -3.238  24.163  0.00  0.00    -0.220 OA
ATOM      2  C   UNL     1      -3.699  -2.892  24.496  0.00  0.00    +0.182 C 
ENDBRANCH   3   2
ENDBRANCH   9   6
ENDBRANCH  10   9
BRANCH  10  11
ATOM     11  C   UNL     1      -4.213   1.186  24.309  0.00  0.00    +0.070 C 
BRANCH  11  12
ATOM     12  C   UNL     1      -4.440   1.911  24.631  0.00  0.00    +0.102 A 
ATOM     13  N   UNL     1      -4.019   2.619  24.574  0.00  0.00    -0.082 NA
ATOM     14  O   UNL     1      -4.446   3.201  24.974  0.00  0.00    -0.355 OA
ATOM     15  C   UNL     1      -5.129   2.853  25.277  0.00  0.00    +0.187 A 
ATOM     18  C   UNL     1      -5.126   2.056  25.066  0.00  0.00    +0.056 A 
BRANCH  15  16
ATOM     16  C   UNL     1      -5.714   3.236  25.717  0.00  0.00    +0.249 C 
ATOM     17  O   UNL     1      -5.759   4.060  25.715  0.00  0.00    -0.212 OA
ENDBRANCH  15  16
ENDBRANCH  11  12
ENDBRANCH  10  11
TORSDOF 6
ENDMDL
MODEL 2
REMARK VINA RESULT:      -9.3      1.311      1.861
REMARK  Name = 
REMARK  6 active torsions:
REMARK  status: ('A' for Active; 'I' for Inactive)
REMARK    1  A    between atoms: C_2  and  C_3
REMARK    2  A    between atoms: C_6  and  N_9
REMARK    3  A    between atoms: N_9  and  C_10
REMARK    4  A    between atoms: C_10  and  C_11
REMARK    5  A    between atoms: C_11  and  C_12
REMARK    6  A    between atoms: C_15  and  C_16
REMARK                            x       y       z     vdW  Elec       q    Type
REMARK                         _______ _______ _______ _____ _____    ______ ____
ROOT
ATOM     10  C   UNL     1      -4.425   1.421  24.771  0.00  0.00    +0.119 C 
ATOM     19  C   UNL     1      -4.919   1.028  25.302  0.00  0.00    +0.161 C 
ATOM     20  O   UNL     1      -5.544   1.520  25.085  0.00  0.00    -0.351 OA
ATOM     21  C   UNL     1      -5.051   1.913  24.555  0.00  0.00    +0.161 C 
ENDROOT
BRANCH  10   9
ATOM      9  N   UNL     1      -3.800   0.929  24.988  0.00  0.00    -0.217 NA
BRANCH   9   6
ATOM      3  C   UNL     1      -3.856  -1.475  24.401  0.00  0.00    +0.033 C 
ATOM      4  C   UNL     1      -3.792  -1.244  25.191  0.00  0.00    +0.004 C 
ATOM      5  C   UNL     1      -3.773  -0.443  25.386  0.00  0.00    +0.017 C 
ATOM      6  C   UNL     1      -3.818   0.128  24.793  0.00  0.00    +0.073 C 
ATOM      7  C   UNL     1      -3.882  -0.103  24.003  0.00  0.00    +0.017 C 
ATOM      8  C   UNL     1      -3.901  -0.905  23.807  0.00  0.00    +0.004 C 
BRANCH   3   2
ATOM      1  O   UNL     1      -3.661  -2.843  24.766  0.00  0.00    -0.220 OA
ATOM      2  C   UNL     1      -3.874  -2.277  24.205  0.00  0.00    +0.182 C 
ENDBRANCH   3   2
ENDBRANCH   9   6
ENDBRANCH  10   9
BRANCH  10  11
ATOM     11  C   UNL     1      -3.931   1.814  24.241  0.00  0.00    +0.070 C 
BRANCH  11  12
ATOM     12  C   UNL     1      -3.671   2.579  24.408  0.00  0.00    +0.102 A 
ATOM     13  N   UNL     1      -4.083   3.277  24.250  0.00  0.00    -0.082 NA
ATOM     14  O   UNL     1      -3.619   3.910  24.508  0.00  0.00    -0.355 OA
ATOM     15  C   UNL     1      -2.923   3.603  24.824  0.00  0.00    +0.187 A 
ATOM     18  C   UNL     1      -2.953   2.781  24.763  0.00  0.00    +0.056 A 
BRANCH  15  16
ATOM     16  C   UNL     1      -2.302   4.042  25.146  0.00  0.00    +0.249 C 
ATOM     17  O   UNL     1      -2.400   4.427  25.869  0.00  0.00    -0.212 OA
ENDBRANCH  15  16
ENDBRANCH  11  12
ENDBRANCH  10  11
TORSDOF 6
ENDMDL
MODEL 3
REMARK VINA RESULT:      -9.0      1.519      1.816
REMARK  Name = 
REMARK  6 active torsions:
REMARK  status: ('A' for Active; 'I' for Inactive)
REMARK    1  A    between atoms: C_2  and  C_3
REMARK    2  A    between atoms: C_6  and  N_9
REMARK    3  A    between atoms: N_9  and  C_10
REMARK    4  A    between atoms: C_10  and  C_11
REMARK    5  A    between atoms: C_11  and  C_12
REMARK    6  A    between atoms: C_15  and  C_16
REMARK                            x       y       z     vdW  Elec       q    Type
REMARK                         _______ _______ _______ _____ _____    ______ ____
ROOT
ATOM     10  C   UNL     1      -2.977   1.379  24.136  0.00  0.00    +0.119 C 
ATOM     19  C   UNL     1      -3.321   1.064  23.455  0.00  0.00    +0.161 C 
ATOM     20  O   UNL     1      -2.744   1.430  22.993  0.00  0.00    -0.351 OA
ATOM     21  C   UNL     1      -2.400   1.745  23.673  0.00  0.00    +0.161 C 
ENDROOT
BRANCH  10   9
ATOM      9  N   UNL     1      -3.554   1.013  24.598  0.00  0.00    -0.217 NA
BRANCH   9   6
ATOM      3  C   UNL     1      -3.568  -1.450  24.839  0.00  0.00    +0.033 C 
ATOM      4  C   UNL     1      -4.141  -1.077  24.376  0.00  0.00    +0.004 C 
ATOM      5  C   UNL     1      -4.136  -0.256  24.296  0.00  0.00    +0.017 C 
ATOM      6  C   UNL     1      -3.559   0.192  24.678  0.00  0.00    +0.073 C 
ATOM      7  C   UNL     1      -2.987  -0.181  25.141  0.00  0.00    +0.017 C 
ATOM      8  C   UNL     1      -2.991  -1.002  25.222  0.00  0.00    +0.004 C 
BRANCH   3   2
ATOM      1  O   UNL     1      -3.598  -2.752  24.250  0.00  0.00    -0.220 OA
ATOM      2  C   UNL     1      -3.573  -2.271  24.920  0.00  0.00    +0.182 C 
ENDBRANCH   3   2
ENDBRANCH   9   6
ENDBRANCH  10   9
BRANCH  10  11
ATOM     11  C   UNL     1      -2.633   1.694  24.815  0.00  0.00    +0.070 C 
BRANCH  11  12
ATOM     12  C   UNL     1      -2.709   2.499  24.981  0.00  0.00    +0.102 A 
ATOM     13  N   UNL     1      -3.389   2.955  24.872  0.00  0.00    -0.082 NA
ATOM     14  O   UNL     1      -3.218   3.727  25.109  0.00  0.00    -0.355 OA
ATOM     15  C   UNL     1      -2.435   3.748  25.364  0.00  0.00    +0.187 A 
ATOM     18  C   UNL     1      -2.119   2.990  25.286  0.00  0.00    +0.056 A 
BRANCH  15  16
ATOM     16  C   UNL     1      -2.035   4.412  25.649  0.00  0.00    +0.249 C 
ATOM     17  O   UNL     1      -1.671   4.932  25.122  0.00  0.00    -0.212 OA
ENDBRANCH  15  16
ENDBRANCH  11  12
ENDBRANCH  10  11
TORSDOF 6
ENDMDL
MODEL 4
REMARK VINA RESULT:      -8.8      0.764      4.407
REMARK  Name = 
REMARK  6 active torsions:
REMARK  status: ('A' for Active; 'I' for Inactive)
REMARK    1  A    between atoms: C_2  and  C_3
REMARK    2  A    between atoms: C_6  and  N_9
REMARK    3  A    between atoms: N_9  and  C_10
REMARK    4  A    between atoms: C_10  and  C_11
REMARK    5  A    between atoms: C_11  and  C_12
REMARK    6  A    between atoms: C_15  and  C_16
REMARK                            x       y       z     vdW  Elec       q    Type
REMARK                         _______ _______ _______ _____ _____    ______ ____
ROOT
ATOM     10  C   UNL     1      -3.393   0.659  24.560  0.00  0.00    +0.119 C 
ATOM     19  C   UNL     1      -2.931   1.231  24.186  0.00  0.00    +0.161 C 
ATOM     20  O   UNL     1      -2.251   0.891  24.504  0.00  0.00    -0.351 OA
ATOM     21  C   UNL     1      -2.712   0.319  24.878  0.00  0.00    +0.161 C 
ENDROOT
BRANCH  10   9
ATOM      9  N   UNL     1      -4.074   0.999  24.241  0.00  0.00    -0.217 NA
BRANCH   9   6
ATOM      3  C   UNL     1      -4.920   3.146  25.136  0.00  0.00    +0.033 C 
ATOM      4  C   UNL     1      -5.151   2.434  25.484  0.00  0.00    +0.004 C 
ATOM      5  C   UNL     1      -4.869   1.718  25.185  0.00  0.00    +0.017 C 
ATOM      6  C   UNL     1      -4.356   1.714  24.540  0.00  0.00    +0.073 C 
ATOM      7  C   UNL     1      -4.125   2.426  24.192  0.00  0.00    +0.017 C 
ATOM      8  C   UNL     1      -4.407   3.142  24.490  0.00  0.00    +0.004 C 
BRANCH   3   2
ATOM      1  O   UNL     1      -5.910   3.883  25.856  0.00  0.00    -0.220 OA
ATOM      2  C   UNL     1      -5.202   3.862  25.434  0.00  0.00    +0.182 C 
ENDBRANCH   3   2
ENDBRANCH   9   6
ENDBRANCH  10   9
BRANCH  10  11
ATOM     11  C   UNL     1      -3.854   0.086  24.933  0.00  0.00    +0.070 C 
BRANCH  11  12
ATOM     12  C   UNL     1      -3.850  -0.692  24.658  0.00  0.00    +0.102 A 
ATOM     13  N   UNL     1      -4.075  -0.940  23.903  0.00  0.00    -0.082 NA
ATOM     14  O   UNL     1      -3.984  -1.759  23.867  0.00  0.00    -0.355 OA
ATOM     15  C   UNL     1      -3.705  -2.017  24.598  0.00  0.00    +0.187 A 
ATOM     18  C   UNL     1      -3.621  -1.358  25.087  0.00  0.00    +0.056 A 
BRANCH  15  16
ATOM     16  C   UNL     1      -3.537  -2.799  24.805  0.00  0.00    +0.249 C 
ATOM     17  O   UNL     1      -3.568  -3.393  24.234  0.00  0.00    -0.212 OA
ENDBRANCH  15  16
ENDBRANCH  11  12
ENDBRANCH  10  11
TORSDOF 6
ENDMDL
MODEL 5
REMARK VINA RESULT:      -8.7      1.730      4.518
REMARK  Name = 
REMARK  6 active torsions:
REMARK  status: ('A' for Active; 'I' for Inactive)
REMARK    1  A    between atoms: C_2  and  C_3
REMARK    2  A    between atoms: C_6  and  N_9
REMARK    3  A    between atoms: N_9  and  C_10
REMARK    4  A    between atoms: C_10  and  C_11
REMARK    5  A    between atoms: C_11  and  C_12
REMARK    6  A    between atoms: C_15  and  C_16
REMARK                            x       y       z     vdW  Elec       q    Type
REMARK                         _______ _______ _______ _____ _____    ______ ____
ROOT
ATOM     10  C   UNL     1      -4.208   1.319  24.748  0.00  0.00    +0.119 C 
ATOM     19  C   UNL     1      -4.747   1.921  24.580  0.00  0.00    +0.161 C 
ATOM     20  O   UNL     1      -5.321   1.531  25.025  0.00  0.00    -0.351 OA
ATOM     21  C   UNL     1      -4.783   0.930  25.193  0.00  0.00    +0.161 C 
ENDROOT
BRANCH  10   9
ATOM      9  N   UNL     1      -3.633   1.709  24.303  0.00  0.00    -0.217 NA
BRANCH   9   6
ATOM      3  C   UNL     1      -2.580   3.773  25.173  0.00  0.00    +0.033 C 
ATOM      4  C   UNL     1      -2.296   3.034  25.407  0.00  0.00    +0.004 C 
ATOM      5  C   UNL     1      -2.648   2.346  25.117  0.00  0.00    +0.017 C 
ATOM      6  C   UNL     1      -3.282   2.396  24.593  0.00  0.00    +0.073 C 
ATOM      7  C   UNL     1      -3.566   3.135  24.359  0.00  0.00    +0.017 C 
ATOM      8  C   UNL     1      -3.215   3.823  24.648  0.00  0.00    +0.004 C 
BRANCH   3   2
ATOM      1  O   UNL     1      -1.484   4.689  25.193  0.00  0.00    -0.220 OA
ATOM      2  C   UNL     1      -2.230   4.461  25.463  0.00  0.00    +0.182 C 
ENDBRANCH   3   2
ENDBRANCH   9   6
ENDBRANCH  10   9
BRANCH  10  11
ATOM     11  C   UNL     1      -3.670   0.718  24.916  0.00  0.00    +0.070 C 
BRANCH  11  12
ATOM     12  C   UNL     1      -3.759  -0.026  24.570  0.00  0.00    +0.102 A 
ATOM     13  N   UNL     1      -3.987  -0.173  23.789  0.00  0.00    -0.082 NA
ATOM     14  O   UNL     1      -4.005  -0.990  23.680  0.00  0.00    -0.355 OA
ATOM     15  C   UNL     1      -3.789  -1.348  24.390  0.00  0.00    +0.187 A 
ATOM     18  C   UNL     1      -3.637  -0.753  24.940  0.00  0.00    +0.056 A 
BRANCH  15  16
ATOM     16  C   UNL     1      -3.734  -2.160  24.527  0.00  0.00    +0.249 C 
ATOM     17  O   UNL     1      -4.078  -2.692  23.998  0.00  0.00    -0.212 OA
ENDBRANCH  15  16
ENDBRANCH  11  12
ENDBRANCH  10  11
TORSDOF 6
ENDMDL
