MODEL 1
REMARK VINA RESULT:     -12.6      0.000      0.000
REMARK  Name = 
REMARK  4 active torsions:
REMARK  status: ('A' for Active; 'I' for Inactive)
REMARK    1  A    between atoms: C_2  and  C_4
REMARK    2  A    between atoms: C_4  and  C_5
REMARK    3  A    between atoms: C_7  and  C_18
REMARK    4  A    between atoms: N_20  and  C_21
REMARK                            x       y       z     vdW  Elec       q    Type
REMARK                         _______ _______ _______ _____ _____    ______ ____
ROOT
ATOM      5  C   UNL     1      -3.365   1.937  24.358  0.00  0.00    +0.095 C 
ATOM      6  N   UNL     1      -3.376   1.113  24.310  0.00  0.00    -0.207 NA
ATOM      7  C   UNL     1      -3.956   0.590  24.576  0.00  0.00    +0.155 C 
ATOM      8  C   UNL     1      -4.669   0.762  24.954  0.00  0.00    +0.055 C 
ATOM      9  C   UNL     1      -4.978   1.498  25.160  0.00  0.00    +0.000 A 
ATOM     10  C   UNL     1      -5.703   1.597  25.541  0.00  0.00    +0.095 A 
ATOM     11  N   UNL     1      -5.824   2.405  25.655  0.00  0.00    -0.244 NA
ATOM     12  C   UNL     1      -5.172   2.806  25.345  0.00  0.00    +0.081 A 
ATOM     13  C   UNL     1      -4.649   2.246  25.039  0.00  0.00    +0.013 A 
ATOM     14  C   UNL     1      -3.931   2.440  24.682  0.00  0.00    -0.005 A 
ATOM     15  C   UNL     1      -3.758   3.291  24.647  0.00  0.00    -0.003 A 
ATOM     16  C   UNL     1      -4.280   3.852  24.952  0.00  0.00    +0.001 A 
ATOM     17  C   UNL     1      -4.988   3.609  25.301  0.00  0.00    +0.019 A 
ENDROOT
BRANCH   7  18
ATOM     18  C   UNL     1      -3.803  -0.211  24.445  0.00  0.00    +0.257 C 
ATOM     19  O   UNL     1      -4.085  -0.578  23.762  0.00  0.00    -0.272 OA
ATOM     20  N   UNL     1      -3.369  -0.642  24.998  0.00  0.00    -0.206 NA
BRANCH  20  21
ATOM     21  C   UNL     1      -3.216  -1.443  24.867  0.00  0.00    +0.095 C 
ATOM     22  C   UNL     1      -2.516  -1.760  24.566  0.00  0.00    +0.022 C 
ATOM     23  C   UNL     1      -2.604  -2.579  24.526  0.00  0.00    +0.002 C 
ATOM     24  C   UNL     1      -3.358  -2.769  24.803  0.00  0.00    +0.002 C 
ATOM     25  C   UNL     1      -3.736  -2.067  25.013  0.00  0.00    +0.022 C 
ENDBRANCH  20  21
ENDBRANCH   7  18
BRANCH   5   4
ATOM      4  C   UNL     1      -2.700   2.304  24.038  0.00  0.00    +0.022 C 
BRANCH   4   2
ATOM      1  C   UNL     1      -2.660   2.007  22.641  0.00  0.00    +0.000 C 
ATOM      2  C   UNL     1      -2.315   1.969  23.389  0.00  0.00    +0.002 C 
ATOM      3  C   UNL     1      -1.586   1.596  23.489  0.00  0.00    +0.000 C 
ENDBRANCH   4   2
ENDBRANCH   5   4
TORSDOF 4
ENDMDL
MODEL 2
REMARK VINA RESULT:     -12.5      1.778      4.444
REMARK  Name = 
REMARK  4 active torsions:
REMARK  status: ('A' for Active; 'I' for Inactive)
REMARK    1  A    between atoms: C_2  and  C_4
REMARK    2  A    between atoms: C_4  and  C_5
REMARK    3  A    between atoms: C_7  and  C_18
REMARK    4  A    between atoms: N_20  and  C_21
REMARK                            x       y       z     vdW  Elec       q    Type
REMARK                         _______ _______ _______ _____ _____    ______ ____
ROOT
ATOM      5  C   UNL     1      -3.658   0.892  24.782  0.00  0.00    +0.095 C 
ATOM      6  N   UNL     1      -3.208   1.581  24.719  0.00  0.00    -0.207 NA
ATOM      7  C   UNL     1      -2.396   1.677  24.829  0.00  0.00    +0.155 C 
ATOM      8  C   UNL     1      -1.834   1.107  25.029  0.00  0.00    +0.055 C 
ATOM      9  C   UNL     1      -1.944   0.302  25.168  0.00  0.00    +0.000 A 
ATOM     10  C   UNL     1      -1.331  -0.214  25.365  0.00  0.00    +0.095 A 
ATOM     11  N   UNL     1      -1.652  -0.968  25.460  0.00  0.00    -0.244 NA
ATOM     12  C   UNL     1      -2.464  -0.919  25.322  0.00  0.00    +0.081 A 
ATOM     13  C   UNL     1      -2.645  -0.134  25.141  0.00  0.00    +0.013 A 
ATOM     14  C   UNL     1      -3.408   0.130  24.969  0.00  0.00    -0.005 A 
ATOM     15  C   UNL     1      -4.021  -0.484  24.992  0.00  0.00    -0.003 A 
ATOM     16  C   UNL     1      -3.842  -1.269  25.172  0.00  0.00    +0.001 A 
ATOM     17  C   UNL     1      -3.062  -1.486  25.338  0.00  0.00    +0.019 A 
ENDROOT
BRANCH   7  18
ATOM     18  C   UNL     1      -2.109   2.444  24.726  0.00  0.00    +0.257 C 
ATOM     19  O   UNL     1      -1.971   2.733  23.965  0.00  0.00    -0.272 OA
ATOM     20  N   UNL     1      -1.959   2.920  25.383  0.00  0.00    -0.206 NA
BRANCH  20  21
ATOM     21  C   UNL     1      -1.672   3.686  25.278  0.00  0.00    +0.095 C 
ATOM     22  C   UNL     1      -2.111   4.382  25.347  0.00  0.00    +0.022 C 
ATOM     23  C   UNL     1      -1.607   5.017  25.198  0.00  0.00    +0.002 C 
ATOM     24  C   UNL     1      -0.856   4.715  25.038  0.00  0.00    +0.002 C 
ATOM     25  C   UNL     1      -0.897   3.893  25.087  0.00  0.00    +0.022 C 
ENDBRANCH  20  21
ENDBRANCH   7  18
BRANCH   5   4
ATOM      4  C   UNL     1      -4.466   0.979  24.637  0.00  0.00    +0.022 C 
BRANCH   4   2
ATOM      1  C   UNL     1      -4.973   2.252  24.232  0.00  0.00    +0.000 C 
ATOM      2  C   UNL     1      -4.844   1.689  24.821  0.00  0.00    +0.002 C 
ATOM      3  C   UNL     1      -5.092   1.836  25.595  0.00  0.00    +0.000 C 
ENDBRANCH   4   2
ENDBRANCH   5   4
TORSDOF 4
ENDMDL
MODEL 3
REMARK VINA RESULT:     -12.3      1.193      2.402
REMARK  Name = 
REMARK  4 active torsions:
REMARK  status: ('A' for Active; 'I' for Inactive)
REMARK    1  A    between atoms: C_2  and  C_4
REMARK    2  A    between atoms: C_4  and  C_5
REMARK    3  A    between atoms: C_7  and  C_18
REMARK    4  A    between atoms: N_20  and  C_21
REMARK                            x       y       z     vdW  Elec       q    Type
REMARK                         _______ _______ _______ _____ _____    ______ ____
ROOT
ATOM      5  C   UNL     1      -4.079   2.412  24.990  0.00  0.00    +0.095 C 
ATOM      6  N   UNL     1      -4.027   1.634  24.723  0.00  0.00    -0.207 NA
ATOM      7  C   UNL     1      -3.353   1.166  24.627  0.00  0.00    +0.155 C 
ATOM      8  C   UNL     1      -2.566   1.363  24.775  0.00  0.00    +0.055 C 
ATOM      9  C   UNL     1      -2.258   2.074  25.056  0.00  0.00    +0.000 A 
ATOM     10  C   UNL     1      -1.453   2.203  25.182  0.00  0.00    +0.095 A 
ATOM     11  N   UNL     1      -1.357   2.973  25.462  0.00  0.00    -0.244 NA
ATOM     12  C   UNL     1      -2.104   3.322  25.508  0.00  0.00    +0.081 A 
ATOM     13  C   UNL     1      -2.660   2.766  25.257  0.00  0.00    +0.013 A 
ATOM     14  C   UNL     1      -3.472   2.916  25.228  0.00  0.00    -0.005 A 
ATOM     15  C   UNL     1      -3.707   3.712  25.483  0.00  0.00    -0.003 A 
ATOM     16  C   UNL     1      -3.151   4.268  25.734  0.00  0.00    +0.001 A 
ATOM     17  C   UNL     1      -2.349   4.072  25.747  0.00  0.00    +0.019 A 
ENDROOT
BRANCH   7  18
ATOM     18  C   UNL     1      -3.485   0.402  24.346  0.00  0.00    +0.257 C 
ATOM     19  O   UNL     1      -3.528   0.263  23.533  0.00  0.00    -0.272 OA
ATOM     20  N   UNL     1      -3.574  -0.223  24.876  0.00  0.00    -0.206 NA
BRANCH  20  21
ATOM     21  C   UNL     1      -3.706  -0.987  24.594  0.00  0.00    +0.095 C 
ATOM     22  C   UNL     1      -3.234  -1.647  24.744  0.00  0.00    +0.022 C 
ATOM     23  C   UNL     1      -3.569  -2.293  24.356  0.00  0.00    +0.002 C 
ATOM     24  C   UNL     1      -4.248  -2.033  23.965  0.00  0.00    +0.002 C 
ATOM     25  C   UNL     1      -4.332  -1.226  24.113  0.00  0.00    +0.022 C 
ENDBRANCH  20  21
ENDBRANCH   7  18
BRANCH   5   4
ATOM      4  C   UNL     1      -4.840   2.728  25.024  0.00  0.00    +0.022 C 
BRANCH   4   2
ATOM      1  C   UNL     1      -5.997   1.965  24.674  0.00  0.00    +0.000 C 
ATOM      2  C   UNL     1      -5.476   2.250  25.246  0.00  0.00    +0.002 C 
ATOM      3  C   UNL     1      -5.589   2.058  26.041  0.00  0.00    +0.000 C 
ENDBRANCH   4   2
ENDBRANCH   5   4
TORSDOF 4
ENDMDL
MODEL 4
REMARK VINA RESULT:     -12.1      1.190      4.140
REMARK  Name = 
REMARK  4 active torsions:
REMARK  status: ('A' for Active; 'I' for Inactive)
REMARK    1  A    between atoms: C_2  and  C_4
REMARK    2  A    between atoms: C_4  and  C_5
REMARK    3  A    between atoms: C_7  and  C_18
REMARK    4  A    between atoms: N_20  and  C_21
REMARK                            x       y       z     vdW  Elec       q    Type
REMARK                         _______ _______ _______ _____ _____    ______ ____
ROOT
ATOM      5  C   UNL     1      -2.281  -0.254  24.932  0.00  0.00    +0.095 C 
ATOM      6  N   UNL     1      -2.775   0.404  24.869  0.00  0.00    -0.207 NA
ATOM      7  C   UNL     1      -3.559   0.437  24.613  0.00  0.00    +0.155 C 
ATOM      8  C   UNL     1      -4.042  -0.181  24.356  0.00  0.00    +0.055 C 
ATOM      9  C   UNL     1      -3.861  -0.983  24.292  0.00  0.00    +0.000 A 
ATOM     10  C   UNL     1      -4.397  -1.550  24.025  0.00  0.00    +0.095 A 
ATOM     11  N   UNL     1      -4.020  -2.284  24.037  0.00  0.00    -0.244 NA
ATOM     12  C   UNL     1      -3.250  -2.171  24.311  0.00  0.00    +0.081 A 
ATOM     13  C   UNL     1      -3.152  -1.366  24.469  0.00  0.00    +0.013 A 
ATOM     14  C   UNL     1      -2.449  -1.041  24.754  0.00  0.00    -0.005 A 
ATOM     15  C   UNL     1      -1.806  -1.611  24.879  0.00  0.00    -0.003 A 
ATOM     16  C   UNL     1      -1.904  -2.415  24.722  0.00  0.00    +0.001 A 
ATOM     17  C   UNL     1      -2.626  -2.695  24.438  0.00  0.00    +0.019 A 
ENDROOT
BRANCH   7  18
ATOM     18  C   UNL     1      -3.905   1.186  24.614  0.00  0.00    +0.257 C 
ATOM     19  O   UNL     1      -3.915   1.636  23.922  0.00  0.00    -0.272 OA
ATOM     20  N   UNL     1      -4.240   1.484  25.306  0.00  0.00    -0.206 NA
BRANCH  20  21
ATOM     21  C   UNL     1      -4.586   2.234  25.306  0.00  0.00    +0.095 C 
ATOM     22  C   UNL     1      -5.395   2.394  25.294  0.00  0.00    +0.022 C 
ATOM     23  C   UNL     1      -5.492   3.213  25.299  0.00  0.00    +0.002 C 
ATOM     24  C   UNL     1      -4.744   3.559  25.314  0.00  0.00    +0.002 C 
ATOM     25  C   UNL     1      -4.184   2.954  25.318  0.00  0.00    +0.022 C 
ENDBRANCH  20  21
ENDBRANCH   7  18
BRANCH   5   4
ATOM      4  C   UNL     1      -1.519  -0.104  25.209  0.00  0.00    +0.022 C 
BRANCH   4   2
ATOM      1  C   UNL     1      -0.865   0.701  24.226  0.00  0.00    +0.000 C 
ATOM      2  C   UNL     1      -1.134   0.596  24.998  0.00  0.00    +0.002 C 
ATOM      3  C   UNL     1      -1.019   1.189  25.561  0.00  0.00    +0.000 C 
ENDBRANCH   4   2
ENDBRANCH   5   4
TORSDOF 4
ENDMDL
MODEL 5
REMARK VINA RESULT:     -12.0      1.255      2.884
REMARK  Name = 
REMARK  4 active torsions:
REMARK  status: ('A' for Active; 'I' for Inactive)
REMARK    1  A    between atoms: C_2  and  C_4
REMARK    2  A    between atoms: C_4  and  C_5
REMARK    3  A    between atoms: C_7  and  C_18
REMARK    4  A    between atoms: N_20  and  C_21
REMARK                            x       y       z     vdW  Elec       q    Type
REMARK                         _______ _______ _______ _____ _____    ______ ____
ROOT
ATOM      5  C   UNL     1      -4.172   1.019  24.648  0.00  0.00    +0.095 C 
ATOM      6  N   UNL     1      -3.388   1.031  24.392  0.00  0.00    -0.207 NA
ATOM      7  C   UNL     1      -2.865   1.669  24.363  0.00  0.00    +0.155 C 
ATOM      8  C   UNL     1      -2.998   2.453  24.583  0.00  0.00    +0.055 C 
ATOM      9  C   UNL     1      -3.686   2.793  24.886  0.00  0.00    +0.000 A 
ATOM     10  C   UNL     1      -3.750   3.590  25.085  0.00  0.00    +0.095 A 
ATOM     11  N   UNL     1      -4.514   3.723  25.367  0.00  0.00    -0.244 NA
ATOM     12  C   UNL     1      -4.923   3.007  25.341  0.00  0.00    +0.081 A 
ATOM     13  C   UNL     1      -4.412   2.432  25.044  0.00  0.00    +0.013 A 
ATOM     14  C   UNL     1      -4.627   1.642  24.938  0.00  0.00    -0.005 A 
ATOM     15  C   UNL     1      -5.444   1.452  25.164  0.00  0.00    -0.003 A 
ATOM     16  C   UNL     1      -5.955   2.026  25.462  0.00  0.00    +0.001 A 
ATOM     17  C   UNL     1      -5.695   2.805  25.550  0.00  0.00    +0.019 A 
ENDROOT
BRANCH   7  18
ATOM     18  C   UNL     1      -2.110   1.501  24.076  0.00  0.00    +0.257 C 
ATOM     19  O   UNL     1      -1.964   1.516  23.264  0.00  0.00    -0.272 OA
ATOM     20  N   UNL     1      -1.501   1.317  24.601  0.00  0.00    -0.206 NA
BRANCH  20  21
ATOM     21  C   UNL     1      -0.746   1.148  24.314  0.00  0.00    +0.095 C 
ATOM     22  C   UNL     1      -0.115   1.678  24.271  0.00  0.00    +0.022 C 
ATOM     23  C   UNL     1       0.531   1.278  23.949  0.00  0.00    +0.002 C 
ATOM     24  C   UNL     1       0.299   0.502  23.793  0.00  0.00    +0.002 C 
ATOM     25  C   UNL     1      -0.490   0.422  24.018  0.00  0.00    +0.022 C 
ENDBRANCH  20  21
ENDBRANCH   7  18
BRANCH   5   4
ATOM      4  C   UNL     1      -4.550   0.287  24.609  0.00  0.00    +0.022 C 
BRANCH   4   2
ATOM      1  C   UNL     1      -3.841  -0.632  25.442  0.00  0.00    +0.000 C 
ATOM      2  C   UNL     1      -4.113  -0.408  24.696  0.00  0.00    +0.002 C 
ATOM      3  C   UNL     1      -3.948  -0.877  24.037  0.00  0.00    +0.000 C 
ENDBRANCH   4   2
ENDBRANCH   5   4
TORSDOF 4
ENDMDL
