MODEL 1
REMARK VINA RESULT:     -12.7      0.000      0.000
REMARK  Name = 
REMARK  5 active torsions:
REMARK  status: ('A' for Active; 'I' for Inactive)
REMARK    1  A    between atoms: O_2  and  C_3
REMARK    2  A    between atoms: C_3  and  C_5
REMARK    3  A    between atoms: C_12  and  C_14
REMARK    4  A    between atoms: N_17  and  C_18
REMARK    5  A    between atoms: C_18  and  C_19
REMARK                            x       y       z     vdW  Elec       q    Type
REMARK                         _______ _______ _______ _____ _____    ______ ____
ROOT
ATOM      5  C   UNL     1      -1.373   3.463  25.314  0.00  0.00    +0.112 A 
ATOM      6  C   UNL     1      -1.276   4.282  25.321  0.00  0.00    +0.010 A 
ATOM      7  C   UNL     1      -1.921   4.776  25.177  0.00  0.00    +0.002 A 
ATOM      8  C   UNL     1      -2.663   4.450  25.026  0.00  0.00    +0.022 A 
ATOM      9  C   UNL     1      -2.761   3.631  25.019  0.00  0.00    +0.119 A 
ATOM     10  C   UNL     1      -2.116   3.137  25.162  0.00  0.00    +0.171 A 
ATOM     11  O   UNL     1      -2.377   2.357  25.120  0.00  0.00    -0.438 OA
ATOM     12  C   UNL     1      -3.185   2.367  24.950  0.00  0.00    +0.207 A 
ATOM     13  N   UNL     1      -3.422   3.155  24.887  0.00  0.00    -0.212 NA
ENDROOT
BRANCH  12  14
ATOM     14  C   UNL     1      -3.670   1.706  24.858  0.00  0.00    +0.094 C 
ATOM     15  C   UNL     1      -4.447   1.634  25.124  0.00  0.00    +0.028 C 
ATOM     16  C   UNL     1      -4.721   0.884  24.915  0.00  0.00    +0.073 C 
ATOM     17  N   UNL     1      -4.112   0.493  24.519  0.00  0.00    -0.268 NA
ATOM     26  C   UNL     1      -3.462   1.001  24.484  0.00  0.00    +0.082 C 
BRANCH  17  18
ATOM     18  C   UNL     1      -4.146  -0.272  24.212  0.00  0.00    +0.099 C 
BRANCH  18  19
ATOM     19  C   UNL     1      -3.882  -0.910  24.663  0.00  0.00    -0.010 A 
ATOM     20  C   UNL     1      -3.592  -0.785  25.425  0.00  0.00    -0.003 A 
ATOM     21  C   UNL     1      -3.328  -1.423  25.877  0.00  0.00    -0.000 A 
ATOM     22  C   UNL     1      -3.353  -2.187  25.565  0.00  0.00    -0.000 A 
ATOM     23  C   UNL     1      -3.643  -2.312  24.803  0.00  0.00    -0.005 A 
ATOM     24  C   UNL     1      -3.907  -1.674  24.352  0.00  0.00    -0.024 A 
ATOM     25  C   UNL     1      -4.197  -1.799  23.590  0.00  0.00    +0.031 C 
ENDBRANCH  18  19
ENDBRANCH  17  18
ENDBRANCH  12  14
BRANCH   5   3
ATOM      3  C   UNL     1      -0.728   2.970  25.457  0.00  0.00    +0.344 C 
ATOM      4  O   UNL     1      -0.292   2.666  24.825  0.00  0.00    -0.245 OA
BRANCH   3   2
ATOM      1  C   UNL     1       0.207   2.417  26.386  0.00  0.00    +0.256 C 
ATOM      2  O   UNL     1      -0.517   2.781  26.232  0.00  0.00    -0.441 OA
ENDBRANCH   3   2
ENDBRANCH   5   3
TORSDOF 5
ENDMDL
MODEL 2
REMARK VINA RESULT:     -12.4      1.373      2.303
REMARK  Name = 
REMARK  5 active torsions:
REMARK  status: ('A' for Active; 'I' for Inactive)
REMARK    1  A    between atoms: O_2  and  C_3
REMARK    2  A    between atoms: C_3  and  C_5
REMARK    3  A    between atoms: C_12  and  C_14
REMARK    4  A    between atoms: N_17  and  C_18
REMARK    5  A    between atoms: C_18  and  C_19
REMARK                            x       y       z     vdW  Elec       q    Type
REMARK                         _______ _______ _______ _____ _____    ______ ____
ROOT
ATOM      5  C   UNL     1      -2.791   3.694  25.157  0.00  0.00    +0.112 A 
ATOM      6  C   UNL     1      -2.403   4.399  25.340  0.00  0.00    +0.010 A 
ATOM      7  C   UNL     1      -1.591   4.398  25.484  0.00  0.00    +0.002 A 
ATOM      8  C   UNL     1      -1.166   3.693  25.444  0.00  0.00    +0.022 A 
ATOM      9  C   UNL     1      -1.552   2.987  25.261  0.00  0.00    +0.119 A 
ATOM     10  C   UNL     1      -2.365   2.988  25.117  0.00  0.00    +0.171 A 
ATOM     11  O   UNL     1      -2.594   2.214  24.950  0.00  0.00    -0.438 OA
ATOM     12  C   UNL     1      -1.923   1.735  24.991  0.00  0.00    +0.207 A 
ATOM     13  N   UNL     1      -1.280   2.213  25.183  0.00  0.00    -0.212 NA
ENDROOT
BRANCH  12  14
ATOM     14  C   UNL     1      -1.901   0.920  24.862  0.00  0.00    +0.094 C 
ATOM     15  C   UNL     1      -1.418   0.528  24.321  0.00  0.00    +0.028 C 
ATOM     16  C   UNL     1      -1.576  -0.281  24.376  0.00  0.00    +0.073 C 
ATOM     17  N   UNL     1      -2.158  -0.388  24.952  0.00  0.00    -0.268 NA
ATOM     26  C   UNL     1      -2.359   0.354  25.252  0.00  0.00    +0.082 C 
BRANCH  17  18
ATOM     18  C   UNL     1      -2.481  -1.109  25.186  0.00  0.00    +0.099 C 
BRANCH  18  19
ATOM     19  C   UNL     1      -3.092  -1.449  24.749  0.00  0.00    -0.010 A 
ATOM     20  C   UNL     1      -3.687  -0.973  24.433  0.00  0.00    -0.003 A 
ATOM     21  C   UNL     1      -4.299  -1.313  23.995  0.00  0.00    -0.000 A 
ATOM     22  C   UNL     1      -4.314  -2.129  23.874  0.00  0.00    -0.000 A 
ATOM     23  C   UNL     1      -3.719  -2.605  24.190  0.00  0.00    -0.005 A 
ATOM     24  C   UNL     1      -3.108  -2.265  24.627  0.00  0.00    -0.024 A 
ATOM     25  C   UNL     1      -2.513  -2.740  24.943  0.00  0.00    +0.031 C 
ENDBRANCH  18  19
ENDBRANCH  17  18
ENDBRANCH  12  14
BRANCH   5   3
ATOM      3  C   UNL     1      -3.602   3.694  25.013  0.00  0.00    +0.344 C 
ATOM      4  O   UNL     1      -3.885   3.767  24.240  0.00  0.00    -0.245 OA
BRANCH   3   2
ATOM      1  C   UNL     1      -4.944   3.681  25.504  0.00  0.00    +0.256 C 
ATOM      2  O   UNL     1      -4.133   3.622  25.640  0.00  0.00    -0.441 OA
ENDBRANCH   3   2
ENDBRANCH   5   3
TORSDOF 5
ENDMDL
MODEL 3
REMARK VINA RESULT:     -12.3      1.659      4.743
REMARK  Name = 
REMARK  5 active torsions:
REMARK  status: ('A' for Active; 'I' for Inactive)
REMARK    1  A    between atoms: O_2  and  C_3
REMARK    2  A    between atoms: C_3  and  C_5
REMARK    3  A    between atoms: C_12  and  C_14
REMARK    4  A    between atoms: N_17  and  C_18
REMARK    5  A    between atoms: C_18  and  C_19
REMARK                            x       y       z     vdW  Elec       q    Type
REMARK                         _______ _______ _______ _____ _____    ______ ____
ROOT
ATOM      5  C   UNL     1      -2.717  -1.662  24.741  0.00  0.00    +0.112 A 
ATOM      6  C   UNL     1      -3.082  -2.398  24.668  0.00  0.00    +0.010 A 
ATOM      7  C   UNL     1      -3.815  -2.461  24.294  0.00  0.00    +0.002 A 
ATOM      8  C   UNL     1      -4.181  -1.787  23.991  0.00  0.00    +0.022 A 
ATOM      9  C   UNL     1      -3.817  -1.051  24.063  0.00  0.00    +0.119 A 
ATOM     10  C   UNL     1      -3.084  -0.988  24.438  0.00  0.00    +0.171 A 
ATOM     11  O   UNL     1      -2.859  -0.195  24.427  0.00  0.00    -0.438 OA
ATOM     12  C   UNL     1      -3.453   0.233  24.045  0.00  0.00    +0.207 A 
ATOM     13  N   UNL     1      -4.044  -0.296  23.821  0.00  0.00    -0.212 NA
ENDROOT
BRANCH  12  14
ATOM     14  C   UNL     1      -3.454   1.047  23.912  0.00  0.00    +0.094 C 
ATOM     15  C   UNL     1      -3.161   1.430  23.243  0.00  0.00    +0.028 C 
ATOM     16  C   UNL     1      -3.274   2.241  23.343  0.00  0.00    +0.073 C 
ATOM     17  N   UNL     1      -3.639   2.360  24.073  0.00  0.00    -0.268 NA
ATOM     26  C   UNL     1      -3.750   1.622  24.426  0.00  0.00    +0.082 C 
BRANCH  17  18
ATOM     18  C   UNL     1      -3.854   3.088  24.395  0.00  0.00    +0.099 C 
BRANCH  18  19
ATOM     19  C   UNL     1      -3.340   3.481  24.906  0.00  0.00    -0.010 A 
ATOM     20  C   UNL     1      -2.539   3.543  24.720  0.00  0.00    -0.003 A 
ATOM     21  C   UNL     1      -2.025   3.937  25.231  0.00  0.00    -0.000 A 
ATOM     22  C   UNL     1      -2.313   4.269  25.930  0.00  0.00    -0.000 A 
ATOM     23  C   UNL     1      -3.114   4.206  26.117  0.00  0.00    -0.005 A 
ATOM     24  C   UNL     1      -3.627   3.813  25.605  0.00  0.00    -0.024 A 
ATOM     25  C   UNL     1      -4.428   3.751  25.792  0.00  0.00    +0.031 C 
ENDBRANCH  18  19
ENDBRANCH  17  18
ENDBRANCH  12  14
BRANCH   5   3
ATOM      3  C   UNL     1      -1.985  -1.600  25.115  0.00  0.00    +0.344 C 
ATOM      4  O   UNL     1      -1.943  -1.343  25.898  0.00  0.00    -0.245 OA
BRANCH   3   2
ATOM      1  C   UNL     1      -0.565  -1.760  25.091  0.00  0.00    +0.256 C 
ATOM      2  O   UNL     1      -1.295  -1.795  24.708  0.00  0.00    -0.441 OA
ENDBRANCH   3   2
ENDBRANCH   5   3
TORSDOF 5
ENDMDL
MODEL 4
REMARK VINA RESULT:     -12.0      1.401      2.326
REMARK  Name = 
REMARK  5 active torsions:
REMARK  status: ('A' for Active; 'I' for Inactive)
REMARK    1  A    between atoms: O_2  and  C_3
REMARK    2  A    between atoms: C_3  and  C_5
REMARK    3  A    between atoms: C_12  and  C_14
REMARK    4  A    between atoms: N_17  and  C_18
REMARK    5  A    between atoms: C_18  and  C_19
REMARK                            x       y       z     vdW  Elec       q    Type
REMARK                         _______ _______ _______ _____ _____    ______ ____
ROOT
ATOM      5  C   UNL     1      -4.176   3.347  25.263  0.00  0.00    +0.112 A 
ATOM      6  C   UNL     1      -4.727   3.911  25.506  0.00  0.00    +0.010 A 
ATOM      7  C   UNL     1      -5.507   3.688  25.655  0.00  0.00    +0.002 A 
ATOM      8  C   UNL     1      -5.737   2.902  25.561  0.00  0.00    +0.022 A 
ATOM      9  C   UNL     1      -5.187   2.337  25.318  0.00  0.00    +0.119 A 
ATOM     10  C   UNL     1      -4.407   2.560  25.168  0.00  0.00    +0.171 A 
ATOM     11  O   UNL     1      -3.990   1.887  24.937  0.00  0.00    -0.438 OA
ATOM     12  C   UNL     1      -4.513   1.249  24.943  0.00  0.00    +0.207 A 
ATOM     13  N   UNL     1      -5.253   1.527  25.178  0.00  0.00    -0.212 NA
ENDROOT
BRANCH  12  14
ATOM     14  C   UNL     1      -4.328   0.468  24.748  0.00  0.00    +0.094 C 
ATOM     15  C   UNL     1      -4.388   0.129  23.999  0.00  0.00    +0.028 C 
ATOM     16  C   UNL     1      -4.148  -0.659  24.056  0.00  0.00    +0.073 C 
ATOM     17  N   UNL     1      -3.939  -0.806  24.841  0.00  0.00    -0.268 NA
ATOM     26  C   UNL     1      -4.051  -0.109  25.269  0.00  0.00    +0.082 C 
BRANCH  17  18
ATOM     18  C   UNL     1      -3.668  -1.523  25.145  0.00  0.00    +0.099 C 
BRANCH  18  19
ATOM     19  C   UNL     1      -2.902  -1.778  24.976  0.00  0.00    -0.010 A 
ATOM     20  C   UNL     1      -2.263  -1.270  25.089  0.00  0.00    -0.003 A 
ATOM     21  C   UNL     1      -1.496  -1.525  24.920  0.00  0.00    -0.000 A 
ATOM     22  C   UNL     1      -1.370  -2.291  24.639  0.00  0.00    -0.000 A 
ATOM     23  C   UNL     1      -2.009  -2.800  24.527  0.00  0.00    -0.005 A 
ATOM     24  C   UNL     1      -2.775  -2.544  24.695  0.00  0.00    -0.024 A 
ATOM     25  C   UNL     1      -3.414  -3.053  24.582  0.00  0.00    +0.031 C 
ENDBRANCH  18  19
ENDBRANCH  17  18
ENDBRANCH  12  14
BRANCH   5   3
ATOM      3  C   UNL     1      -3.397   3.569  25.114  0.00  0.00    +0.344 C 
ATOM      4  O   UNL     1      -3.150   3.716  24.340  0.00  0.00    -0.245 OA
BRANCH   3   2
ATOM      1  C   UNL     1      -2.131   4.004  25.613  0.00  0.00    +0.256 C 
ATOM      2  O   UNL     1      -2.862   3.644  25.738  0.00  0.00    -0.441 OA
ENDBRANCH   3   2
ENDBRANCH   5   3
TORSDOF 5
ENDMDL
MODEL 5
REMARK VINA RESULT:     -11.4      2.158      4.640
REMARK  Name = 
REMARK  5 active torsions:
REMARK  status: ('A' for Active; 'I' for Inactive)
REMARK    1  A    between atoms: O_2  and  C_3
REMARK    2  A    between atoms: C_3  and  C_5
REMARK    3  A    between atoms: C_12  and  C_14
REMARK    4  A    between atoms: N_17  and  C_18
REMARK    5  A    between atoms: C_18  and  C_19
REMARK                            x       y       z     vdW  Elec       q    Type
REMARK                         _______ _______ _______ _____ _____    ______ ____
ROOT
ATOM      5  C   UNL     1      -2.034  -1.645  24.855  0.00  0.00    +0.112 A 
ATOM      6  C   UNL     1      -1.346  -2.062  25.036  0.00  0.00    +0.010 A 
ATOM      7  C   UNL     1      -0.615  -1.679  25.026  0.00  0.00    +0.002 A 
ATOM      8  C   UNL     1      -0.573  -0.878  24.835  0.00  0.00    +0.022 A 
ATOM      9  C   UNL     1      -1.260  -0.459  24.654  0.00  0.00    +0.119 A 
ATOM     10  C   UNL     1      -1.991  -0.843  24.664  0.00  0.00    +0.171 A 
ATOM     11  O   UNL     1      -2.570  -0.292  24.462  0.00  0.00    -0.438 OA
ATOM     12  C   UNL     1      -2.198   0.432  24.328  0.00  0.00    +0.207 A 
ATOM     13  N   UNL     1      -1.388   0.328  24.446  0.00  0.00    -0.212 NA
ENDROOT
BRANCH  12  14
ATOM     14  C   UNL     1      -2.570   1.136  24.112  0.00  0.00    +0.094 C 
ATOM     15  C   UNL     1      -2.689   1.406  23.342  0.00  0.00    +0.028 C 
ATOM     16  C   UNL     1      -3.082   2.131  23.384  0.00  0.00    +0.073 C 
ATOM     17  N   UNL     1      -3.205   2.309  24.180  0.00  0.00    -0.268 NA
ATOM     26  C   UNL     1      -2.889   1.694  24.630  0.00  0.00    +0.082 C 
BRANCH  17  18
ATOM     18  C   UNL     1      -3.578   2.983  24.474  0.00  0.00    +0.099 C 
BRANCH  18  19
ATOM     19  C   UNL     1      -4.319   2.922  24.831  0.00  0.00    -0.010 A 
ATOM     20  C   UNL     1      -4.874   2.384  24.542  0.00  0.00    -0.003 A 
ATOM     21  C   UNL     1      -5.615   2.323  24.900  0.00  0.00    -0.000 A 
ATOM     22  C   UNL     1      -5.801   2.800  25.546  0.00  0.00    -0.000 A 
ATOM     23  C   UNL     1      -5.246   3.338  25.835  0.00  0.00    -0.005 A 
ATOM     24  C   UNL     1      -4.506   3.399  25.478  0.00  0.00    -0.024 A 
ATOM     25  C   UNL     1      -3.951   3.937  25.767  0.00  0.00    +0.031 C 
ENDBRANCH  18  19
ENDBRANCH  17  18
ENDBRANCH  12  14
BRANCH   5   3
ATOM      3  C   UNL     1      -2.763  -2.028  24.865  0.00  0.00    +0.344 C 
ATOM      4  O   UNL     1      -3.253  -1.966  25.527  0.00  0.00    -0.245 OA
BRANCH   3   2
ATOM      1  C   UNL     1      -3.719  -2.886  24.238  0.00  0.00    +0.256 C 
ATOM      2  O   UNL     1      -3.005  -2.473  24.214  0.00  0.00    -0.441 OA
ENDBRANCH   3   2
ENDBRANCH   5   3
TORSDOF 5
ENDMDL
MODEL 6
REMARK VINA RESULT:     -11.4      1.942      5.311
REMARK  Name = 
REMARK  5 active torsions:
REMARK  status: ('A' for Active; 'I' for Inactive)
REMARK    1  A    between atoms: O_2  and  C_3
REMARK    2  A    between atoms: C_3  and  C_5
REMARK    3  A    between atoms: C_12  and  C_14
REMARK    4  A    between atoms: N_17  and  C_18
REMARK    5  A    between atoms: C_18  and  C_19
REMARK                            x       y       z     vdW  Elec       q    Type
REMARK                         _______ _______ _______ _____ _____    ______ ____
ROOT
ATOM      5  C   UNL     1      -2.438  -1.357  24.855  0.00  0.00    +0.112 A 
ATOM      6  C   UNL     1      -2.228  -2.144  24.722  0.00  0.00    +0.010 A 
ATOM      7  C   UNL     1      -1.432  -2.358  24.687  0.00  0.00    +0.002 A 
ATOM      8  C   UNL     1      -0.847  -1.787  24.785  0.00  0.00    +0.022 A 
ATOM      9  C   UNL     1      -1.055  -0.999  24.918  0.00  0.00    +0.119 A 
ATOM     10  C   UNL     1      -1.851  -0.785  24.953  0.00  0.00    +0.171 A 
ATOM     11  O   UNL     1      -1.891   0.027  25.091  0.00  0.00    -0.438 OA
ATOM     12  C   UNL     1      -1.118   0.315  25.141  0.00  0.00    +0.207 A 
ATOM     13  N   UNL     1      -0.603  -0.320  25.034  0.00  0.00    -0.212 NA
ENDROOT
BRANCH  12  14
ATOM     14  C   UNL     1      -0.901   1.099  25.275  0.00  0.00    +0.094 C 
ATOM     15  C   UNL     1      -0.489   1.383  25.930  0.00  0.00    +0.028 C 
ATOM     16  C   UNL     1      -0.391   2.198  25.837  0.00  0.00    +0.073 C 
ATOM     17  N   UNL     1      -0.742   2.416  25.123  0.00  0.00    -0.268 NA
ATOM     26  C   UNL     1      -1.057   1.737  24.775  0.00  0.00    +0.082 C 
BRANCH  17  18
ATOM     18  C   UNL     1      -0.772   3.179  24.811  0.00  0.00    +0.099 C 
BRANCH  18  19
ATOM     19  C   UNL     1      -1.318   3.723  25.104  0.00  0.00    -0.010 A 
ATOM     20  C   UNL     1      -2.009   3.460  25.469  0.00  0.00    -0.003 A 
ATOM     21  C   UNL     1      -2.555   4.004  25.763  0.00  0.00    -0.000 A 
ATOM     22  C   UNL     1      -2.409   4.813  25.691  0.00  0.00    -0.000 A 
ATOM     23  C   UNL     1      -1.718   5.077  25.326  0.00  0.00    -0.005 A 
ATOM     24  C   UNL     1      -1.173   4.533  25.032  0.00  0.00    -0.024 A 
ATOM     25  C   UNL     1      -0.482   4.797  24.667  0.00  0.00    +0.031 C 
ENDBRANCH  18  19
ENDBRANCH  17  18
ENDBRANCH  12  14
BRANCH   5   3
ATOM      3  C   UNL     1      -3.233  -1.143  24.890  0.00  0.00    +0.344 C 
ATOM      4  O   UNL     1      -3.616  -1.095  25.620  0.00  0.00    -0.245 OA
BRANCH   3   2
ATOM      1  C   UNL     1      -4.468  -0.901  24.213  0.00  0.00    +0.256 C 
ATOM      2  O   UNL     1      -3.647  -0.976  24.196  0.00  0.00    -0.441 OA
ENDBRANCH   3   2
ENDBRANCH   5   3
TORSDOF 5
ENDMDL
