MODEL 1
REMARK VINA RESULT:     -11.6      0.000      0.000
REMARK  Name = 
REMARK  4 active torsions:
REMARK  status: ('A' for Active; 'I' for Inactive)
REMARK    1  A    between atoms: C_3  and  C_12
REMARK    2  A    between atoms: N_4  and  C_6
REMARK    3  A    between atoms: C_14  and  C_17
REMARK    4  A    between atoms: C_21  and  N_23
REMARK                            x       y       z     vdW  Elec       q    Type
REMARK                         _______ _______ _______ _____ _____    ______ ____
ROOT
ATOM     12  C   UNL     1      -2.448   3.145  24.536  0.00  0.00    +0.251 A 
ATOM     13  N   UNL     1      -2.969   2.679  24.975  0.00  0.00    -0.190 NA
ATOM     14  C   UNL     1      -3.315   2.132  24.465  0.00  0.00    +0.203 A 
ATOM     15  N   UNL     1      -3.008   2.258  23.710  0.00  0.00    -0.056 NA
ATOM     16  O   UNL     1      -2.472   2.884  23.753  0.00  0.00    -0.336 OA
ENDROOT
BRANCH  14  17
ATOM     17  C   UNL     1      -3.870   1.558  24.673  0.00  0.00    +0.043 A 
ATOM     18  C   UNL     1      -4.630   1.784  24.903  0.00  0.00    +0.024 A 
ATOM     19  C   UNL     1      -5.186   1.211  25.110  0.00  0.00    +0.100 A 
ATOM     20  N   UNL     1      -4.982   0.412  25.087  0.00  0.00    -0.229 NA
ATOM     21  C   UNL     1      -4.223   0.185  24.857  0.00  0.00    +0.132 A 
ATOM     22  C   UNL     1      -3.667   0.759  24.650  0.00  0.00    +0.037 A 
BRANCH  21  23
ATOM     23  N   UNL     1      -4.020  -0.614  24.834  0.00  0.00    -0.288 N 
ATOM     24  C   UNL     1      -3.631  -0.959  25.474  0.00  0.00    +0.124 C 
ATOM     25  C   UNL     1      -3.428  -1.758  25.451  0.00  0.00    +0.164 C 
ATOM     26  O   UNL     1      -3.614  -2.212  24.788  0.00  0.00    -0.350 OA
ATOM     27  C   UNL     1      -4.003  -1.867  24.148  0.00  0.00    +0.164 C 
ATOM     28  C   UNL     1      -4.206  -1.068  24.171  0.00  0.00    +0.124 C 
ENDBRANCH  21  23
ENDBRANCH  14  17
BRANCH  12   3
ATOM      1  C   UNL     1      -1.589   4.973  25.225  0.00  0.00    +0.019 C 
ATOM      2  C   UNL     1      -2.225   4.546  24.918  0.00  0.00    +0.027 C 
ATOM      3  C   UNL     1      -1.985   3.761  24.827  0.00  0.00    +0.138 C 
ATOM      4  N   UNL     1      -1.201   3.704  25.077  0.00  0.00    -0.268 NA
ATOM      5  C   UNL     1      -0.956   4.452  25.323  0.00  0.00    +0.072 C 
BRANCH   4   6
ATOM      6  C   UNL     1      -0.743   3.019  25.081  0.00  0.00    +0.063 C 
ATOM      7  C   UNL     1      -0.701   2.554  25.762  0.00  0.00    +0.048 C 
ATOM      8  C   UNL     1      -0.243   1.868  25.766  0.00  0.00    +0.144 C 
ATOM      9  O   UNL     1       0.174   1.647  25.089  0.00  0.00    -0.354 OA
ATOM     10  C   UNL     1       0.132   2.111  24.409  0.00  0.00    +0.144 C 
ATOM     11  C   UNL     1      -0.326   2.797  24.405  0.00  0.00    +0.048 C 
ENDBRANCH   4   6
ENDBRANCH  12   3
TORSDOF 4
ENDMDL
MODEL 2
REMARK VINA RESULT:     -11.5      1.690      4.448
REMARK  Name = 
REMARK  4 active torsions:
REMARK  status: ('A' for Active; 'I' for Inactive)
REMARK    1  A    between atoms: C_3  and  C_12
REMARK    2  A    between atoms: N_4  and  C_6
REMARK    3  A    between atoms: C_14  and  C_17
REMARK    4  A    between atoms: C_21  and  N_23
REMARK                            x       y       z     vdW  Elec       q    Type
REMARK                         _______ _______ _______ _____ _____    ______ ____
ROOT
ATOM     12  C   UNL     1      -3.704  -0.474  24.134  0.00  0.00    +0.251 A 
ATOM     13  N   UNL     1      -4.052   0.081  24.635  0.00  0.00    -0.190 NA
ATOM     14  C   UNL     1      -3.969   0.825  24.291  0.00  0.00    +0.203 A 
ATOM     15  N   UNL     1      -3.569   0.731  23.575  0.00  0.00    -0.056 NA
ATOM     16  O   UNL     1      -3.405  -0.072  23.478  0.00  0.00    -0.336 OA
ENDROOT
BRANCH  14  17
ATOM     17  C   UNL     1      -4.239   1.539  24.604  0.00  0.00    +0.043 A 
ATOM     18  C   UNL     1      -5.047   1.663  24.712  0.00  0.00    +0.024 A 
ATOM     19  C   UNL     1      -5.318   2.376  25.025  0.00  0.00    +0.100 A 
ATOM     20  N   UNL     1      -4.779   2.966  25.231  0.00  0.00    -0.229 NA
ATOM     21  C   UNL     1      -3.971   2.843  25.124  0.00  0.00    +0.132 A 
ATOM     22  C   UNL     1      -3.701   2.129  24.810  0.00  0.00    +0.037 A 
BRANCH  21  23
ATOM     23  N   UNL     1      -3.433   3.433  25.330  0.00  0.00    -0.288 N 
ATOM     24  C   UNL     1      -3.320   3.630  26.123  0.00  0.00    +0.124 C 
ATOM     25  C   UNL     1      -2.782   4.220  26.329  0.00  0.00    +0.164 C 
ATOM     26  O   UNL     1      -2.356   4.614  25.742  0.00  0.00    -0.350 OA
ATOM     27  C   UNL     1      -2.469   4.416  24.948  0.00  0.00    +0.164 C 
ATOM     28  C   UNL     1      -3.007   3.826  24.742  0.00  0.00    +0.124 C 
ENDBRANCH  21  23
ENDBRANCH  14  17
BRANCH  12   3
ATOM      1  C   UNL     1      -3.967  -2.586  24.292  0.00  0.00    +0.019 C 
ATOM      2  C   UNL     1      -4.237  -1.841  24.061  0.00  0.00    +0.027 C 
ATOM      3  C   UNL     1      -3.661  -1.286  24.265  0.00  0.00    +0.138 C 
ATOM      4  N   UNL     1      -3.035  -1.689  24.621  0.00  0.00    -0.268 NA
ATOM      5  C   UNL     1      -3.224  -2.492  24.638  0.00  0.00    +0.072 C 
BRANCH   4   6
ATOM      6  C   UNL     1      -2.342  -1.349  24.910  0.00  0.00    +0.063 C 
ATOM      7  C   UNL     1      -2.305  -1.087  25.692  0.00  0.00    +0.048 C 
ATOM      8  C   UNL     1      -1.612  -0.746  25.981  0.00  0.00    +0.144 C 
ATOM      9  O   UNL     1      -0.955  -0.667  25.488  0.00  0.00    -0.354 OA
ATOM     10  C   UNL     1      -0.991  -0.928  24.707  0.00  0.00    +0.144 C 
ATOM     11  C   UNL     1      -1.685  -1.269  24.418  0.00  0.00    +0.048 C 
ENDBRANCH   4   6
ENDBRANCH  12   3
TORSDOF 4
ENDMDL
MODEL 3
REMARK VINA RESULT:     -11.0      1.534      2.692
REMARK  Name = 
REMARK  4 active torsions:
REMARK  status: ('A' for Active; 'I' for Inactive)
REMARK    1  A    between atoms: C_3  and  C_12
REMARK    2  A    between atoms: N_4  and  C_6
REMARK    3  A    between atoms: C_14  and  C_17
REMARK    4  A    between atoms: C_21  and  N_23
REMARK                            x       y       z     vdW  Elec       q    Type
REMARK                         _______ _______ _______ _____ _____    ______ ____
ROOT
ATOM     12  C   UNL     1      -1.579   2.607  24.396  0.00  0.00    +0.251 A 
ATOM     13  N   UNL     1      -1.437   1.909  24.811  0.00  0.00    -0.190 NA
ATOM     14  C   UNL     1      -1.394   1.291  24.268  0.00  0.00    +0.203 A 
ATOM     15  N   UNL     1      -1.509   1.607  23.514  0.00  0.00    -0.056 NA
ATOM     16  O   UNL     1      -1.623   2.421  23.593  0.00  0.00    -0.336 OA
ENDROOT
BRANCH  14  17
ATOM     17  C   UNL     1      -1.260   0.497  24.444  0.00  0.00    +0.043 A 
ATOM     18  C   UNL     1      -0.489   0.206  24.473  0.00  0.00    +0.024 A 
ATOM     19  C   UNL     1      -0.353  -0.588  24.650  0.00  0.00    +0.100 A 
ATOM     20  N   UNL     1      -0.990  -1.092  24.797  0.00  0.00    -0.229 NA
ATOM     21  C   UNL     1      -1.761  -0.802  24.768  0.00  0.00    +0.132 A 
ATOM     22  C   UNL     1      -1.897  -0.007  24.591  0.00  0.00    +0.037 A 
BRANCH  21  23
ATOM     23  N   UNL     1      -2.398  -1.306  24.915  0.00  0.00    -0.288 N 
ATOM     24  C   UNL     1      -2.514  -1.971  24.442  0.00  0.00    +0.124 C 
ATOM     25  C   UNL     1      -3.151  -2.475  24.589  0.00  0.00    +0.164 C 
ATOM     26  O   UNL     1      -3.671  -2.314  25.209  0.00  0.00    -0.350 OA
ATOM     27  C   UNL     1      -3.554  -1.647  25.682  0.00  0.00    +0.164 C 
ATOM     28  C   UNL     1      -2.917  -1.143  25.535  0.00  0.00    +0.124 C 
ENDBRANCH  21  23
ENDBRANCH  14  17
BRANCH  12   3
ATOM      1  C   UNL     1      -1.376   4.557  25.239  0.00  0.00    +0.019 C 
ATOM      2  C   UNL     1      -1.045   3.866  24.935  0.00  0.00    +0.027 C 
ATOM      3  C   UNL     1      -1.661   3.359  24.723  0.00  0.00    +0.138 C 
ATOM      4  N   UNL     1      -2.374   3.739  24.896  0.00  0.00    -0.268 NA
ATOM      5  C   UNL     1      -2.198   4.479  25.215  0.00  0.00    +0.072 C 
BRANCH   4   6
ATOM      6  C   UNL     1      -3.128   3.431  24.772  0.00  0.00    +0.063 C 
ATOM      7  C   UNL     1      -3.525   3.051  25.388  0.00  0.00    +0.048 C 
ATOM      8  C   UNL     1      -4.281   2.743  25.264  0.00  0.00    +0.144 C 
ATOM      9  O   UNL     1      -4.639   2.816  24.524  0.00  0.00    -0.354 OA
ATOM     10  C   UNL     1      -4.243   3.196  23.909  0.00  0.00    +0.144 C 
ATOM     11  C   UNL     1      -3.487   3.504  24.033  0.00  0.00    +0.048 C 
ENDBRANCH   4   6
ENDBRANCH  12   3
TORSDOF 4
ENDMDL
MODEL 4
REMARK VINA RESULT:     -10.7      1.770      2.841
REMARK  Name = 
REMARK  4 active torsions:
REMARK  status: ('A' for Active; 'I' for Inactive)
REMARK    1  A    between atoms: C_3  and  C_12
REMARK    2  A    between atoms: N_4  and  C_6
REMARK    3  A    between atoms: C_14  and  C_17
REMARK    4  A    between atoms: C_21  and  N_23
REMARK                            x       y       z     vdW  Elec       q    Type
REMARK                         _______ _______ _______ _____ _____    ______ ____
ROOT
ATOM     12  C   UNL     1      -4.474   1.960  24.655  0.00  0.00    +0.251 A 
ATOM     13  N   UNL     1      -4.298   1.215  24.963  0.00  0.00    -0.190 NA
ATOM     14  C   UNL     1      -3.934   0.772  24.371  0.00  0.00    +0.203 A 
ATOM     15  N   UNL     1      -3.885   1.243  23.695  0.00  0.00    -0.056 NA
ATOM     16  O   UNL     1      -4.218   1.977  23.870  0.00  0.00    -0.336 OA
ENDROOT
BRANCH  14  17
ATOM     17  C   UNL     1      -3.665  -0.005  24.440  0.00  0.00    +0.043 A 
ATOM     18  C   UNL     1      -4.188  -0.633  24.327  0.00  0.00    +0.024 A 
ATOM     19  C   UNL     1      -3.921  -1.410  24.396  0.00  0.00    +0.100 A 
ATOM     20  N   UNL     1      -3.131  -1.559  24.579  0.00  0.00    -0.229 NA
ATOM     21  C   UNL     1      -2.607  -0.932  24.692  0.00  0.00    +0.132 A 
ATOM     22  C   UNL     1      -2.875  -0.154  24.623  0.00  0.00    +0.037 A 
BRANCH  21  23
ATOM     23  N   UNL     1      -1.817  -1.081  24.875  0.00  0.00    -0.288 N 
ATOM     24  C   UNL     1      -1.555  -1.018  25.654  0.00  0.00    +0.124 C 
ATOM     25  C   UNL     1      -0.764  -1.167  25.836  0.00  0.00    +0.164 C 
ATOM     26  O   UNL     1      -0.236  -1.381  25.240  0.00  0.00    -0.350 OA
ATOM     27  C   UNL     1      -0.499  -1.444  24.460  0.00  0.00    +0.164 C 
ATOM     28  C   UNL     1      -1.289  -1.295  24.277  0.00  0.00    +0.124 C 
ENDBRANCH  21  23
ENDBRANCH  14  17
BRANCH  12   3
ATOM      1  C   UNL     1      -5.768   3.332  25.653  0.00  0.00    +0.019 C 
ATOM      2  C   UNL     1      -5.641   2.621  25.254  0.00  0.00    +0.027 C 
ATOM      3  C   UNL     1      -4.841   2.578  25.058  0.00  0.00    +0.138 C 
ATOM      4  N   UNL     1      -4.473   3.263  25.336  0.00  0.00    -0.268 NA
ATOM      5  C   UNL     1      -5.045   3.728  25.704  0.00  0.00    +0.072 C 
BRANCH   4   6
ATOM      6  C   UNL     1      -3.673   3.448  25.259  0.00  0.00    +0.063 C 
ATOM      7  C   UNL     1      -3.145   3.258  25.865  0.00  0.00    +0.048 C 
ATOM      8  C   UNL     1      -2.345   3.443  25.788  0.00  0.00    +0.144 C 
ATOM      9  O   UNL     1      -2.073   3.819  25.106  0.00  0.00    -0.354 OA
ATOM     10  C   UNL     1      -2.600   4.009  24.501  0.00  0.00    +0.144 C 
ATOM     11  C   UNL     1      -3.400   3.824  24.578  0.00  0.00    +0.048 C 
ENDBRANCH   4   6
ENDBRANCH  12   3
TORSDOF 4
ENDMDL
MODEL 5
REMARK VINA RESULT:      -8.7     16.183     18.737
REMARK  Name = 
REMARK  4 active torsions:
REMARK  status: ('A' for Active; 'I' for Inactive)
REMARK    1  A    between atoms: C_3  and  C_12
REMARK    2  A    between atoms: N_4  and  C_6
REMARK    3  A    between atoms: C_14  and  C_17
REMARK    4  A    between atoms: C_21  and  N_23
REMARK                            x       y       z     vdW  Elec       q    Type
REMARK                         _______ _______ _______ _____ _____    ______ ____
ROOT
ATOM     12  C   UNL     1      15.572   7.078  19.099  0.00  0.00    +0.251 A 
ATOM     13  N   UNL     1      14.803   6.790  19.174  0.00  0.00    -0.190 NA
ATOM     14  C   UNL     1      14.282   7.396  18.973  0.00  0.00    +0.203 A 
ATOM     15  N   UNL     1      14.729   8.060  18.773  0.00  0.00    -0.056 NA
ATOM     16  O   UNL     1      15.526   7.863  18.851  0.00  0.00    -0.336 OA
ENDROOT
BRANCH  14  17
ATOM     17  C   UNL     1      13.458   7.348  18.971  0.00  0.00    +0.043 A 
ATOM     18  C   UNL     1      13.047   7.342  18.255  0.00  0.00    +0.024 A 
ATOM     19  C   UNL     1      12.224   7.295  18.252  0.00  0.00    +0.100 A 
ATOM     20  N   UNL     1      11.811   7.254  18.965  0.00  0.00    -0.229 NA
ATOM     21  C   UNL     1      12.221   7.260  19.681  0.00  0.00    +0.132 A 
ATOM     22  C   UNL     1      13.045   7.308  19.683  0.00  0.00    +0.037 A 
BRANCH  21  23
ATOM     23  N   UNL     1      11.807   7.219  20.393  0.00  0.00    -0.288 N 
ATOM     24  C   UNL     1      11.771   6.508  20.808  0.00  0.00    +0.124 C 
ATOM     25  C   UNL     1      11.357   6.467  21.521  0.00  0.00    +0.164 C 
ATOM     26  O   UNL     1      10.981   7.137  21.819  0.00  0.00    -0.350 OA
ATOM     27  C   UNL     1      11.018   7.850  21.403  0.00  0.00    +0.164 C 
ATOM     28  C   UNL     1      11.431   7.891  20.691  0.00  0.00    +0.124 C 
ENDBRANCH  21  23
ENDBRANCH  14  17
BRANCH  12   3
ATOM      1  C   UNL     1      17.283   5.803  19.116  0.00  0.00    +0.019 C 
ATOM      2  C   UNL     1      16.594   6.079  18.757  0.00  0.00    +0.027 C 
ATOM      3  C   UNL     1      16.265   6.656  19.246  0.00  0.00    +0.138 C 
ATOM      4  N   UNL     1      16.752   6.737  19.908  0.00  0.00    -0.268 NA
ATOM      5  C   UNL     1      17.381   6.209  19.827  0.00  0.00    +0.072 C 
BRANCH   4   6
ATOM      6  C   UNL     1      16.630   7.253  20.538  0.00  0.00    +0.063 C 
ATOM      7  C   UNL     1      16.189   7.010  21.193  0.00  0.00    +0.048 C 
ATOM      8  C   UNL     1      16.067   7.527  21.824  0.00  0.00    +0.144 C 
ATOM      9  O   UNL     1      16.387   8.288  21.801  0.00  0.00    -0.354 OA
ATOM     10  C   UNL     1      16.827   8.531  21.148  0.00  0.00    +0.144 C 
ATOM     11  C   UNL     1      16.949   8.014  20.516  0.00  0.00    +0.048 C 
ENDBRANCH   4   6
ENDBRANCH  12   3
TORSDOF 4
ENDMDL
MODEL 6
REMARK VINA RESULT:      -8.3     15.166     18.040
REMARK  Name = 
REMARK  4 active torsions:
REMARK  status: ('A' for Active; 'I' for Inactive)
REMARK    1  A    between atoms: C_3  and  C_12
REMARK    2  A    between atoms: N_4  and  C_6
REMARK    3  A    between atoms: C_14  and  C_17
REMARK    4  A    between atoms: C_21  and  N_23
REMARK                            x       y       z     vdW  Elec       q    Type
REMARK                         _______ _______ _______ _____ _____    ______ ____
ROOT
ATOM     12  C   UNL     1      12.556   6.798  21.314  0.00  0.00    +0.251 A 
ATOM     13  N   UNL     1      12.957   6.846  20.595  0.00  0.00    -0.190 NA
ATOM     14  C   UNL     1      13.615   7.332  20.700  0.00  0.00    +0.203 A 
ATOM     15  N   UNL     1      13.621   7.585  21.486  0.00  0.00    -0.056 NA
ATOM     16  O   UNL     1      12.967   7.255  21.865  0.00  0.00    -0.336 OA
ENDROOT
BRANCH  14  17
ATOM     17  C   UNL     1      14.169   7.530  20.123  0.00  0.00    +0.043 A 
ATOM     18  C   UNL     1      14.054   8.199  19.653  0.00  0.00    +0.024 A 
ATOM     19  C   UNL     1      14.608   8.398  19.076  0.00  0.00    +0.100 A 
ATOM     20  N   UNL     1      15.278   7.929  18.968  0.00  0.00    -0.229 NA
ATOM     21  C   UNL     1      15.394   7.261  19.437  0.00  0.00    +0.132 A 
ATOM     22  C   UNL     1      14.840   7.062  20.015  0.00  0.00    +0.037 A 
BRANCH  21  23
ATOM     23  N   UNL     1      16.064   6.792  19.329  0.00  0.00    -0.288 N 
ATOM     24  C   UNL     1      16.669   6.803  19.889  0.00  0.00    +0.124 C 
ATOM     25  C   UNL     1      17.339   6.335  19.781  0.00  0.00    +0.164 C 
ATOM     26  O   UNL     1      17.404   5.855  19.113  0.00  0.00    -0.350 OA
ATOM     27  C   UNL     1      16.799   5.844  18.553  0.00  0.00    +0.164 C 
ATOM     28  C   UNL     1      16.128   6.313  18.661  0.00  0.00    +0.124 C 
ENDBRANCH  21  23
ENDBRANCH  14  17
BRANCH  12   3
ATOM      1  C   UNL     1      11.014   5.357  21.628  0.00  0.00    +0.019 C 
ATOM      2  C   UNL     1      11.798   5.547  21.457  0.00  0.00    +0.027 C 
ATOM      3  C   UNL     1      11.867   6.370  21.459  0.00  0.00    +0.138 C 
ATOM      4  N   UNL     1      11.125   6.687  21.631  0.00  0.00    -0.268 NA
ATOM      5  C   UNL     1      10.598   6.061  21.735  0.00  0.00    +0.072 C 
BRANCH   4   6
ATOM      6  C   UNL     1      10.942   7.489  21.688  0.00  0.00    +0.063 C 
ATOM      7  C   UNL     1      10.772   7.923  21.006  0.00  0.00    +0.048 C 
ATOM      8  C   UNL     1      10.590   8.726  21.064  0.00  0.00    +0.144 C 
ATOM      9  O   UNL     1      10.577   9.094  21.802  0.00  0.00    -0.354 OA
ATOM     10  C   UNL     1      10.746   8.660  22.482  0.00  0.00    +0.144 C 
ATOM     11  C   UNL     1      10.929   7.858  22.425  0.00  0.00    +0.048 C 
ENDBRANCH   4   6
ENDBRANCH  12   3
TORSDOF 4
ENDMDL
MODEL 7
REMARK VINA RESULT:      -8.2     16.627     18.377
REMARK  Name = 
REMARK  4 active torsions:
REMARK  status: ('A' for Active; 'I' for Inactive)
REMARK    1  A    between atoms: C_3  and  C_12
REMARK    2  A    between atoms: N_4  and  C_6
REMARK    3  A    between atoms: C_14  and  C_17
REMARK    4  A    between atoms: C_21  and  N_23
REMARK                            x       y       z     vdW  Elec       q    Type
REMARK                         _______ _______ _______ _____ _____    ______ ____
ROOT
ATOM     12  C   UNL     1      14.187   7.064  19.702  0.00  0.00    +0.251 A 
ATOM     13  N   UNL     1      13.720   7.620  19.310  0.00  0.00    -0.190 NA
ATOM     14  C   UNL     1      12.931   7.460  19.485  0.00  0.00    +0.203 A 
ATOM     15  N   UNL     1      12.909   6.805  19.986  0.00  0.00    -0.056 NA
ATOM     16  O   UNL     1      13.685   6.560  20.120  0.00  0.00    -0.336 OA
ENDROOT
BRANCH  14  17
ATOM     17  C   UNL     1      12.277   7.881  19.209  0.00  0.00    +0.043 A 
ATOM     18  C   UNL     1      11.704   8.146  19.740  0.00  0.00    +0.024 A 
ATOM     19  C   UNL     1      11.050   8.567  19.465  0.00  0.00    +0.100 A 
ATOM     20  N   UNL     1      10.969   8.723  18.659  0.00  0.00    -0.229 NA
ATOM     21  C   UNL     1      11.541   8.458  18.128  0.00  0.00    +0.132 A 
ATOM     22  C   UNL     1      12.196   8.037  18.403  0.00  0.00    +0.037 A 
BRANCH  21  23
ATOM     23  N   UNL     1      11.460   8.614  17.322  0.00  0.00    -0.288 N 
ATOM     24  C   UNL     1      12.091   8.936  16.899  0.00  0.00    +0.124 C 
ATOM     25  C   UNL     1      12.010   9.092  16.093  0.00  0.00    +0.164 C 
ATOM     26  O   UNL     1      11.298   8.925  15.710  0.00  0.00    -0.350 OA
ATOM     27  C   UNL     1      10.668   8.603  16.134  0.00  0.00    +0.164 C 
ATOM     28  C   UNL     1      10.749   8.447  16.940  0.00  0.00    +0.124 C 
ENDBRANCH  21  23
ENDBRANCH  14  17
BRANCH  12   3
ATOM      1  C   UNL     1      16.255   6.718  19.305  0.00  0.00    +0.019 C 
ATOM      2  C   UNL     1      15.458   6.618  19.115  0.00  0.00    +0.027 C 
ATOM      3  C   UNL     1      15.010   7.019  19.680  0.00  0.00    +0.138 C 
ATOM      4  N   UNL     1      15.530   7.365  20.219  0.00  0.00    -0.268 NA
ATOM      5  C   UNL     1      16.299   7.179  19.987  0.00  0.00    +0.072 C 
BRANCH   4   6
ATOM      6  C   UNL     1      15.317   7.818  20.874  0.00  0.00    +0.063 C 
ATOM      7  C   UNL     1      15.157   7.450  21.596  0.00  0.00    +0.048 C 
ATOM      8  C   UNL     1      14.944   7.903  22.252  0.00  0.00    +0.144 C 
ATOM      9  O   UNL     1      14.892   8.724  22.186  0.00  0.00    -0.354 OA
ATOM     10  C   UNL     1      15.053   9.092  21.466  0.00  0.00    +0.144 C 
ATOM     11  C   UNL     1      15.265   8.639  20.810  0.00  0.00    +0.048 C 
ENDBRANCH   4   6
ENDBRANCH  12   3
TORSDOF 4
ENDMDL
MODEL 8
REMARK VINA RESULT:      -7.8     14.844     17.634
REMARK  Name = 
REMARK  4 active torsions:
REMARK  status: ('A' for Active; 'I' for Inactive)
REMARK    1  A    between atoms: C_3  and  C_12
REMARK    2  A    between atoms: N_4  and  C_6
REMARK    3  A    between atoms: C_14  and  C_17
REMARK    4  A    between atoms: C_21  and  N_23
REMARK                            x       y       z     vdW  Elec       q    Type
REMARK                         _______ _______ _______ _____ _____    ______ ____
ROOT
ATOM     12  C   UNL     1      12.531   6.597  20.961  0.00  0.00    +0.251 A 
ATOM     13  N   UNL     1      12.747   6.634  20.166  0.00  0.00    -0.190 NA
ATOM     14  C   UNL     1      13.466   7.033  20.114  0.00  0.00    +0.203 A 
ATOM     15  N   UNL     1      13.695   7.244  20.879  0.00  0.00    -0.056 NA
ATOM     16  O   UNL     1      13.117   6.974  21.402  0.00  0.00    -0.336 OA
ENDROOT
BRANCH  14  17
ATOM     17  C   UNL     1      13.884   7.195  19.422  0.00  0.00    +0.043 A 
ATOM     18  C   UNL     1      14.677   6.975  19.358  0.00  0.00    +0.024 A 
ATOM     19  C   UNL     1      15.096   7.136  18.666  0.00  0.00    +0.100 A 
ATOM     20  N   UNL     1      14.722   7.518  18.038  0.00  0.00    -0.229 NA
ATOM     21  C   UNL     1      13.930   7.738  18.101  0.00  0.00    +0.132 A 
ATOM     22  C   UNL     1      13.511   7.577  18.793  0.00  0.00    +0.037 A 
BRANCH  21  23
ATOM     23  N   UNL     1      13.556   8.120  17.472  0.00  0.00    -0.288 N 
ATOM     24  C   UNL     1      12.761   8.331  17.532  0.00  0.00    +0.124 C 
ATOM     25  C   UNL     1      12.388   8.713  16.903  0.00  0.00    +0.164 C 
ATOM     26  O   UNL     1      12.809   8.883  16.214  0.00  0.00    -0.350 OA
ATOM     27  C   UNL     1      13.604   8.671  16.155  0.00  0.00    +0.164 C 
ATOM     28  C   UNL     1      13.978   8.290  16.783  0.00  0.00    +0.124 C 
ENDBRANCH  21  23
ENDBRANCH  14  17
BRANCH  12   3
ATOM      1  C   UNL     1      10.966   5.329  21.667  0.00  0.00    +0.019 C 
ATOM      2  C   UNL     1      11.717   5.434  21.342  0.00  0.00    +0.027 C 
ATOM      3  C   UNL     1      11.849   6.245  21.263  0.00  0.00    +0.138 C 
ATOM      4  N   UNL     1      11.180   6.641  21.539  0.00  0.00    -0.268 NA
ATOM      5  C   UNL     1      10.634   6.075  21.789  0.00  0.00    +0.072 C 
BRANCH   4   6
ATOM      6  C   UNL     1      11.075   7.458  21.562  0.00  0.00    +0.063 C 
ATOM      7  C   UNL     1      11.278   7.881  22.241  0.00  0.00    +0.048 C 
ATOM      8  C   UNL     1      11.173   8.699  22.264  0.00  0.00    +0.144 C 
ATOM      9  O   UNL     1      10.866   9.094  21.607  0.00  0.00    -0.354 OA
ATOM     10  C   UNL     1      10.663   8.671  20.929  0.00  0.00    +0.144 C 
ATOM     11  C   UNL     1      10.768   7.853  20.906  0.00  0.00    +0.048 C 
ENDBRANCH   4   6
ENDBRANCH  12   3
TORSDOF 4
ENDMDL
MODEL 9
REMARK VINA RESULT:      -7.8     17.176     18.904
REMARK  Name = 
REMARK  4 active torsions:
REMARK  status: ('A' for Active; 'I' for Inactive)
REMARK    1  A    between atoms: C_3  and  C_12
REMARK    2  A    between atoms: N_4  and  C_6
REMARK    3  A    between atoms: C_14  and  C_17
REMARK    4  A    between atoms: C_21  and  N_23
REMARK                            x       y       z     vdW  Elec       q    Type
REMARK                         _______ _______ _______ _____ _____    ______ ____
ROOT
ATOM     12  C   UNL     1      14.929   7.900  19.014  0.00  0.00    +0.251 A 
ATOM     13  N   UNL     1      14.560   7.784  18.285  0.00  0.00    -0.190 NA
ATOM     14  C   UNL     1      14.325   8.519  17.996  0.00  0.00    +0.203 A 
ATOM     15  N   UNL     1      14.548   9.092  18.547  0.00  0.00    -0.056 NA
ATOM     16  O   UNL     1      14.921   8.710  19.176  0.00  0.00    -0.336 OA
ENDROOT
BRANCH  14  17
ATOM     17  C   UNL     1      13.936   8.659  17.283  0.00  0.00    +0.043 A 
ATOM     18  C   UNL     1      14.370   8.830  16.603  0.00  0.00    +0.024 A 
ATOM     19  C   UNL     1      13.982   8.971  15.889  0.00  0.00    +0.100 A 
ATOM     20  N   UNL     1      13.158   8.940  15.855  0.00  0.00    -0.229 NA
ATOM     21  C   UNL     1      12.723   8.770  16.534  0.00  0.00    +0.132 A 
ATOM     22  C   UNL     1      13.112   8.629  17.249  0.00  0.00    +0.037 A 
BRANCH  21  23
ATOM     23  N   UNL     1      11.899   8.739  16.500  0.00  0.00    -0.288 N 
ATOM     24  C   UNL     1      11.476   8.355  17.095  0.00  0.00    +0.124 C 
ATOM     25  C   UNL     1      10.653   8.325  17.061  0.00  0.00    +0.164 C 
ATOM     26  O   UNL     1      10.252   8.679  16.432  0.00  0.00    -0.350 OA
ATOM     27  C   UNL     1      10.676   9.063  15.838  0.00  0.00    +0.164 C 
ATOM     28  C   UNL     1      11.499   9.094  15.872  0.00  0.00    +0.124 C 
ENDBRANCH  21  23
ENDBRANCH  14  17
BRANCH  12   3
ATOM      1  C   UNL     1      16.077   6.395  19.999  0.00  0.00    +0.019 C 
ATOM      2  C   UNL     1      15.979   6.945  19.392  0.00  0.00    +0.027 C 
ATOM      3  C   UNL     1      15.248   7.313  19.496  0.00  0.00    +0.138 C 
ATOM      4  N   UNL     1      14.893   6.990  20.168  0.00  0.00    -0.268 NA
ATOM      5  C   UNL     1      15.405   6.423  20.478  0.00  0.00    +0.072 C 
BRANCH   4   6
ATOM      6  C   UNL     1      14.157   7.197  20.474  0.00  0.00    +0.063 C 
ATOM      7  C   UNL     1      13.481   6.786  20.238  0.00  0.00    +0.048 C 
ATOM      8  C   UNL     1      12.744   6.994  20.545  0.00  0.00    +0.144 C 
ATOM      9  O   UNL     1      12.683   7.613  21.087  0.00  0.00    -0.354 OA
ATOM     10  C   UNL     1      13.357   8.023  21.323  0.00  0.00    +0.144 C 
ATOM     11  C   UNL     1      14.095   7.816  21.016  0.00  0.00    +0.048 C 
ENDBRANCH   4   6
ENDBRANCH  12   3
TORSDOF 4
ENDMDL
