MODEL 1
REMARK VINA RESULT:     -10.7      0.000      0.000
REMARK  Name = 
REMARK  8 active torsions:
REMARK  status: ('A' for Active; 'I' for Inactive)
REMARK    1  A    between atoms: O_2  and  C_3
REMARK    2  A    between atoms: C_3  and  C_4
REMARK    3  A    between atoms: C_4  and  N_5
REMARK    4  A    between atoms: N_5  and  C_6
REMARK    5  A    between atoms: C_8  and  C_12
REMARK    6  A    between atoms: C_15  and  C_17
REMARK    7  A    between atoms: N_21  and  C_22
REMARK    8  A    between atoms: C_22  and  C_23
REMARK                            x       y       z     vdW  Elec       q    Type
REMARK                         _______ _______ _______ _____ _____    ______ ____
ROOT
ATOM     12  C   UNL     1      -3.124   3.333  24.727  0.00  0.00    +0.203 A 
ATOM     13  N   UNL     1      -3.591   3.514  24.070  0.00  0.00    -0.056 NA
ATOM     14  O   UNL     1      -4.262   3.033  24.095  0.00  0.00    -0.336 OA
ATOM     15  C   UNL     1      -4.210   2.557  24.766  0.00  0.00    +0.251 A 
ATOM     16  N   UNL     1      -3.507   2.742  25.157  0.00  0.00    -0.190 NA
ENDROOT
BRANCH  12   8
ATOM      6  C   UNL     1      -1.000   3.570  25.165  0.00  0.00    +0.148 A 
ATOM      7  C   UNL     1      -1.722   3.220  24.973  0.00  0.00    +0.039 A 
ATOM      8  C   UNL     1      -2.402   3.683  24.919  0.00  0.00    +0.043 A 
ATOM      9  C   UNL     1      -2.362   4.495  25.058  0.00  0.00    +0.024 A 
ATOM     10  C   UNL     1      -1.640   4.845  25.250  0.00  0.00    +0.100 A 
ATOM     11  N   UNL     1      -0.958   4.383  25.304  0.00  0.00    -0.228 NA
BRANCH   6   5
ATOM      5  N   UNL     1      -0.318   3.108  25.219  0.00  0.00    -0.218 NA
BRANCH   5   4
ATOM      4  C   UNL     1      -0.071   2.660  24.572  0.00  0.00    +0.146 C 
BRANCH   4   3
ATOM      3  C   UNL     1       0.440   2.021  24.685  0.00  0.00    +0.166 C 
BRANCH   3   2
ATOM      1  C   UNL     1       0.973   1.077  23.754  0.00  0.00    +0.174 C 
ATOM      2  O   UNL     1       0.989   1.825  24.101  0.00  0.00    -0.349 OA
ENDBRANCH   3   2
ENDBRANCH   4   3
ENDBRANCH   5   4
ENDBRANCH   6   5
ENDBRANCH  12   8
BRANCH  15  17
ATOM     17  C   UNL     1      -4.763   1.994  25.005  0.00  0.00    +0.138 C 
ATOM     18  C   UNL     1      -5.484   2.149  25.376  0.00  0.00    +0.027 C 
ATOM     19  C   UNL     1      -5.859   1.428  25.516  0.00  0.00    +0.019 C 
ATOM     20  C   UNL     1      -5.371   0.827  25.232  0.00  0.00    +0.073 C 
ATOM     21  N   UNL     1      -4.693   1.177  24.916  0.00  0.00    -0.263 NA
BRANCH  21  22
ATOM     22  C   UNL     1      -4.058   0.779  24.572  0.00  0.00    +0.099 C 
BRANCH  22  23
ATOM     23  C   UNL     1      -4.008  -0.043  24.624  0.00  0.00    -0.006 A 
ATOM     24  C   UNL     1      -4.280  -0.513  24.003  0.00  0.00    -0.003 A 
ATOM     25  C   UNL     1      -4.231  -1.334  24.055  0.00  0.00    -0.000 A 
ATOM     26  C   UNL     1      -3.910  -1.686  24.727  0.00  0.00    -0.000 A 
ATOM     27  C   UNL     1      -3.638  -1.217  25.349  0.00  0.00    -0.000 A 
ATOM     28  C   UNL     1      -3.687  -0.395  25.297  0.00  0.00    -0.003 A 
ENDBRANCH  22  23
ENDBRANCH  21  22
ENDBRANCH  15  17
TORSDOF 8
ENDMDL
MODEL 2
REMARK VINA RESULT:     -10.6      1.604      3.640
REMARK  Name = 
REMARK  8 active torsions:
REMARK  status: ('A' for Active; 'I' for Inactive)
REMARK    1  A    between atoms: O_2  and  C_3
REMARK    2  A    between atoms: C_3  and  C_4
REMARK    3  A    between atoms: C_4  and  N_5
REMARK    4  A    between atoms: N_5  and  C_6
REMARK    5  A    between atoms: C_8  and  C_12
REMARK    6  A    between atoms: C_15  and  C_17
REMARK    7  A    between atoms: N_21  and  C_22
REMARK    8  A    between atoms: C_22  and  C_23
REMARK                            x       y       z     vdW  Elec       q    Type
REMARK                         _______ _______ _______ _____ _____    ______ ____
ROOT
ATOM     12  C   UNL     1      -1.034   2.094  25.458  0.00  0.00    +0.203 A 
ATOM     13  N   UNL     1      -0.656   1.745  26.104  0.00  0.00    -0.056 NA
ATOM     14  O   UNL     1      -0.511   0.954  25.919  0.00  0.00    -0.336 OA
ATOM     15  C   UNL     1      -0.800   0.814  25.159  0.00  0.00    +0.251 A 
ATOM     16  N   UNL     1      -1.123   1.518  24.874  0.00  0.00    -0.190 NA
ENDROOT
BRANCH  12   8
ATOM      6  C   UNL     1      -2.290   3.874  25.586  0.00  0.00    +0.148 A 
ATOM      7  C   UNL     1      -2.044   3.088  25.638  0.00  0.00    +0.039 A 
ATOM      8  C   UNL     1      -1.280   2.879  25.407  0.00  0.00    +0.043 A 
ATOM      9  C   UNL     1      -0.763   3.455  25.124  0.00  0.00    +0.024 A 
ATOM     10  C   UNL     1      -1.008   4.241  25.072  0.00  0.00    +0.100 A 
ATOM     11  N   UNL     1      -1.772   4.451  25.303  0.00  0.00    -0.228 NA
BRANCH   6   5
ATOM      5  N   UNL     1      -3.054   4.084  25.817  0.00  0.00    -0.218 NA
BRANCH   5   4
ATOM      4  C   UNL     1      -3.706   3.774  25.417  0.00  0.00    +0.146 C 
BRANCH   4   3
ATOM      3  C   UNL     1      -4.458   3.826  25.753  0.00  0.00    +0.166 C 
BRANCH   3   2
ATOM      1  C   UNL     1      -5.711   3.149  25.638  0.00  0.00    +0.174 C 
ATOM      2  O   UNL     1      -5.123   3.624  25.309  0.00  0.00    -0.349 OA
ENDBRANCH   3   2
ENDBRANCH   4   3
ENDBRANCH   5   4
ENDBRANCH   6   5
ENDBRANCH  12   8
BRANCH  15  17
ATOM     17  C   UNL     1      -0.771   0.096  24.754  0.00  0.00    +0.138 C 
ATOM     18  C   UNL     1      -0.144  -0.174  24.290  0.00  0.00    +0.027 C 
ATOM     19  C   UNL     1      -0.349  -0.916  23.991  0.00  0.00    +0.019 C 
ATOM     20  C   UNL     1      -1.102  -1.103  24.269  0.00  0.00    +0.073 C 
ATOM     21  N   UNL     1      -1.363  -0.478  24.741  0.00  0.00    -0.263 NA
BRANCH  21  22
ATOM     22  C   UNL     1      -2.089  -0.436  25.131  0.00  0.00    +0.099 C 
BRANCH  22  23
ATOM     23  C   UNL     1      -2.706  -0.935  24.909  0.00  0.00    -0.006 A 
ATOM     24  C   UNL     1      -2.778  -1.681  25.254  0.00  0.00    -0.003 A 
ATOM     25  C   UNL     1      -3.395  -2.181  25.032  0.00  0.00    -0.000 A 
ATOM     26  C   UNL     1      -3.942  -1.935  24.466  0.00  0.00    -0.000 A 
ATOM     27  C   UNL     1      -3.871  -1.189  24.121  0.00  0.00    -0.000 A 
ATOM     28  C   UNL     1      -3.253  -0.689  24.343  0.00  0.00    -0.003 A 
ENDBRANCH  22  23
ENDBRANCH  21  22
ENDBRANCH  15  17
TORSDOF 8
ENDMDL
MODEL 3
REMARK VINA RESULT:     -10.3      2.018      4.432
REMARK  Name = 
REMARK  8 active torsions:
REMARK  status: ('A' for Active; 'I' for Inactive)
REMARK    1  A    between atoms: O_2  and  C_3
REMARK    2  A    between atoms: C_3  and  C_4
REMARK    3  A    between atoms: C_4  and  N_5
REMARK    4  A    between atoms: N_5  and  C_6
REMARK    5  A    between atoms: C_8  and  C_12
REMARK    6  A    between atoms: C_15  and  C_17
REMARK    7  A    between atoms: N_21  and  C_22
REMARK    8  A    between atoms: C_22  and  C_23
REMARK                            x       y       z     vdW  Elec       q    Type
REMARK                         _______ _______ _______ _____ _____    ______ ____
ROOT
ATOM     12  C   UNL     1      -0.454   1.583  25.026  0.00  0.00    +0.203 A 
ATOM     13  N   UNL     1      -0.194   1.774  25.786  0.00  0.00    -0.056 NA
ATOM     14  O   UNL     1      -0.458   2.536  25.962  0.00  0.00    -0.336 OA
ATOM     15  C   UNL     1      -0.880   2.816  25.311  0.00  0.00    +0.251 A 
ATOM     16  N   UNL     1      -0.878   2.227  24.733  0.00  0.00    -0.190 NA
ENDROOT
BRANCH  12   8
ATOM      6  C   UNL     1      -0.527  -0.534  24.500  0.00  0.00    +0.148 A 
ATOM      7  C   UNL     1      -0.667   0.176  24.896  0.00  0.00    +0.039 A 
ATOM      8  C   UNL     1      -0.314   0.873  24.630  0.00  0.00    +0.043 A 
ATOM      9  C   UNL     1       0.179   0.860  23.969  0.00  0.00    +0.024 A 
ATOM     10  C   UNL     1       0.319   0.150  23.573  0.00  0.00    +0.100 A 
ATOM     11  N   UNL     1      -0.033  -0.547  23.838  0.00  0.00    -0.228 NA
BRANCH   6   5
ATOM      5  N   UNL     1      -0.879  -1.231  24.765  0.00  0.00    -0.218 NA
BRANCH   5   4
ATOM      4  C   UNL     1      -1.576  -1.500  24.416  0.00  0.00    +0.146 C 
BRANCH   4   3
ATOM      3  C   UNL     1      -1.983  -2.138  24.746  0.00  0.00    +0.166 C 
BRANCH   3   2
ATOM      1  C   UNL     1      -3.307  -2.676  24.728  0.00  0.00    +0.174 C 
ATOM      2  O   UNL     1      -2.607  -2.486  24.334  0.00  0.00    -0.349 OA
ENDBRANCH   3   2
ENDBRANCH   4   3
ENDBRANCH   5   4
ENDBRANCH   6   5
ENDBRANCH  12   8
BRANCH  15  17
ATOM     17  C   UNL     1      -1.242   3.554  25.249  0.00  0.00    +0.138 C 
ATOM     18  C   UNL     1      -0.864   4.266  25.072  0.00  0.00    +0.027 C 
ATOM     19  C   UNL     1      -1.434   4.863  25.066  0.00  0.00    +0.019 C 
ATOM     20  C   UNL     1      -2.164   4.520  25.239  0.00  0.00    +0.073 C 
ATOM     21  N   UNL     1      -2.045   3.711  25.352  0.00  0.00    -0.263 NA
BRANCH  21  22
ATOM     22  C   UNL     1      -2.628   3.158  25.535  0.00  0.00    +0.099 C 
BRANCH  22  23
ATOM     23  C   UNL     1      -3.421   3.328  25.387  0.00  0.00    -0.006 A 
ATOM     24  C   UNL     1      -3.750   3.156  24.650  0.00  0.00    -0.003 A 
ATOM     25  C   UNL     1      -4.543   3.327  24.502  0.00  0.00    -0.000 A 
ATOM     26  C   UNL     1      -5.008   3.670  25.090  0.00  0.00    -0.000 A 
ATOM     27  C   UNL     1      -4.680   3.843  25.827  0.00  0.00    -0.000 A 
ATOM     28  C   UNL     1      -3.886   3.672  25.976  0.00  0.00    -0.003 A 
ENDBRANCH  22  23
ENDBRANCH  21  22
ENDBRANCH  15  17
TORSDOF 8
ENDMDL
MODEL 4
REMARK VINA RESULT:     -10.1      1.795      3.109
REMARK  Name = 
REMARK  8 active torsions:
REMARK  status: ('A' for Active; 'I' for Inactive)
REMARK    1  A    between atoms: O_2  and  C_3
REMARK    2  A    between atoms: C_3  and  C_4
REMARK    3  A    between atoms: C_4  and  N_5
REMARK    4  A    between atoms: N_5  and  C_6
REMARK    5  A    between atoms: C_8  and  C_12
REMARK    6  A    between atoms: C_15  and  C_17
REMARK    7  A    between atoms: N_21  and  C_22
REMARK    8  A    between atoms: C_22  and  C_23
REMARK                            x       y       z     vdW  Elec       q    Type
REMARK                         _______ _______ _______ _____ _____    ______ ____
ROOT
ATOM     12  C   UNL     1      -4.090   1.621  24.460  0.00  0.00    +0.203 A 
ATOM     13  N   UNL     1      -3.935   1.554  23.652  0.00  0.00    -0.056 NA
ATOM     14  O   UNL     1      -3.784   0.760  23.487  0.00  0.00    -0.336 OA
ATOM     15  C   UNL     1      -3.846   0.336  24.192  0.00  0.00    +0.251 A 
ATOM     16  N   UNL     1      -4.035   0.869  24.793  0.00  0.00    -0.190 NA
ENDROOT
BRANCH  12   8
ATOM      6  C   UNL     1      -3.838   3.496  25.548  0.00  0.00    +0.148 A 
ATOM      7  C   UNL     1      -3.660   2.799  25.145  0.00  0.00    +0.039 A 
ATOM      8  C   UNL     1      -4.268   2.318  24.863  0.00  0.00    +0.043 A 
ATOM      9  C   UNL     1      -5.055   2.534  24.985  0.00  0.00    +0.024 A 
ATOM     10  C   UNL     1      -5.233   3.232  25.388  0.00  0.00    +0.100 A 
ATOM     11  N   UNL     1      -4.626   3.713  25.670  0.00  0.00    -0.228 NA
BRANCH   6   5
ATOM      5  N   UNL     1      -3.231   3.977  25.830  0.00  0.00    -0.218 NA
BRANCH   5   4
ATOM      4  C   UNL     1      -2.668   4.281  25.309  0.00  0.00    +0.146 C 
BRANCH   4   3
ATOM      3  C   UNL     1      -1.969   4.607  25.601  0.00  0.00    +0.166 C 
BRANCH   3   2
ATOM      1  C   UNL     1      -0.805   5.071  24.914  0.00  0.00    +0.174 C 
ATOM      2  O   UNL     1      -1.578   5.194  25.174  0.00  0.00    -0.349 OA
ENDBRANCH   3   2
ENDBRANCH   4   3
ENDBRANCH   5   4
ENDBRANCH   6   5
ENDBRANCH  12   8
BRANCH  15  17
ATOM     17  C   UNL     1      -3.738  -0.477  24.280  0.00  0.00    +0.138 C 
ATOM     18  C   UNL     1      -4.329  -1.051  24.246  0.00  0.00    +0.027 C 
ATOM     19  C   UNL     1      -3.976  -1.788  24.363  0.00  0.00    +0.019 C 
ATOM     20  C   UNL     1      -3.167  -1.669  24.470  0.00  0.00    +0.073 C 
ATOM     21  N   UNL     1      -3.020  -0.858  24.419  0.00  0.00    -0.263 NA
BRANCH  21  22
ATOM     22  C   UNL     1      -2.283  -0.494  24.494  0.00  0.00    +0.099 C 
BRANCH  22  23
ATOM     23  C   UNL     1      -1.645  -0.914  24.803  0.00  0.00    -0.006 A 
ATOM     24  C   UNL     1      -1.179  -1.381  24.306  0.00  0.00    -0.003 A 
ATOM     25  C   UNL     1      -0.540  -1.801  24.615  0.00  0.00    -0.000 A 
ATOM     26  C   UNL     1      -0.366  -1.756  25.420  0.00  0.00    -0.000 A 
ATOM     27  C   UNL     1      -0.832  -1.289  25.917  0.00  0.00    -0.000 A 
ATOM     28  C   UNL     1      -1.471  -0.869  25.607  0.00  0.00    -0.003 A 
ENDBRANCH  22  23
ENDBRANCH  21  22
ENDBRANCH  15  17
TORSDOF 8
ENDMDL
MODEL 5
REMARK VINA RESULT:     -10.1      1.627      4.303
REMARK  Name = 
REMARK  8 active torsions:
REMARK  status: ('A' for Active; 'I' for Inactive)
REMARK    1  A    between atoms: O_2  and  C_3
REMARK    2  A    between atoms: C_3  and  C_4
REMARK    3  A    between atoms: C_4  and  N_5
REMARK    4  A    between atoms: N_5  and  C_6
REMARK    5  A    between atoms: C_8  and  C_12
REMARK    6  A    between atoms: C_15  and  C_17
REMARK    7  A    between atoms: N_21  and  C_22
REMARK    8  A    between atoms: C_22  and  C_23
REMARK                            x       y       z     vdW  Elec       q    Type
REMARK                         _______ _______ _______ _____ _____    ______ ____
ROOT
ATOM     12  C   UNL     1      -4.041   0.287  24.740  0.00  0.00    +0.203 A 
ATOM     13  N   UNL     1      -4.526   0.544  25.357  0.00  0.00    -0.056 NA
ATOM     14  O   UNL     1      -4.615   1.362  25.286  0.00  0.00    -0.336 OA
ATOM     15  C   UNL     1      -4.186   1.609  24.626  0.00  0.00    +0.251 A 
ATOM     16  N   UNL     1      -3.831   0.944  24.289  0.00  0.00    -0.190 NA
ENDROOT
BRANCH  12   8
ATOM      6  C   UNL     1      -2.825  -1.525  24.692  0.00  0.00    +0.148 A 
ATOM      7  C   UNL     1      -3.058  -0.746  24.833  0.00  0.00    +0.039 A 
ATOM      8  C   UNL     1      -3.808  -0.492  24.600  0.00  0.00    +0.043 A 
ATOM      9  C   UNL     1      -4.324  -1.016  24.228  0.00  0.00    +0.024 A 
ATOM     10  C   UNL     1      -4.091  -1.795  24.088  0.00  0.00    +0.100 A 
ATOM     11  N   UNL     1      -3.342  -2.050  24.320  0.00  0.00    -0.228 NA
BRANCH   6   5
ATOM      5  N   UNL     1      -2.076  -1.780  24.924  0.00  0.00    -0.218 NA
BRANCH   5   4
ATOM      4  C   UNL     1      -1.414  -1.580  24.474  0.00  0.00    +0.146 C 
BRANCH   4   3
ATOM      3  C   UNL     1      -0.687  -1.452  24.844  0.00  0.00    +0.166 C 
BRANCH   3   2
ATOM      1  C   UNL     1       0.231  -0.627  24.124  0.00  0.00    +0.174 C 
ATOM      2  O   UNL     1      -0.003  -1.372  24.391  0.00  0.00    -0.349 OA
ENDBRANCH   3   2
ENDBRANCH   4   3
ENDBRANCH   5   4
ENDBRANCH   6   5
ENDBRANCH  12   8
BRANCH  15  17
ATOM     17  C   UNL     1      -4.122   2.384  24.352  0.00  0.00    +0.138 C 
ATOM     18  C   UNL     1      -4.625   2.749  23.808  0.00  0.00    +0.027 C 
ATOM     19  C   UNL     1      -4.357   3.521  23.693  0.00  0.00    +0.019 C 
ATOM     20  C   UNL     1      -3.690   3.634  24.165  0.00  0.00    +0.073 C 
ATOM     21  N   UNL     1      -3.545   2.931  24.572  0.00  0.00    -0.263 NA
BRANCH  21  22
ATOM     22  C   UNL     1      -2.930   2.798  25.106  0.00  0.00    +0.099 C 
BRANCH  22  23
ATOM     23  C   UNL     1      -2.290   3.318  25.136  0.00  0.00    -0.006 A 
ATOM     24  C   UNL     1      -1.592   3.138  24.734  0.00  0.00    -0.003 A 
ATOM     25  C   UNL     1      -0.953   3.657  24.764  0.00  0.00    -0.000 A 
ATOM     26  C   UNL     1      -1.011   4.358  25.195  0.00  0.00    -0.000 A 
ATOM     27  C   UNL     1      -1.708   4.540  25.597  0.00  0.00    -0.000 A 
ATOM     28  C   UNL     1      -2.348   4.019  25.567  0.00  0.00    -0.003 A 
ENDBRANCH  22  23
ENDBRANCH  21  22
ENDBRANCH  15  17
TORSDOF 8
ENDMDL
