MODEL 1
REMARK VINA RESULT:     -11.4      0.000      0.000
REMARK  Name = 
REMARK  8 active torsions:
REMARK  status: ('A' for Active; 'I' for Inactive)
REMARK    1  A    between atoms: C_2  and  C_4
REMARK    2  A    between atoms: C_6  and  C_7
REMARK    3  A    between atoms: C_7  and  C_8
REMARK    4  A    between atoms: N_10  and  C_11
REMARK    5  A    between atoms: C_20  and  C_21
REMARK    6  A    between atoms: C_21  and  N_22
REMARK    7  A    between atoms: N_22  and  S_23
REMARK    8  A    between atoms: S_23  and  C_26
REMARK                            x       y       z     vdW  Elec       q    Type
REMARK                         _______ _______ _______ _____ _____    ______ ____
ROOT
ATOM      4  C   UNL     1      -3.364   1.661  23.985  0.00  0.00    +0.006 C 
ATOM      5  C   UNL     1      -3.388   2.462  24.179  0.00  0.00    +0.005 C 
ATOM      6  C   UNL     1      -3.937   2.737  24.729  0.00  0.00    +0.027 C 
ATOM     17  C   UNL     1      -4.464   2.211  25.085  0.00  0.00    -0.048 C 
ATOM     18  C   UNL     1      -5.013   2.487  25.635  0.00  0.00    +0.026 C 
ATOM     19  C   UNL     1      -4.440   1.410  24.891  0.00  0.00    -0.033 C 
ATOM     20  C   UNL     1      -3.890   1.135  24.341  0.00  0.00    +0.041 C 
ENDROOT
BRANCH   4   2
ATOM      1  C   UNL     1      -2.071   1.132  23.686  0.00  0.00    +0.000 C 
ATOM      2  C   UNL     1      -2.815   1.385  23.435  0.00  0.00    +0.000 C 
ATOM      3  C   UNL     1      -3.008   1.363  22.633  0.00  0.00    +0.000 C 
ENDBRANCH   4   2
BRANCH   6   7
ATOM      7  C   UNL     1      -3.961   3.539  24.923  0.00  0.00    +0.091 C 
BRANCH   7   8
ATOM      8  C   UNL     1      -3.303   4.017  24.783  0.00  0.00    +0.247 C 
ATOM      9  O   UNL     1      -3.217   4.399  24.056  0.00  0.00    -0.273 OA
ATOM     10  N   UNL     1      -2.731   4.114  25.370  0.00  0.00    -0.160 NA
BRANCH  10  11
ATOM     11  C   UNL     1      -2.073   4.592  25.230  0.00  0.00    +0.154 A 
ATOM     12  C   UNL     1      -1.326   4.251  25.147  0.00  0.00    +0.036 A 
ATOM     13  C   UNL     1      -0.669   4.729  25.007  0.00  0.00    +0.005 A 
ATOM     14  C   UNL     1      -0.759   5.547  24.951  0.00  0.00    +0.021 A 
ATOM     15  C   UNL     1      -1.505   5.887  25.034  0.00  0.00    +0.100 A 
ATOM     16  N   UNL     1      -2.163   5.409  25.174  0.00  0.00    -0.227 NA
ENDBRANCH  10  11
ENDBRANCH   7   8
ENDBRANCH   6   7
BRANCH  20  21
ATOM     21  C   UNL     1      -3.867   0.333  24.147  0.00  0.00    +0.120 C 
BRANCH  21  22
ATOM     22  N   UNL     1      -4.280  -0.215  24.605  0.00  0.00    -0.077 NA
BRANCH  22  23
ATOM     23  S   UNL     1      -4.092  -1.017  24.560  0.00  0.00    +0.077 S 
ATOM     24  O   UNL     1      -4.488  -1.068  23.838  0.00  0.00    -0.152 OA
ATOM     25  O   UNL     1      -3.696  -0.965  25.281  0.00  0.00    -0.152 OA
BRANCH  23  26
ATOM     26  C   UNL     1      -3.904  -1.818  24.514  0.00  0.00    +0.124 A 
ATOM     27  C   UNL     1      -4.178  -2.272  23.882  0.00  0.00    +0.020 A 
ATOM     28  C   UNL     1      -3.990  -3.073  23.836  0.00  0.00    +0.001 A 
ATOM     29  C   UNL     1      -3.527  -3.422  24.424  0.00  0.00    +0.000 A 
ATOM     30  C   UNL     1      -3.253  -2.969  25.056  0.00  0.00    +0.001 A 
ATOM     31  C   UNL     1      -3.441  -2.167  25.102  0.00  0.00    +0.020 A 
ENDBRANCH  23  26
ENDBRANCH  22  23
ENDBRANCH  21  22
ENDBRANCH  20  21
TORSDOF 8
ENDMDL
MODEL 2
REMARK VINA RESULT:     -10.9      1.288      5.715
REMARK  Name = 
REMARK  8 active torsions:
REMARK  status: ('A' for Active; 'I' for Inactive)
REMARK    1  A    between atoms: C_2  and  C_4
REMARK    2  A    between atoms: C_6  and  C_7
REMARK    3  A    between atoms: C_7  and  C_8
REMARK    4  A    between atoms: N_10  and  C_11
REMARK    5  A    between atoms: C_20  and  C_21
REMARK    6  A    between atoms: C_21  and  N_22
REMARK    7  A    between atoms: N_22  and  S_23
REMARK    8  A    between atoms: S_23  and  C_26
REMARK                            x       y       z     vdW  Elec       q    Type
REMARK                         _______ _______ _______ _____ _____    ______ ____
ROOT
ATOM      4  C   UNL     1      -3.176   1.382  23.761  0.00  0.00    +0.006 C 
ATOM      5  C   UNL     1      -3.582   0.665  23.784  0.00  0.00    +0.005 C 
ATOM      6  C   UNL     1      -4.155   0.533  24.363  0.00  0.00    +0.027 C 
ATOM     17  C   UNL     1      -4.322   1.119  24.919  0.00  0.00    -0.048 C 
ATOM     18  C   UNL     1      -4.895   0.987  25.498  0.00  0.00    +0.026 C 
ATOM     19  C   UNL     1      -3.915   1.836  24.896  0.00  0.00    -0.033 C 
ATOM     20  C   UNL     1      -3.343   1.968  24.317  0.00  0.00    +0.041 C 
ENDROOT
BRANCH   4   2
ATOM      1  C   UNL     1      -1.831   1.249  23.298  0.00  0.00    +0.000 C 
ATOM      2  C   UNL     1      -2.604   1.514  23.182  0.00  0.00    +0.000 C 
ATOM      3  C   UNL     1      -2.803   1.911  22.487  0.00  0.00    +0.000 C 
ENDBRANCH   4   2
BRANCH   6   7
ATOM      7  C   UNL     1      -4.562  -0.185  24.386  0.00  0.00    +0.091 C 
BRANCH   7   8
ATOM      8  C   UNL     1      -4.162  -0.890  24.235  0.00  0.00    +0.247 C 
ATOM      9  O   UNL     1      -4.132  -1.193  23.467  0.00  0.00    -0.273 OA
ATOM     10  N   UNL     1      -3.791  -1.295  24.851  0.00  0.00    -0.160 NA
BRANCH  10  11
ATOM     11  C   UNL     1      -3.391  -2.000  24.700  0.00  0.00    +0.154 A 
ATOM     12  C   UNL     1      -3.816  -2.696  24.571  0.00  0.00    +0.036 A 
ATOM     13  C   UNL     1      -3.416  -3.401  24.421  0.00  0.00    +0.005 A 
ATOM     14  C   UNL     1      -2.591  -3.411  24.399  0.00  0.00    +0.021 A 
ATOM     15  C   UNL     1      -2.167  -2.716  24.527  0.00  0.00    +0.100 A 
ATOM     16  N   UNL     1      -2.567  -2.010  24.678  0.00  0.00    -0.227 NA
ENDBRANCH  10  11
ENDBRANCH   7   8
ENDBRANCH   6   7
BRANCH  20  21
ATOM     21  C   UNL     1      -2.937   2.686  24.295  0.00  0.00    +0.120 C 
BRANCH  21  22
ATOM     22  N   UNL     1      -2.896   3.159  24.970  0.00  0.00    -0.077 NA
BRANCH  22  23
ATOM     23  S   UNL     1      -2.391   3.811  24.987  0.00  0.00    +0.077 S 
ATOM     24  O   UNL     1      -1.874   3.396  25.479  0.00  0.00    -0.152 OA
ATOM     25  O   UNL     1      -2.907   4.224  24.496  0.00  0.00    -0.152 OA
BRANCH  23  26
ATOM     26  C   UNL     1      -1.886   4.462  25.005  0.00  0.00    +0.124 A 
ATOM     27  C   UNL     1      -2.192   5.219  25.121  0.00  0.00    +0.020 A 
ATOM     28  C   UNL     1      -1.687   5.871  25.139  0.00  0.00    +0.001 A 
ATOM     29  C   UNL     1      -0.874   5.766  25.040  0.00  0.00    +0.000 A 
ATOM     30  C   UNL     1      -0.568   5.009  24.924  0.00  0.00    +0.001 A 
ATOM     31  C   UNL     1      -1.073   4.357  24.906  0.00  0.00    +0.020 A 
ENDBRANCH  23  26
ENDBRANCH  22  23
ENDBRANCH  21  22
ENDBRANCH  20  21
TORSDOF 8
ENDMDL
MODEL 3
REMARK VINA RESULT:     -10.2      2.267      6.122
REMARK  Name = 
REMARK  8 active torsions:
REMARK  status: ('A' for Active; 'I' for Inactive)
REMARK    1  A    between atoms: C_2  and  C_4
REMARK    2  A    between atoms: C_6  and  C_7
REMARK    3  A    between atoms: C_7  and  C_8
REMARK    4  A    between atoms: N_10  and  C_11
REMARK    5  A    between atoms: C_20  and  C_21
REMARK    6  A    between atoms: C_21  and  N_22
REMARK    7  A    between atoms: N_22  and  S_23
REMARK    8  A    between atoms: S_23  and  C_26
REMARK                            x       y       z     vdW  Elec       q    Type
REMARK                         _______ _______ _______ _____ _____    ______ ____
ROOT
ATOM      4  C   UNL     1      -0.773   0.489  24.384  0.00  0.00    +0.006 C 
ATOM      5  C   UNL     1      -0.902  -0.323  24.453  0.00  0.00    +0.005 C 
ATOM      6  C   UNL     1      -1.089  -0.650  25.187  0.00  0.00    +0.027 C 
ATOM     17  C   UNL     1      -1.146  -0.166  25.852  0.00  0.00    -0.048 C 
ATOM     18  C   UNL     1      -1.333  -0.494  26.586  0.00  0.00    +0.026 C 
ATOM     19  C   UNL     1      -1.017   0.645  25.783  0.00  0.00    -0.033 C 
ATOM     20  C   UNL     1      -0.830   0.973  25.049  0.00  0.00    +0.041 C 
ENDROOT
BRANCH   4   2
ATOM      1  C   UNL     1      -1.187   1.076  23.149  0.00  0.00    +0.000 C 
ATOM      2  C   UNL     1      -0.586   0.816  23.651  0.00  0.00    +0.000 C 
ATOM      3  C   UNL     1       0.203   0.883  23.417  0.00  0.00    +0.000 C 
ENDBRANCH   4   2
BRANCH   6   7
ATOM      7  C   UNL     1      -1.218  -1.463  25.255  0.00  0.00    +0.091 C 
BRANCH   7   8
ATOM      8  C   UNL     1      -1.812  -1.825  24.812  0.00  0.00    +0.247 C 
ATOM      9  O   UNL     1      -1.623  -2.211  24.106  0.00  0.00    -0.273 OA
ATOM     10  N   UNL     1      -2.594  -1.803  25.073  0.00  0.00    -0.160 NA
BRANCH  10  11
ATOM     11  C   UNL     1      -3.188  -2.165  24.629  0.00  0.00    +0.154 A 
ATOM     12  C   UNL     1      -3.734  -1.704  24.217  0.00  0.00    +0.036 A 
ATOM     13  C   UNL     1      -4.328  -2.067  23.774  0.00  0.00    +0.005 A 
ATOM     14  C   UNL     1      -4.374  -2.890  23.742  0.00  0.00    +0.021 A 
ATOM     15  C   UNL     1      -3.828  -3.350  24.154  0.00  0.00    +0.100 A 
ATOM     16  N   UNL     1      -3.234  -2.988  24.597  0.00  0.00    -0.227 NA
ENDBRANCH  10  11
ENDBRANCH   7   8
ENDBRANCH   6   7
BRANCH  20  21
ATOM     21  C   UNL     1      -0.701   1.785  24.981  0.00  0.00    +0.120 C 
BRANCH  21  22
ATOM     22  N   UNL     1      -0.890   2.288  25.608  0.00  0.00    -0.077 NA
BRANCH  22  23
ATOM     23  S   UNL     1      -1.025   3.089  25.468  0.00  0.00    +0.077 S 
ATOM     24  O   UNL     1      -0.213   3.232  25.505  0.00  0.00    -0.152 OA
ATOM     25  O   UNL     1      -1.836   2.945  25.431  0.00  0.00    -0.152 OA
BRANCH  23  26
ATOM     26  C   UNL     1      -1.160   3.890  25.328  0.00  0.00    +0.124 A 
ATOM     27  C   UNL     1      -0.589   4.345  24.945  0.00  0.00    +0.020 A 
ATOM     28  C   UNL     1      -0.724   5.146  24.805  0.00  0.00    +0.001 A 
ATOM     29  C   UNL     1      -1.432   5.494  25.049  0.00  0.00    +0.000 A 
ATOM     30  C   UNL     1      -2.004   5.040  25.432  0.00  0.00    +0.001 A 
ATOM     31  C   UNL     1      -1.869   4.238  25.572  0.00  0.00    +0.020 A 
ENDBRANCH  23  26
ENDBRANCH  22  23
ENDBRANCH  21  22
ENDBRANCH  20  21
TORSDOF 8
ENDMDL
MODEL 4
REMARK VINA RESULT:      -9.7      1.270      2.028
REMARK  Name = 
REMARK  8 active torsions:
REMARK  status: ('A' for Active; 'I' for Inactive)
REMARK    1  A    between atoms: C_2  and  C_4
REMARK    2  A    between atoms: C_6  and  C_7
REMARK    3  A    between atoms: C_7  and  C_8
REMARK    4  A    between atoms: N_10  and  C_11
REMARK    5  A    between atoms: C_20  and  C_21
REMARK    6  A    between atoms: C_21  and  N_22
REMARK    7  A    between atoms: N_22  and  S_23
REMARK    8  A    between atoms: S_23  and  C_26
REMARK                            x       y       z     vdW  Elec       q    Type
REMARK                         _______ _______ _______ _____ _____    ______ ____
ROOT
ATOM      4  C   UNL     1      -2.085   1.382  24.088  0.00  0.00    +0.006 C 
ATOM      5  C   UNL     1      -1.545   1.989  24.227  0.00  0.00    +0.005 C 
ATOM      6  C   UNL     1      -0.982   1.911  24.825  0.00  0.00    +0.027 C 
ATOM     17  C   UNL     1      -0.958   1.226  25.283  0.00  0.00    -0.048 C 
ATOM     18  C   UNL     1      -0.395   1.149  25.881  0.00  0.00    +0.026 C 
ATOM     19  C   UNL     1      -1.499   0.619  25.144  0.00  0.00    -0.033 C 
ATOM     20  C   UNL     1      -2.062   0.697  24.546  0.00  0.00    +0.041 C 
ENDROOT
BRANCH   4   2
ATOM      1  C   UNL     1      -3.399   1.752  23.666  0.00  0.00    +0.000 C 
ATOM      2  C   UNL     1      -2.648   1.459  23.490  0.00  0.00    +0.000 C 
ATOM      3  C   UNL     1      -2.462   1.244  22.716  0.00  0.00    +0.000 C 
ENDBRANCH   4   2
BRANCH   6   7
ATOM      7  C   UNL     1      -0.441   2.520  24.964  0.00  0.00    +0.091 C 
BRANCH   7   8
ATOM      8  C   UNL     1      -0.648   3.301  24.799  0.00  0.00    +0.247 C 
ATOM      9  O   UNL     1      -0.544   3.604  24.038  0.00  0.00    -0.273 OA
ATOM     10  N   UNL     1      -0.958   3.781  25.394  0.00  0.00    -0.160 NA
BRANCH  10  11
ATOM     11  C   UNL     1      -1.164   4.562  25.229  0.00  0.00    +0.154 A 
ATOM     12  C   UNL     1      -1.936   4.822  25.364  0.00  0.00    +0.036 A 
ATOM     13  C   UNL     1      -2.142   5.603  25.199  0.00  0.00    +0.005 A 
ATOM     14  C   UNL     1      -1.577   6.124  24.900  0.00  0.00    +0.021 A 
ATOM     15  C   UNL     1      -0.806   5.865  24.765  0.00  0.00    +0.100 A 
ATOM     16  N   UNL     1      -0.600   5.083  24.930  0.00  0.00    -0.227 NA
ENDBRANCH  10  11
ENDBRANCH   7   8
ENDBRANCH   6   7
BRANCH  20  21
ATOM     21  C   UNL     1      -2.602   0.088  24.408  0.00  0.00    +0.120 C 
BRANCH  21  22
ATOM     22  N   UNL     1      -2.626  -0.566  24.909  0.00  0.00    -0.077 NA
BRANCH  22  23
ATOM     23  S   UNL     1      -3.042  -1.242  24.687  0.00  0.00    +0.077 S 
ATOM     24  O   UNL     1      -3.698  -0.976  25.110  0.00  0.00    -0.152 OA
ATOM     25  O   UNL     1      -2.386  -1.507  24.265  0.00  0.00    -0.152 OA
BRANCH  23  26
ATOM     26  C   UNL     1      -3.458  -1.918  24.464  0.00  0.00    +0.124 A 
ATOM     27  C   UNL     1      -3.244  -2.654  24.770  0.00  0.00    +0.020 A 
ATOM     28  C   UNL     1      -3.660  -3.330  24.547  0.00  0.00    +0.001 A 
ATOM     29  C   UNL     1      -4.292  -3.271  24.018  0.00  0.00    +0.000 A 
ATOM     30  C   UNL     1      -4.506  -2.536  23.713  0.00  0.00    +0.001 A 
ATOM     31  C   UNL     1      -4.089  -1.859  23.935  0.00  0.00    +0.020 A 
ENDBRANCH  23  26
ENDBRANCH  22  23
ENDBRANCH  21  22
ENDBRANCH  20  21
TORSDOF 8
ENDMDL
MODEL 5
REMARK VINA RESULT:      -8.9      3.190      5.048
REMARK  Name = 
REMARK  8 active torsions:
REMARK  status: ('A' for Active; 'I' for Inactive)
REMARK    1  A    between atoms: C_2  and  C_4
REMARK    2  A    between atoms: C_6  and  C_7
REMARK    3  A    between atoms: C_7  and  C_8
REMARK    4  A    between atoms: N_10  and  C_11
REMARK    5  A    between atoms: C_20  and  C_21
REMARK    6  A    between atoms: C_21  and  N_22
REMARK    7  A    between atoms: N_22  and  S_23
REMARK    8  A    between atoms: S_23  and  C_26
REMARK                            x       y       z     vdW  Elec       q    Type
REMARK                         _______ _______ _______ _____ _____    ______ ____
ROOT
ATOM      4  C   UNL     1      -0.922   1.467  24.534  0.00  0.00    +0.006 C 
ATOM      5  C   UNL     1      -0.296   0.966  24.344  0.00  0.00    +0.005 C 
ATOM      6  C   UNL     1      -0.445   0.185  24.122  0.00  0.00    +0.027 C 
ATOM     17  C   UNL     1      -1.220  -0.094  24.089  0.00  0.00    -0.048 C 
ATOM     18  C   UNL     1      -1.369  -0.874  23.867  0.00  0.00    +0.026 C 
ATOM     19  C   UNL     1      -1.846   0.408  24.280  0.00  0.00    -0.033 C 
ATOM     20  C   UNL     1      -1.698   1.188  24.502  0.00  0.00    +0.041 C 
ENDROOT
BRANCH   4   2
ATOM      1  C   UNL     1      -0.757   2.843  24.187  0.00  0.00    +0.000 C 
ATOM      2  C   UNL     1      -0.774   2.247  24.757  0.00  0.00    +0.000 C 
ATOM      3  C   UNL     1      -0.642   2.432  25.550  0.00  0.00    +0.000 C 
ENDBRANCH   4   2
BRANCH   6   7
ATOM      7  C   UNL     1       0.183  -0.316  23.931  0.00  0.00    +0.091 C 
BRANCH   7   8
ATOM      8  C   UNL     1       0.766  -0.066  23.405  0.00  0.00    +0.247 C 
ATOM      9  O   UNL     1       0.554   0.274  22.683  0.00  0.00    -0.273 OA
ATOM     10  N   UNL     1       1.563  -0.154  23.599  0.00  0.00    -0.160 NA
BRANCH  10  11
ATOM     11  C   UNL     1       2.147   0.097  23.073  0.00  0.00    +0.154 A 
ATOM     12  C   UNL     1       2.642   0.725  23.276  0.00  0.00    +0.036 A 
ATOM     13  C   UNL     1       3.226   0.976  22.750  0.00  0.00    +0.005 A 
ATOM     14  C   UNL     1       3.314   0.598  22.022  0.00  0.00    +0.021 A 
ATOM     15  C   UNL     1       2.819  -0.029  21.819  0.00  0.00    +0.100 A 
ATOM     16  N   UNL     1       2.235  -0.280  22.346  0.00  0.00    -0.227 NA
ENDBRANCH  10  11
ENDBRANCH   7   8
ENDBRANCH   6   7
BRANCH  20  21
ATOM     21  C   UNL     1      -2.325   1.689  24.693  0.00  0.00    +0.120 C 
BRANCH  21  22
ATOM     22  N   UNL     1      -3.100   1.467  24.516  0.00  0.00    -0.077 NA
BRANCH  22  23
ATOM     23  S   UNL     1      -3.732   1.925  24.782  0.00  0.00    +0.077 S 
ATOM     24  O   UNL     1      -3.711   1.532  25.507  0.00  0.00    -0.152 OA
ATOM     25  O   UNL     1      -3.751   2.318  24.057  0.00  0.00    -0.152 OA
BRANCH  23  26
ATOM     26  C   UNL     1      -4.363   2.384  25.047  0.00  0.00    +0.124 A 
ATOM     27  C   UNL     1      -4.284   3.203  25.103  0.00  0.00    +0.020 A 
ATOM     28  C   UNL     1      -4.916   3.662  25.369  0.00  0.00    +0.001 A 
ATOM     29  C   UNL     1      -5.628   3.301  25.579  0.00  0.00    +0.000 A 
ATOM     30  C   UNL     1      -5.708   2.482  25.524  0.00  0.00    +0.001 A 
ATOM     31  C   UNL     1      -5.076   2.023  25.258  0.00  0.00    +0.020 A 
ENDBRANCH  23  26
ENDBRANCH  22  23
ENDBRANCH  21  22
ENDBRANCH  20  21
TORSDOF 8
ENDMDL
