MODEL 1
REMARK VINA RESULT:     -10.8      0.000      0.000
REMARK  Name = 
REMARK  5 active torsions:
REMARK  status: ('A' for Active; 'I' for Inactive)
REMARK    1  A    between atoms: C_2  and  N_4
REMARK    2  A    between atoms: N_7  and  C_8
REMARK    3  A    between atoms: C_8  and  C_9
REMARK    4  A    between atoms: C_12  and  N_13
REMARK    5  A    between atoms: N_13  and  C_14
REMARK                            x       y       z     vdW  Elec       q    Type
REMARK                         _______ _______ _______ _____ _____    ______ ____
ROOT
ATOM      9  C   UNL     1      -3.253   1.598  24.494  0.00  0.00    +0.169 C 
ATOM     10  O   UNL     1      -2.692   1.051  24.234  0.00  0.00    -0.350 OA
ATOM     11  C   UNL     1      -3.041   0.304  24.245  0.00  0.00    +0.162 C 
ATOM     12  C   UNL     1      -3.817   0.389  24.513  0.00  0.00    +0.135 C 
ATOM     22  C   UNL     1      -3.948   1.189  24.666  0.00  0.00    +0.199 C 
ATOM     23  O   UNL     1      -4.651   1.520  24.944  0.00  0.00    -0.219 OA
ENDROOT
BRANCH   9   8
ATOM      8  C   UNL     1      -3.138   2.411  24.569  0.00  0.00    +0.149 C 
BRANCH   8   7
ATOM      4  N   UNL     1      -1.560   3.799  25.157  0.00  0.00    -0.189 NA
ATOM      5  C   UNL     1      -2.264   3.509  24.843  0.00  0.00    +0.339 C 
ATOM      6  O   UNL     1      -2.802   4.025  24.487  0.00  0.00    -0.249 OA
ATOM      7  N   UNL     1      -2.434   2.702  24.883  0.00  0.00    -0.185 NA
BRANCH   4   2
ATOM      1  C   UNL     1      -1.892   5.151  25.477  0.00  0.00    +0.023 C 
ATOM      2  C   UNL     1      -1.391   4.606  25.117  0.00  0.00    +0.097 C 
ATOM      3  C   UNL     1      -0.718   4.866  24.714  0.00  0.00    +0.023 C 
ENDBRANCH   4   2
ENDBRANCH   8   7
ENDBRANCH   9   8
BRANCH  12  13
ATOM     13  N   UNL     1      -4.365  -0.220  24.609  0.00  0.00    -0.216 NA
BRANCH  13  14
ATOM     14  C   UNL     1      -4.112  -1.006  24.624  0.00  0.00    +0.073 C 
ATOM     15  C   UNL     1      -4.211  -1.483  23.959  0.00  0.00    +0.023 C 
ATOM     16  C   UNL     1      -3.957  -2.269  23.973  0.00  0.00    +0.068 C 
ATOM     17  C   UNL     1      -3.605  -2.575  24.652  0.00  0.00    +0.264 C 
ATOM     18  F   UNL     1      -3.578  -3.241  24.165  0.00  0.00    -0.204 F 
ATOM     19  F   UNL     1      -3.243  -3.113  25.164  0.00  0.00    -0.204 F 
ATOM     20  C   UNL     1      -3.506  -2.097  25.318  0.00  0.00    +0.068 C 
ATOM     21  C   UNL     1      -3.759  -1.313  25.303  0.00  0.00    +0.023 C 
ENDBRANCH  13  14
ENDBRANCH  12  13
TORSDOF 5
ENDMDL
MODEL 2
REMARK VINA RESULT:     -10.2      2.934      5.821
REMARK  Name = 
REMARK  5 active torsions:
REMARK  status: ('A' for Active; 'I' for Inactive)
REMARK    1  A    between atoms: C_2  and  N_4
REMARK    2  A    between atoms: N_7  and  C_8
REMARK    3  A    between atoms: C_8  and  C_9
REMARK    4  A    between atoms: C_12  and  N_13
REMARK    5  A    between atoms: N_13  and  C_14
REMARK                            x       y       z     vdW  Elec       q    Type
REMARK                         _______ _______ _______ _____ _____    ______ ____
ROOT
ATOM      9  C   UNL     1      -2.078   0.947  24.893  0.00  0.00    +0.169 C 
ATOM     10  O   UNL     1      -2.582   1.543  24.624  0.00  0.00    -0.350 OA
ATOM     11  C   UNL     1      -2.305   2.262  24.917  0.00  0.00    +0.162 C 
ATOM     12  C   UNL     1      -1.630   2.111  25.367  0.00  0.00    +0.135 C 
ATOM     22  C   UNL     1      -1.490   1.298  25.352  0.00  0.00    +0.199 C 
ATOM     23  O   UNL     1      -0.870   0.907  25.730  0.00  0.00    -0.219 OA
ENDROOT
BRANCH   9   8
ATOM      8  C   UNL     1      -2.150   0.141  24.731  0.00  0.00    +0.149 C 
BRANCH   8   7
ATOM      4  N   UNL     1      -3.698  -1.395  24.663  0.00  0.00    -0.189 NA
ATOM      5  C   UNL     1      -2.966  -1.023  24.589  0.00  0.00    +0.339 C 
ATOM      6  O   UNL     1      -2.317  -1.443  24.298  0.00  0.00    -0.249 OA
ATOM      7  N   UNL     1      -2.882  -0.231  24.805  0.00  0.00    -0.185 NA
BRANCH   4   2
ATOM      1  C   UNL     1      -3.482  -2.782  24.932  0.00  0.00    +0.023 C 
ATOM      2  C   UNL     1      -3.783  -2.187  24.447  0.00  0.00    +0.097 C 
ATOM      3  C   UNL     1      -4.169  -2.384  23.744  0.00  0.00    +0.023 C 
ENDBRANCH   4   2
ENDBRANCH   8   7
ENDBRANCH   9   8
BRANCH  12  13
ATOM     13  N   UNL     1      -1.176   2.675  25.763  0.00  0.00    -0.216 NA
BRANCH  13  14
ATOM     14  C   UNL     1      -1.192   3.464  25.519  0.00  0.00    +0.073 C 
ATOM     15  C   UNL     1      -0.598   3.755  25.027  0.00  0.00    +0.023 C 
ATOM     16  C   UNL     1      -0.614   4.544  24.783  0.00  0.00    +0.068 C 
ATOM     17  C   UNL     1      -1.225   5.039  25.032  0.00  0.00    +0.264 C 
ATOM     18  F   UNL     1      -0.791   5.568  24.571  0.00  0.00    -0.204 F 
ATOM     19  F   UNL     1      -1.685   5.718  25.121  0.00  0.00    -0.204 F 
ATOM     20  C   UNL     1      -1.819   4.747  25.525  0.00  0.00    +0.068 C 
ATOM     21  C   UNL     1      -1.802   3.959  25.768  0.00  0.00    +0.023 C 
ENDBRANCH  13  14
ENDBRANCH  12  13
TORSDOF 5
ENDMDL
