MODEL 1
REMARK VINA RESULT:      -9.3      0.000      0.000
REMARK  Name = 
REMARK  7 active torsions:
REMARK  status: ('A' for Active; 'I' for Inactive)
REMARK    1  A    between atoms: N_6  and  C_7
REMARK    2  A    between atoms: C_7  and  C_8
REMARK    3  A    between atoms: C_20  and  C_21
REMARK    4  A    between atoms: C_21  and  C_22
REMARK    5  A    between atoms: C_22  and  C_23
REMARK    6  A    between atoms: N_25  and  C_26
REMARK    7  A    between atoms: C_26  and  C_27
REMARK                            x       y       z     vdW  Elec       q    Type
REMARK                         _______ _______ _______ _____ _____    ______ ____
ROOT
ATOM      1  C   UNL     1      -1.244  -0.225  24.677  0.00  0.00    +0.090 C 
ATOM      2  N   UNL     1      -1.469   0.450  24.260  0.00  0.00    -0.271 NA
ATOM      3  C   UNL     1      -2.220   0.745  24.432  0.00  0.00    +0.083 C 
ATOM      4  C   UNL     1      -2.727   0.401  24.984  0.00  0.00    +0.035 C 
ATOM      5  C   UNL     1      -3.421   0.846  25.005  0.00  0.00    +0.074 C 
ATOM      6  N   UNL     1      -3.342   1.466  24.466  0.00  0.00    -0.262 NA
ATOM     15  C   UNL     1      -2.600   1.403  24.112  0.00  0.00    +0.151 C 
ATOM     16  C   UNL     1      -2.323   1.929  23.540  0.00  0.00    +0.257 C 
ATOM     17  O   UNL     1      -2.840   2.539  23.334  0.00  0.00    -0.272 OA
ATOM     18  N   UNL     1      -1.598   1.927  23.147  0.00  0.00    -0.203 NA
ATOM     19  C   UNL     1      -0.970   1.398  23.229  0.00  0.00    +0.131 C 
ATOM     20  C   UNL     1      -0.912   0.741  23.724  0.00  0.00    +0.080 C 
ENDROOT
BRANCH   6   7
ATOM      7  C   UNL     1      -3.907   2.047  24.308  0.00  0.00    +0.100 C 
BRANCH   7   8
ATOM      8  C   UNL     1      -4.556   2.136  24.810  0.00  0.00    -0.006 A 
ATOM      9  C   UNL     1      -5.216   1.648  24.723  0.00  0.00    -0.001 A 
ATOM     10  C   UNL     1      -5.864   1.739  25.224  0.00  0.00    +0.029 A 
ATOM     11  C   UNL     1      -5.853   2.317  25.813  0.00  0.00    +0.140 A 
ATOM     12  F   UNL     1      -6.502   2.407  26.315  0.00  0.00    -0.204 F 
ATOM     13  C   UNL     1      -5.194   2.805  25.900  0.00  0.00    +0.029 A 
ATOM     14  C   UNL     1      -4.545   2.714  25.398  0.00  0.00    -0.001 A 
ENDBRANCH   7   8
ENDBRANCH   6   7
BRANCH  20  21
ATOM     21  C   UNL     1      -0.205   0.318  23.678  0.00  0.00    +0.027 C 
BRANCH  21  22
ATOM     22  C   UNL     1       0.464   0.667  23.346  0.00  0.00    +0.088 C 
BRANCH  22  23
ATOM     23  C   UNL     1       1.067   0.194  23.040  0.00  0.00    +0.242 C 
ATOM     24  O   UNL     1       0.888  -0.538  22.705  0.00  0.00    -0.273 OA
ATOM     25  N   UNL     1       1.849   0.454  23.069  0.00  0.00    -0.200 NA
BRANCH  25  26
ATOM     26  C   UNL     1       2.453  -0.019  22.763  0.00  0.00    +0.143 C 
BRANCH  26  27
ATOM     27  C   UNL     1       3.242   0.179  22.901  0.00  0.00    +0.019 A 
ATOM     28  C   UNL     1       3.759  -0.382  23.213  0.00  0.00    +0.001 A 
ATOM     29  C   UNL     1       4.548  -0.185  23.351  0.00  0.00    +0.020 A 
ATOM     30  C   UNL     1       4.820   0.574  23.176  0.00  0.00    +0.099 A 
ATOM     31  N   UNL     1       4.302   1.136  22.863  0.00  0.00    -0.243 NA
ATOM     32  C   UNL     1       3.513   0.938  22.726  0.00  0.00    +0.096 A 
ENDBRANCH  26  27
ENDBRANCH  25  26
ENDBRANCH  22  23
ENDBRANCH  21  22
ENDBRANCH  20  21
TORSDOF 7
ENDMDL
MODEL 2
REMARK VINA RESULT:      -7.4     17.664     19.029
REMARK  Name = 
REMARK  7 active torsions:
REMARK  status: ('A' for Active; 'I' for Inactive)
REMARK    1  A    between atoms: N_6  and  C_7
REMARK    2  A    between atoms: C_7  and  C_8
REMARK    3  A    between atoms: C_20  and  C_21
REMARK    4  A    between atoms: C_21  and  C_22
REMARK    5  A    between atoms: C_22  and  C_23
REMARK    6  A    between atoms: N_25  and  C_26
REMARK    7  A    between atoms: C_26  and  C_27
REMARK                            x       y       z     vdW  Elec       q    Type
REMARK                         _______ _______ _______ _____ _____    ______ ____
ROOT
ATOM      1  C   UNL     1      -6.944  -8.603  10.752  0.00  0.00    +0.090 C 
ATOM      2  N   UNL     1      -6.457  -8.821  10.123  0.00  0.00    -0.271 NA
ATOM      3  C   UNL     1      -5.706  -9.094  10.330  0.00  0.00    +0.083 C 
ATOM      4  C   UNL     1      -5.441  -9.152  11.109  0.00  0.00    +0.035 C 
ATOM      5  C   UNL     1      -4.670  -9.443  11.096  0.00  0.00    +0.074 C 
ATOM      6  N   UNL     1      -4.457  -9.566  10.308  0.00  0.00    -0.262 NA
ATOM     15  C   UNL     1      -5.097  -9.350   9.835  0.00  0.00    +0.151 C 
ATOM     16  C   UNL     1      -5.090  -9.397   9.012  0.00  0.00    +0.257 C 
ATOM     17  O   UNL     1      -4.391  -9.679   8.675  0.00  0.00    -0.272 OA
ATOM     18  N   UNL     1      -5.688  -9.200   8.479  0.00  0.00    -0.203 NA
ATOM     19  C   UNL     1      -6.443  -8.906   8.640  0.00  0.00    +0.131 C 
ATOM     20  C   UNL     1      -6.785  -8.738   9.371  0.00  0.00    +0.080 C 
ENDROOT
BRANCH   6   7
ATOM      7  C   UNL     1      -3.732  -9.854  10.041  0.00  0.00    +0.100 C 
BRANCH   7   8
ATOM      8  C   UNL     1      -3.111  -9.964  10.573  0.00  0.00    -0.006 A 
ATOM      9  C   UNL     1      -2.542  -9.375  10.670  0.00  0.00    -0.001 A 
ATOM     10  C   UNL     1      -1.921  -9.485  11.203  0.00  0.00    +0.029 A 
ATOM     11  C   UNL     1      -1.871 -10.184  11.638  0.00  0.00    +0.140 A 
ATOM     12  F   UNL     1      -1.250 -10.294  12.171  0.00  0.00    -0.204 F 
ATOM     13  C   UNL     1      -2.440 -10.773  11.541  0.00  0.00    +0.029 A 
ATOM     14  C   UNL     1      -3.060 -10.663  11.009  0.00  0.00    -0.001 A 
ENDBRANCH   7   8
ENDBRANCH   6   7
BRANCH  20  21
ATOM     21  C   UNL     1      -7.557  -8.447   9.348  0.00  0.00    +0.027 C 
BRANCH  21  22
ATOM     22  C   UNL     1      -7.846  -8.098   8.659  0.00  0.00    +0.088 C 
BRANCH  22  23
ATOM     23  C   UNL     1      -8.629  -7.840   8.624  0.00  0.00    +0.242 C 
ATOM     24  O   UNL     1      -9.242  -8.389   8.561  0.00  0.00    -0.273 OA
ATOM     25  N   UNL     1      -8.800  -7.034   8.653  0.00  0.00    -0.200 NA
BRANCH  25  26
ATOM     26  C   UNL     1      -9.583  -6.776   8.619  0.00  0.00    +0.143 C 
BRANCH  26  27
ATOM     27  C   UNL     1      -9.759  -5.976   8.714  0.00  0.00    +0.019 A 
ATOM     28  C   UNL     1     -10.458  -5.749   9.086  0.00  0.00    +0.001 A 
ATOM     29  C   UNL     1     -10.635  -4.949   9.182  0.00  0.00    +0.020 A 
ATOM     30  C   UNL     1     -10.110  -4.375   8.905  0.00  0.00    +0.099 A 
ATOM     31  N   UNL     1      -9.409  -4.602   8.533  0.00  0.00    -0.243 NA
ATOM     32  C   UNL     1      -9.234  -5.403   8.437  0.00  0.00    +0.096 A 
ENDBRANCH  26  27
ENDBRANCH  25  26
ENDBRANCH  22  23
ENDBRANCH  21  22
ENDBRANCH  20  21
TORSDOF 7
ENDMDL
MODEL 3
REMARK VINA RESULT:      -6.7     15.390     16.630
REMARK  Name = 
REMARK  7 active torsions:
REMARK  status: ('A' for Active; 'I' for Inactive)
REMARK    1  A    between atoms: N_6  and  C_7
REMARK    2  A    between atoms: C_7  and  C_8
REMARK    3  A    between atoms: C_20  and  C_21
REMARK    4  A    between atoms: C_21  and  C_22
REMARK    5  A    between atoms: C_22  and  C_23
REMARK    6  A    between atoms: N_25  and  C_26
REMARK    7  A    between atoms: C_26  and  C_27
REMARK                            x       y       z     vdW  Elec       q    Type
REMARK                         _______ _______ _______ _____ _____    ______ ____
ROOT
ATOM      1  C   UNL     1      -7.173  -9.671  13.769  0.00  0.00    +0.090 C 
ATOM      2  N   UNL     1      -6.375  -9.880  13.748  0.00  0.00    -0.271 NA
ATOM      3  C   UNL     1      -5.997  -9.777  13.022  0.00  0.00    +0.083 C 
ATOM      4  C   UNL     1      -6.377  -9.487  12.349  0.00  0.00    +0.035 C 
ATOM      5  C   UNL     1      -5.826  -9.462  11.736  0.00  0.00    +0.074 C 
ATOM      6  N   UNL     1      -5.105  -9.738  12.029  0.00  0.00    -0.262 NA
ATOM     15  C   UNL     1      -5.211  -9.933  12.824  0.00  0.00    +0.151 C 
ATOM     16  C   UNL     1      -4.610 -10.229  13.303  0.00  0.00    +0.257 C 
ATOM     17  O   UNL     1      -3.875 -10.324  12.939  0.00  0.00    -0.272 OA
ATOM     18  N   UNL     1      -4.644 -10.443  14.099  0.00  0.00    -0.203 NA
ATOM     19  C   UNL     1      -5.290 -10.414  14.612  0.00  0.00    +0.131 C 
ATOM     20  C   UNL     1      -6.060 -10.163  14.456  0.00  0.00    +0.080 C 
ENDROOT
BRANCH   6   7
ATOM      7  C   UNL     1      -4.402  -9.807  11.603  0.00  0.00    +0.100 C 
BRANCH   7   8
ATOM      8  C   UNL     1      -4.397  -9.657  10.791  0.00  0.00    -0.006 A 
ATOM      9  C   UNL     1      -4.414  -8.880  10.515  0.00  0.00    -0.001 A 
ATOM     10  C   UNL     1      -4.409  -8.732   9.703  0.00  0.00    +0.029 A 
ATOM     11  C   UNL     1      -4.385  -9.360   9.169  0.00  0.00    +0.140 A 
ATOM     12  F   UNL     1      -4.379  -9.210   8.357  0.00  0.00    -0.204 F 
ATOM     13  C   UNL     1      -4.368 -10.137   9.445  0.00  0.00    +0.029 A 
ATOM     14  C   UNL     1      -4.373 -10.285  10.256  0.00  0.00    -0.001 A 
ENDBRANCH   7   8
ENDBRANCH   6   7
BRANCH  20  21
ATOM     21  C   UNL     1      -6.585 -10.200  15.091  0.00  0.00    +0.027 C 
BRANCH  21  22
ATOM     22  C   UNL     1      -6.330 -10.003  15.850  0.00  0.00    +0.088 C 
BRANCH  22  23
ATOM     23  C   UNL     1      -6.797 -10.189  16.504  0.00  0.00    +0.242 C 
ATOM     24  O   UNL     1      -7.613 -10.276  16.417  0.00  0.00    -0.273 OA
ATOM     25  N   UNL     1      -6.450 -10.288  17.245  0.00  0.00    -0.200 NA
BRANCH  25  26
ATOM     26  C   UNL     1      -6.917 -10.474  17.900  0.00  0.00    +0.143 C 
BRANCH  26  27
ATOM     27  C   UNL     1      -6.570 -10.566  18.642  0.00  0.00    +0.019 A 
ATOM     28  C   UNL     1      -5.757 -10.689  18.705  0.00  0.00    +0.001 A 
ATOM     29  C   UNL     1      -5.410 -10.781  19.448  0.00  0.00    +0.020 A 
ATOM     30  C   UNL     1      -5.876 -10.751  20.127  0.00  0.00    +0.099 A 
ATOM     31  N   UNL     1      -6.690 -10.628  20.064  0.00  0.00    -0.243 NA
ATOM     32  C   UNL     1      -7.037 -10.536  19.321  0.00  0.00    +0.096 A 
ENDBRANCH  26  27
ENDBRANCH  25  26
ENDBRANCH  22  23
ENDBRANCH  21  22
ENDBRANCH  20  21
TORSDOF 7
ENDMDL
MODEL 4
REMARK VINA RESULT:      -6.5     15.451     16.925
REMARK  Name = 
REMARK  7 active torsions:
REMARK  status: ('A' for Active; 'I' for Inactive)
REMARK    1  A    between atoms: N_6  and  C_7
REMARK    2  A    between atoms: C_7  and  C_8
REMARK    3  A    between atoms: C_20  and  C_21
REMARK    4  A    between atoms: C_21  and  C_22
REMARK    5  A    between atoms: C_22  and  C_23
REMARK    6  A    between atoms: N_25  and  C_26
REMARK    7  A    between atoms: C_26  and  C_27
REMARK                            x       y       z     vdW  Elec       q    Type
REMARK                         _______ _______ _______ _____ _____    ______ ____
ROOT
ATOM      1  C   UNL     1      -6.862 -10.022  13.824  0.00  0.00    +0.090 C 
ATOM      2  N   UNL     1      -6.046 -10.142  13.836  0.00  0.00    -0.271 NA
ATOM      3  C   UNL     1      -5.668 -10.109  13.103  0.00  0.00    +0.083 C 
ATOM      4  C   UNL     1      -6.064  -9.964  12.394  0.00  0.00    +0.035 C 
ATOM      5  C   UNL     1      -5.507  -9.972  11.785  0.00  0.00    +0.074 C 
ATOM      6  N   UNL     1      -4.767 -10.121  12.118  0.00  0.00    -0.262 NA
ATOM     15  C   UNL     1      -4.866 -10.205  12.932  0.00  0.00    +0.151 C 
ATOM     16  C   UNL     1      -4.245 -10.360  13.452  0.00  0.00    +0.257 C 
ATOM     17  O   UNL     1      -3.498 -10.427  13.108  0.00  0.00    -0.272 OA
ATOM     18  N   UNL     1      -4.271 -10.456  14.271  0.00  0.00    -0.203 NA
ATOM     19  C   UNL     1      -4.926 -10.421  14.772  0.00  0.00    +0.131 C 
ATOM     20  C   UNL     1      -5.715 -10.281  14.579  0.00  0.00    +0.080 C 
ENDROOT
BRANCH   6   7
ATOM      7  C   UNL     1      -4.053 -10.176  11.708  0.00  0.00    +0.100 C 
BRANCH   7   8
ATOM      8  C   UNL     1      -4.021  -9.974  10.908  0.00  0.00    -0.006 A 
ATOM      9  C   UNL     1      -3.892  -9.191  10.685  0.00  0.00    -0.001 A 
ATOM     10  C   UNL     1      -3.860  -8.990   9.885  0.00  0.00    +0.029 A 
ATOM     11  C   UNL     1      -3.956  -9.574   9.310  0.00  0.00    +0.140 A 
ATOM     12  F   UNL     1      -3.924  -9.373   8.510  0.00  0.00    -0.204 F 
ATOM     13  C   UNL     1      -4.085 -10.357   9.533  0.00  0.00    +0.029 A 
ATOM     14  C   UNL     1      -4.117 -10.557  10.333  0.00  0.00    -0.001 A 
ENDBRANCH   7   8
ENDBRANCH   6   7
BRANCH  20  21
ATOM     21  C   UNL     1      -6.245 -10.281  15.212  0.00  0.00    +0.027 C 
BRANCH  21  22
ATOM     22  C   UNL     1      -6.050  -9.893  15.913  0.00  0.00    +0.088 C 
BRANCH  22  23
ATOM     23  C   UNL     1      -6.511 -10.004  16.588  0.00  0.00    +0.242 C 
ATOM     24  O   UNL     1      -6.290 -10.566  17.150  0.00  0.00    -0.273 OA
ATOM     25  N   UNL     1      -7.193  -9.555  16.701  0.00  0.00    -0.200 NA
BRANCH  25  26
ATOM     26  C   UNL     1      -7.654  -9.666  17.376  0.00  0.00    +0.143 C 
BRANCH  26  27
ATOM     27  C   UNL     1      -8.406  -9.330  17.423  0.00  0.00    +0.019 A 
ATOM     28  C   UNL     1      -9.037  -9.771  17.718  0.00  0.00    +0.001 A 
ATOM     29  C   UNL     1      -9.789  -9.435  17.765  0.00  0.00    +0.020 A 
ATOM     30  C   UNL     1      -9.910  -8.658  17.516  0.00  0.00    +0.099 A 
ATOM     31  N   UNL     1      -9.278  -8.216  17.221  0.00  0.00    -0.243 NA
ATOM     32  C   UNL     1      -8.526  -8.553  17.174  0.00  0.00    +0.096 A 
ENDBRANCH  26  27
ENDBRANCH  25  26
ENDBRANCH  22  23
ENDBRANCH  21  22
ENDBRANCH  20  21
TORSDOF 7
ENDMDL
MODEL 5
REMARK VINA RESULT:      -6.3     14.989     16.680
REMARK  Name = 
REMARK  7 active torsions:
REMARK  status: ('A' for Active; 'I' for Inactive)
REMARK    1  A    between atoms: N_6  and  C_7
REMARK    2  A    between atoms: C_7  and  C_8
REMARK    3  A    between atoms: C_20  and  C_21
REMARK    4  A    between atoms: C_21  and  C_22
REMARK    5  A    between atoms: C_22  and  C_23
REMARK    6  A    between atoms: N_25  and  C_26
REMARK    7  A    between atoms: C_26  and  C_27
REMARK                            x       y       z     vdW  Elec       q    Type
REMARK                         _______ _______ _______ _____ _____    ______ ____
ROOT
ATOM      1  C   UNL     1      -4.260 -10.387  15.735  0.00  0.00    +0.090 C 
ATOM      2  N   UNL     1      -4.625 -10.466  15.000  0.00  0.00    -0.271 NA
ATOM      3  C   UNL     1      -4.118 -10.498  14.350  0.00  0.00    +0.083 C 
ATOM      4  C   UNL     1      -3.297 -10.454  14.411  0.00  0.00    +0.035 C 
ATOM      5  C   UNL     1      -2.981 -10.504  13.650  0.00  0.00    +0.074 C 
ATOM      6  N   UNL     1      -3.608 -10.578  13.119  0.00  0.00    -0.262 NA
ATOM     15  C   UNL     1      -4.311 -10.575  13.551  0.00  0.00    +0.151 C 
ATOM     16  C   UNL     1      -5.057 -10.639  13.206  0.00  0.00    +0.257 C 
ATOM     17  O   UNL     1      -5.066 -10.709  12.383  0.00  0.00    -0.272 OA
ATOM     18  N   UNL     1      -5.795 -10.642  13.573  0.00  0.00    -0.203 NA
ATOM     19  C   UNL     1      -5.969 -10.582  14.378  0.00  0.00    +0.131 C 
ATOM     20  C   UNL     1      -5.449 -10.504  15.012  0.00  0.00    +0.080 C 
ENDROOT
BRANCH   6   7
ATOM      7  C   UNL     1      -3.543 -10.645  12.299  0.00  0.00    +0.100 C 
BRANCH   7   8
ATOM      8  C   UNL     1      -2.901 -10.305  11.908  0.00  0.00    -0.006 A 
ATOM      9  C   UNL     1      -2.144 -10.618  12.008  0.00  0.00    -0.001 A 
ATOM     10  C   UNL     1      -1.503 -10.278  11.616  0.00  0.00    +0.029 A 
ATOM     11  C   UNL     1      -1.618  -9.625  11.125  0.00  0.00    +0.140 A 
ATOM     12  F   UNL     1      -0.976  -9.285  10.733  0.00  0.00    -0.204 F 
ATOM     13  C   UNL     1      -2.375  -9.312  11.025  0.00  0.00    +0.029 A 
ATOM     14  C   UNL     1      -3.016  -9.653  11.416  0.00  0.00    -0.001 A 
ENDBRANCH   7   8
ENDBRANCH   6   7
BRANCH  20  21
ATOM     21  C   UNL     1      -5.798 -10.457  15.759  0.00  0.00    +0.027 C 
BRANCH  21  22
ATOM     22  C   UNL     1      -6.613 -10.352  15.828  0.00  0.00    +0.088 C 
BRANCH  22  23
ATOM     23  C   UNL     1      -6.950 -10.212  16.568  0.00  0.00    +0.242 C 
ATOM     24  O   UNL     1      -6.580 -10.494  17.249  0.00  0.00    -0.273 OA
ATOM     25  N   UNL     1      -7.657  -9.792  16.627  0.00  0.00    -0.200 NA
BRANCH  25  26
ATOM     26  C   UNL     1      -7.994  -9.653  17.367  0.00  0.00    +0.143 C 
BRANCH  26  27
ATOM     27  C   UNL     1      -8.737  -9.299  17.422  0.00  0.00    +0.019 A 
ATOM     28  C   UNL     1      -8.848  -8.528  17.152  0.00  0.00    +0.001 A 
ATOM     29  C   UNL     1      -9.591  -8.174  17.207  0.00  0.00    +0.020 A 
ATOM     30  C   UNL     1     -10.223  -8.591  17.533  0.00  0.00    +0.099 A 
ATOM     31  N   UNL     1     -10.112  -9.363  17.804  0.00  0.00    -0.243 NA
ATOM     32  C   UNL     1      -9.369  -9.716  17.748  0.00  0.00    +0.096 A 
ENDBRANCH  26  27
ENDBRANCH  25  26
ENDBRANCH  22  23
ENDBRANCH  21  22
ENDBRANCH  20  21
TORSDOF 7
ENDMDL
MODEL 6
REMARK VINA RESULT:      -6.2     15.358     15.849
REMARK  Name = 
REMARK  7 active torsions:
REMARK  status: ('A' for Active; 'I' for Inactive)
REMARK    1  A    between atoms: N_6  and  C_7
REMARK    2  A    between atoms: C_7  and  C_8
REMARK    3  A    between atoms: C_20  and  C_21
REMARK    4  A    between atoms: C_21  and  C_22
REMARK    5  A    between atoms: C_22  and  C_23
REMARK    6  A    between atoms: N_25  and  C_26
REMARK    7  A    between atoms: C_26  and  C_27
REMARK                            x       y       z     vdW  Elec       q    Type
REMARK                         _______ _______ _______ _____ _____    ______ ____
ROOT
ATOM      1  C   UNL     1      -5.531 -10.014  15.552  0.00  0.00    +0.090 C 
ATOM      2  N   UNL     1      -6.257 -10.035  15.161  0.00  0.00    -0.271 NA
ATOM      3  C   UNL     1      -6.924  -9.944  15.638  0.00  0.00    +0.083 C 
ATOM      4  C   UNL     1      -6.887  -9.838  16.455  0.00  0.00    +0.035 C 
ATOM      5  C   UNL     1      -7.659  -9.768  16.738  0.00  0.00    +0.074 C 
ATOM      6  N   UNL     1      -8.173  -9.831  16.095  0.00  0.00    -0.262 NA
ATOM     15  C   UNL     1      -7.718  -9.939  15.415  0.00  0.00    +0.151 C 
ATOM     16  C   UNL     1      -8.042 -10.024  14.662  0.00  0.00    +0.257 C 
ATOM     17  O   UNL     1      -8.865  -9.995  14.620  0.00  0.00    -0.272 OA
ATOM     18  N   UNL     1      -7.651 -10.135  13.944  0.00  0.00    -0.203 NA
ATOM     19  C   UNL     1      -6.840 -10.188  13.803  0.00  0.00    +0.131 C 
ATOM     20  C   UNL     1      -6.220 -10.144  14.344  0.00  0.00    +0.080 C 
ENDROOT
BRANCH   6   7
ATOM      7  C   UNL     1      -8.996  -9.791  16.127  0.00  0.00    +0.100 C 
BRANCH   7   8
ATOM      8  C   UNL     1      -9.377  -9.721  16.856  0.00  0.00    -0.006 A 
ATOM      9  C   UNL     1      -9.559 -10.395  17.294  0.00  0.00    -0.001 A 
ATOM     10  C   UNL     1      -9.940 -10.323  18.023  0.00  0.00    +0.029 A 
ATOM     11  C   UNL     1     -10.138  -9.576  18.312  0.00  0.00    +0.140 A 
ATOM     12  F   UNL     1     -10.519  -9.504  19.041  0.00  0.00    -0.204 F 
ATOM     13  C   UNL     1      -9.957  -8.902  17.873  0.00  0.00    +0.029 A 
ATOM     14  C   UNL     1      -9.576  -8.974  17.145  0.00  0.00    -0.001 A 
ENDBRANCH   7   8
ENDBRANCH   6   7
BRANCH  20  21
ATOM     21  C   UNL     1      -5.461 -10.217  14.027  0.00  0.00    +0.027 C 
BRANCH  21  22
ATOM     22  C   UNL     1      -5.359 -10.514  13.264  0.00  0.00    +0.088 C 
BRANCH  22  23
ATOM     23  C   UNL     1      -4.649 -10.386  12.863  0.00  0.00    +0.242 C 
ATOM     24  O   UNL     1      -3.931 -10.452  13.265  0.00  0.00    -0.273 OA
ATOM     25  N   UNL     1      -4.657 -10.193  12.062  0.00  0.00    -0.200 NA
BRANCH  25  26
ATOM     26  C   UNL     1      -3.947 -10.065  11.661  0.00  0.00    +0.143 C 
BRANCH  26  27
ATOM     27  C   UNL     1      -3.955  -9.880  10.857  0.00  0.00    +0.019 A 
ATOM     28  C   UNL     1      -3.955  -9.092  10.615  0.00  0.00    +0.001 A 
ATOM     29  C   UNL     1      -3.963  -8.906   9.811  0.00  0.00    +0.020 A 
ATOM     30  C   UNL     1      -3.969  -9.510   9.249  0.00  0.00    +0.099 A 
ATOM     31  N   UNL     1      -3.969 -10.300   9.491  0.00  0.00    -0.243 NA
ATOM     32  C   UNL     1      -3.961 -10.484  10.295  0.00  0.00    +0.096 A 
ENDBRANCH  26  27
ENDBRANCH  25  26
ENDBRANCH  22  23
ENDBRANCH  21  22
ENDBRANCH  20  21
TORSDOF 7
ENDMDL
MODEL 7
REMARK VINA RESULT:      -5.9     15.832     17.398
REMARK  Name = 
REMARK  7 active torsions:
REMARK  status: ('A' for Active; 'I' for Inactive)
REMARK    1  A    between atoms: N_6  and  C_7
REMARK    2  A    between atoms: C_7  and  C_8
REMARK    3  A    between atoms: C_20  and  C_21
REMARK    4  A    between atoms: C_21  and  C_22
REMARK    5  A    between atoms: C_22  and  C_23
REMARK    6  A    between atoms: N_25  and  C_26
REMARK    7  A    between atoms: C_26  and  C_27
REMARK                            x       y       z     vdW  Elec       q    Type
REMARK                         _______ _______ _______ _____ _____    ______ ____
ROOT
ATOM      1  C   UNL     1      -6.098 -10.030  14.564  0.00  0.00    +0.090 C 
ATOM      2  N   UNL     1      -6.356 -10.107  13.784  0.00  0.00    -0.271 NA
ATOM      3  C   UNL     1      -5.763 -10.132  13.211  0.00  0.00    +0.083 C 
ATOM      4  C   UNL     1      -4.958 -10.084  13.388  0.00  0.00    +0.035 C 
ATOM      5  C   UNL     1      -4.539 -10.128  12.679  0.00  0.00    +0.074 C 
ATOM      6  N   UNL     1      -5.084 -10.202  12.064  0.00  0.00    -0.262 NA
ATOM     15  C   UNL     1      -5.840 -10.205  12.393  0.00  0.00    +0.151 C 
ATOM     16  C   UNL     1      -6.530 -10.270  11.946  0.00  0.00    +0.257 C 
ATOM     17  O   UNL     1      -6.423 -10.335  11.130  0.00  0.00    -0.272 OA
ATOM     18  N   UNL     1      -7.313 -10.280  12.206  0.00  0.00    -0.203 NA
ATOM     19  C   UNL     1      -7.599 -10.225  12.978  0.00  0.00    +0.131 C 
ATOM     20  C   UNL     1      -7.174 -10.148  13.680  0.00  0.00    +0.080 C 
ENDROOT
BRANCH   6   7
ATOM      7  C   UNL     1      -4.904 -10.263  11.261  0.00  0.00    +0.100 C 
BRANCH   7   8
ATOM      8  C   UNL     1      -4.185  -9.975  10.977  0.00  0.00    -0.006 A 
ATOM      9  C   UNL     1      -3.496 -10.419  11.072  0.00  0.00    -0.001 A 
ATOM     10  C   UNL     1      -2.777 -10.130  10.788  0.00  0.00    +0.029 A 
ATOM     11  C   UNL     1      -2.748  -9.397  10.409  0.00  0.00    +0.140 A 
ATOM     12  F   UNL     1      -2.029  -9.108  10.125  0.00  0.00    -0.204 F 
ATOM     13  C   UNL     1      -3.437  -8.953  10.315  0.00  0.00    +0.029 A 
ATOM     14  C   UNL     1      -4.155  -9.242  10.599  0.00  0.00    -0.001 A 
ENDBRANCH   7   8
ENDBRANCH   6   7
BRANCH  20  21
ATOM     21  C   UNL     1      -7.624 -10.108  14.370  0.00  0.00    +0.027 C 
BRANCH  21  22
ATOM     22  C   UNL     1      -8.432  -9.949  14.327  0.00  0.00    +0.088 C 
BRANCH  22  23
ATOM     23  C   UNL     1      -8.884  -9.914  15.016  0.00  0.00    +0.242 C 
ATOM     24  O   UNL     1      -8.976 -10.588  15.483  0.00  0.00    -0.273 OA
ATOM     25  N   UNL     1      -9.244  -9.207  15.239  0.00  0.00    -0.200 NA
BRANCH  25  26
ATOM     26  C   UNL     1      -9.695  -9.172  15.929  0.00  0.00    +0.143 C 
BRANCH  26  27
ATOM     27  C   UNL     1     -10.002  -8.451  16.185  0.00  0.00    +0.019 A 
ATOM     28  C   UNL     1      -9.898  -8.214  16.968  0.00  0.00    +0.001 A 
ATOM     29  C   UNL     1     -10.205  -7.492  17.226  0.00  0.00    +0.020 A 
ATOM     30  C   UNL     1     -10.615  -7.008  16.699  0.00  0.00    +0.099 A 
ATOM     31  N   UNL     1     -10.720  -7.245  15.915  0.00  0.00    -0.243 NA
ATOM     32  C   UNL     1     -10.413  -7.966  15.659  0.00  0.00    +0.096 A 
ENDBRANCH  26  27
ENDBRANCH  25  26
ENDBRANCH  22  23
ENDBRANCH  21  22
ENDBRANCH  20  21
TORSDOF 7
ENDMDL
MODEL 8
REMARK VINA RESULT:      -5.9     16.851     17.517
REMARK  Name = 
REMARK  7 active torsions:
REMARK  status: ('A' for Active; 'I' for Inactive)
REMARK    1  A    between atoms: N_6  and  C_7
REMARK    2  A    between atoms: C_7  and  C_8
REMARK    3  A    between atoms: C_20  and  C_21
REMARK    4  A    between atoms: C_21  and  C_22
REMARK    5  A    between atoms: C_22  and  C_23
REMARK    6  A    between atoms: N_25  and  C_26
REMARK    7  A    between atoms: C_26  and  C_27
REMARK                            x       y       z     vdW  Elec       q    Type
REMARK                         _______ _______ _______ _____ _____    ______ ____
ROOT
ATOM      1  C   UNL     1      -4.703 -10.744  11.769  0.00  0.00    +0.090 C 
ATOM      2  N   UNL     1      -4.465 -10.298  11.116  0.00  0.00    -0.271 NA
ATOM      3  C   UNL     1      -5.053 -10.133  10.562  0.00  0.00    +0.083 C 
ATOM      4  C   UNL     1      -5.834 -10.389  10.637  0.00  0.00    +0.035 C 
ATOM      5  C   UNL     1      -6.255 -10.119   9.981  0.00  0.00    +0.074 C 
ATOM      6  N   UNL     1      -5.735  -9.697   9.500  0.00  0.00    -0.262 NA
ATOM     15  C   UNL     1      -4.992  -9.705   9.858  0.00  0.00    +0.151 C 
ATOM     16  C   UNL     1      -4.328  -9.338   9.537  0.00  0.00    +0.257 C 
ATOM     17  O   UNL     1      -4.445  -8.949   8.819  0.00  0.00    -0.272 OA
ATOM     18  N   UNL     1      -3.560  -9.306   9.838  0.00  0.00    -0.203 NA
ATOM     19  C   UNL     1      -3.268  -9.635  10.537  0.00  0.00    +0.131 C 
ATOM     20  C   UNL     1      -3.670 -10.076  11.105  0.00  0.00    +0.080 C 
ENDROOT
BRANCH   6   7
ATOM      7  C   UNL     1      -5.924  -9.330   8.785  0.00  0.00    +0.100 C 
BRANCH   7   8
ATOM      8  C   UNL     1      -6.702  -9.104   8.632  0.00  0.00    -0.006 A 
ATOM      9  C   UNL     1      -7.224  -9.633   8.276  0.00  0.00    -0.001 A 
ATOM     10  C   UNL     1      -8.002  -9.406   8.124  0.00  0.00    +0.029 A 
ATOM     11  C   UNL     1      -8.258  -8.648   8.328  0.00  0.00    +0.140 A 
ATOM     12  F   UNL     1      -9.037  -8.421   8.175  0.00  0.00    -0.204 F 
ATOM     13  C   UNL     1      -7.736  -8.118   8.684  0.00  0.00    +0.029 A 
ATOM     14  C   UNL     1      -6.958  -8.346   8.836  0.00  0.00    -0.001 A 
ENDBRANCH   7   8
ENDBRANCH   6   7
BRANCH  20  21
ATOM     21  C   UNL     1      -3.219 -10.330  11.748  0.00  0.00    +0.027 C 
BRANCH  21  22
ATOM     22  C   UNL     1      -2.471 -10.011  11.878  0.00  0.00    +0.088 C 
BRANCH  22  23
ATOM     23  C   UNL     1      -1.965 -10.356  12.431  0.00  0.00    +0.242 C 
ATOM     24  O   UNL     1      -1.254 -10.695  12.185  0.00  0.00    -0.273 OA
ATOM     25  N   UNL     1      -2.169 -10.363  13.230  0.00  0.00    -0.200 NA
BRANCH  25  26
ATOM     26  C   UNL     1      -1.663 -10.709  13.783  0.00  0.00    +0.143 C 
BRANCH  26  27
ATOM     27  C   UNL     1      -1.793 -10.595  14.589  0.00  0.00    +0.019 A 
ATOM     28  C   UNL     1      -2.531 -10.766  14.916  0.00  0.00    +0.001 A 
ATOM     29  C   UNL     1      -2.661 -10.652  15.723  0.00  0.00    +0.020 A 
ATOM     30  C   UNL     1      -2.053 -10.368  16.203  0.00  0.00    +0.099 A 
ATOM     31  N   UNL     1      -1.315 -10.198  15.876  0.00  0.00    -0.243 NA
ATOM     32  C   UNL     1      -1.185 -10.311  15.069  0.00  0.00    +0.096 A 
ENDBRANCH  26  27
ENDBRANCH  25  26
ENDBRANCH  22  23
ENDBRANCH  21  22
ENDBRANCH  20  21
TORSDOF 7
ENDMDL
