MODEL 1
REMARK VINA RESULT:     -11.8      0.000      0.000
REMARK  Name = 
REMARK  7 active torsions:
REMARK  status: ('A' for Active; 'I' for Inactive)
REMARK    1  A    between atoms: N_2  and  C_3
REMARK    2  A    between atoms: N_2  and  C_23
REMARK    3  A    between atoms: C_3  and  C_4
REMARK    4  A    between atoms: C_11  and  C_12
REMARK    5  A    between atoms: C_12  and  N_13
REMARK    6  A    between atoms: N_13  and  S_14
REMARK    7  A    between atoms: S_14  and  C_17
REMARK                            x       y       z     vdW  Elec       q    Type
REMARK                         _______ _______ _______ _____ _____    ______ ____
ROOT
ATOM      4  C   UNL     1      -3.295   2.859  24.972  0.00  0.00    +0.036 C 
ATOM      5  C   UNL     1      -2.880   2.292  25.305  0.00  0.00    +0.074 C 
ATOM      6  N   UNL     1      -3.606   2.204  24.924  0.00  0.00    -0.272 NA
ATOM      7  C   UNL     1      -3.896   3.154  24.587  0.00  0.00    +0.072 C 
ATOM      8  C   UNL     1      -4.323   3.542  24.281  0.00  0.00    +0.017 C 
ATOM      9  C   UNL     1      -4.008   2.765  24.599  0.00  0.00    +0.006 C 
ATOM     10  C   UNL     1      -4.509   2.059  24.457  0.00  0.00    +0.018 C 
ATOM     11  C   UNL     1      -4.133   1.474  24.773  0.00  0.00    +0.077 C 
ENDROOT
BRANCH   4   3
ATOM      3  C   UNL     1      -2.982   3.623  25.000  0.00  0.00    +0.092 C 
BRANCH   3   2
ATOM      1  C   UNL     1      -2.234   3.398  26.197  0.00  0.00    +0.112 C 
ATOM      2  N   UNL     1      -2.325   3.782  25.472  0.00  0.00    -0.306 N 
BRANCH   2  23
ATOM     23  C   UNL     1      -1.757   4.324  25.219  0.00  0.00    +0.048 A 
ATOM     24  C   UNL     1      -1.917   5.133  25.250  0.00  0.00    +0.015 A 
ATOM     25  C   UNL     1      -1.350   5.676  24.998  0.00  0.00    +0.001 A 
ATOM     26  C   UNL     1      -0.622   5.411  24.713  0.00  0.00    +0.000 A 
ATOM     27  C   UNL     1      -0.463   4.602  24.682  0.00  0.00    +0.001 A 
ATOM     28  C   UNL     1      -1.030   4.059  24.934  0.00  0.00    +0.015 A 
ENDBRANCH   2  23
ENDBRANCH   3   2
ENDBRANCH   4   3
BRANCH  11  12
ATOM     12  C   UNL     1      -4.177   0.661  24.901  0.00  0.00    +0.131 C 
BRANCH  12  13
ATOM     13  N   UNL     1      -4.274   0.147  24.263  0.00  0.00    -0.076 NA
BRANCH  13  14
ATOM     14  S   UNL     1      -4.093  -0.654  24.348  0.00  0.00    +0.077 S 
ATOM     15  O   UNL     1      -4.404  -0.644  25.111  0.00  0.00    -0.152 OA
ATOM     16  O   UNL     1      -3.782  -0.663  23.583  0.00  0.00    -0.152 OA
BRANCH  14  17
ATOM     17  C   UNL     1      -3.912  -1.454  24.432  0.00  0.00    +0.124 A 
ATOM     18  C   UNL     1      -3.447  -1.708  25.064  0.00  0.00    +0.020 A 
ATOM     19  C   UNL     1      -3.266  -2.509  25.148  0.00  0.00    +0.001 A 
ATOM     20  C   UNL     1      -3.549  -3.056  24.600  0.00  0.00    +0.000 A 
ATOM     21  C   UNL     1      -4.014  -2.802  23.967  0.00  0.00    +0.001 A 
ATOM     22  C   UNL     1      -4.195  -2.001  23.883  0.00  0.00    +0.020 A 
ENDBRANCH  14  17
ENDBRANCH  13  14
ENDBRANCH  12  13
ENDBRANCH  11  12
TORSDOF 7
ENDMDL
MODEL 2
REMARK VINA RESULT:     -11.8      2.299      6.014
REMARK  Name = 
REMARK  7 active torsions:
REMARK  status: ('A' for Active; 'I' for Inactive)
REMARK    1  A    between atoms: N_2  and  C_3
REMARK    2  A    between atoms: N_2  and  C_23
REMARK    3  A    between atoms: C_3  and  C_4
REMARK    4  A    between atoms: C_11  and  C_12
REMARK    5  A    between atoms: C_12  and  N_13
REMARK    6  A    between atoms: N_13  and  S_14
REMARK    7  A    between atoms: S_14  and  C_17
REMARK                            x       y       z     vdW  Elec       q    Type
REMARK                         _______ _______ _______ _____ _____    ______ ____
ROOT
ATOM      4  C   UNL     1      -1.843  -0.405  25.199  0.00  0.00    +0.036 C 
ATOM      5  C   UNL     1      -2.344   0.148  25.421  0.00  0.00    +0.074 C 
ATOM      6  N   UNL     1      -1.534   0.245  25.295  0.00  0.00    -0.272 NA
ATOM      7  C   UNL     1      -1.151  -0.687  25.007  0.00  0.00    +0.072 C 
ATOM      8  C   UNL     1      -0.648  -1.063  24.827  0.00  0.00    +0.017 C 
ATOM      9  C   UNL     1      -1.049  -0.302  25.078  0.00  0.00    +0.006 C 
ATOM     10  C   UNL     1      -0.531   0.403  25.149  0.00  0.00    +0.018 C 
ATOM     11  C   UNL     1      -0.988   0.974  25.367  0.00  0.00    +0.077 C 
ENDROOT
BRANCH   4   3
ATOM      3  C   UNL     1      -2.147  -1.164  25.077  0.00  0.00    +0.092 C 
BRANCH   3   2
ATOM      1  C   UNL     1      -3.283  -0.987  25.925  0.00  0.00    +0.112 C 
ATOM      2  N   UNL     1      -2.935  -1.326  25.259  0.00  0.00    -0.306 N 
BRANCH   2  23
ATOM     23  C   UNL     1      -3.375  -1.827  24.773  0.00  0.00    +0.048 A 
ATOM     24  C   UNL     1      -3.929  -1.513  24.249  0.00  0.00    +0.015 A 
ATOM     25  C   UNL     1      -4.369  -2.014  23.764  0.00  0.00    +0.001 A 
ATOM     26  C   UNL     1      -4.256  -2.830  23.802  0.00  0.00    +0.000 A 
ATOM     27  C   UNL     1      -3.702  -3.144  24.327  0.00  0.00    +0.001 A 
ATOM     28  C   UNL     1      -3.262  -2.643  24.812  0.00  0.00    +0.015 A 
ENDBRANCH   2  23
ENDBRANCH   3   2
ENDBRANCH   4   3
BRANCH  11  12
ATOM     12  C   UNL     1      -0.989   1.776  25.555  0.00  0.00    +0.131 C 
BRANCH  12  13
ATOM     13  N   UNL     1      -0.608   2.317  25.062  0.00  0.00    -0.076 NA
BRANCH  13  14
ATOM     14  S   UNL     1      -0.830   3.111  25.072  0.00  0.00    +0.077 S 
ATOM     15  O   UNL     1      -0.640   3.155  25.872  0.00  0.00    -0.152 OA
ATOM     16  O   UNL     1      -1.020   3.067  24.270  0.00  0.00    -0.152 OA
BRANCH  14  17
ATOM     17  C   UNL     1      -1.052   3.905  25.081  0.00  0.00    +0.124 A 
ATOM     18  C   UNL     1      -1.792   4.124  25.373  0.00  0.00    +0.020 A 
ATOM     19  C   UNL     1      -2.014   4.918  25.382  0.00  0.00    +0.001 A 
ATOM     20  C   UNL     1      -1.496   5.495  25.099  0.00  0.00    +0.000 A 
ATOM     21  C   UNL     1      -0.757   5.277  24.806  0.00  0.00    +0.001 A 
ATOM     22  C   UNL     1      -0.534   4.482  24.797  0.00  0.00    +0.020 A 
ENDBRANCH  14  17
ENDBRANCH  13  14
ENDBRANCH  12  13
ENDBRANCH  11  12
TORSDOF 7
ENDMDL
MODEL 3
REMARK VINA RESULT:     -11.7      1.726      5.615
REMARK  Name = 
REMARK  7 active torsions:
REMARK  status: ('A' for Active; 'I' for Inactive)
REMARK    1  A    between atoms: N_2  and  C_3
REMARK    2  A    between atoms: N_2  and  C_23
REMARK    3  A    between atoms: C_3  and  C_4
REMARK    4  A    between atoms: C_11  and  C_12
REMARK    5  A    between atoms: C_12  and  N_13
REMARK    6  A    between atoms: N_13  and  S_14
REMARK    7  A    between atoms: S_14  and  C_17
REMARK                            x       y       z     vdW  Elec       q    Type
REMARK                         _______ _______ _______ _____ _____    ______ ____
ROOT
ATOM      4  C   UNL     1      -4.102   0.767  24.662  0.00  0.00    +0.036 C 
ATOM      5  C   UNL     1      -3.441   1.039  24.355  0.00  0.00    +0.074 C 
ATOM      6  N   UNL     1      -4.024   1.486  24.732  0.00  0.00    -0.272 NA
ATOM      7  C   UNL     1      -4.779   0.822  25.028  0.00  0.00    +0.072 C 
ATOM      8  C   UNL     1      -5.355   0.709  25.315  0.00  0.00    +0.017 C 
ATOM      9  C   UNL     1      -4.669   1.212  25.030  0.00  0.00    +0.006 C 
ATOM     10  C   UNL     1      -4.728   2.072  25.193  0.00  0.00    +0.018 C 
ATOM     11  C   UNL     1      -4.091   2.380  24.904  0.00  0.00    +0.077 C 
ENDROOT
BRANCH   4   3
ATOM      3  C   UNL     1      -4.236  -0.047  24.608  0.00  0.00    +0.092 C 
BRANCH   3   2
ATOM      1  C   UNL     1      -3.049  -0.205  23.830  0.00  0.00    +0.112 C 
ATOM      2  N   UNL     1      -3.674  -0.535  24.256  0.00  0.00    -0.306 N 
BRANCH   2  23
ATOM     23  C   UNL     1      -3.735  -1.354  24.329  0.00  0.00    +0.048 A 
ATOM     24  C   UNL     1      -3.330  -1.746  24.931  0.00  0.00    +0.015 A 
ATOM     25  C   UNL     1      -3.391  -2.566  25.005  0.00  0.00    +0.001 A 
ATOM     26  C   UNL     1      -3.858  -2.994  24.476  0.00  0.00    +0.000 A 
ATOM     27  C   UNL     1      -4.263  -2.601  23.874  0.00  0.00    +0.001 A 
ATOM     28  C   UNL     1      -4.201  -1.782  23.801  0.00  0.00    +0.015 A 
ENDBRANCH   2  23
ENDBRANCH   3   2
ENDBRANCH   4   3
BRANCH  11  12
ATOM     12  C   UNL     1      -3.698   3.097  24.807  0.00  0.00    +0.131 C 
BRANCH  12  13
ATOM     13  N   UNL     1      -3.295   3.437  25.442  0.00  0.00    -0.076 NA
BRANCH  13  14
ATOM     14  S   UNL     1      -2.631   3.907  25.305  0.00  0.00    +0.077 S 
ATOM     15  O   UNL     1      -2.987   4.216  24.629  0.00  0.00    -0.152 OA
ATOM     16  O   UNL     1      -2.274   3.598  25.982  0.00  0.00    -0.152 OA
BRANCH  14  17
ATOM     17  C   UNL     1      -1.966   4.376  25.168  0.00  0.00    +0.124 A 
ATOM     18  C   UNL     1      -2.031   5.198  25.186  0.00  0.00    +0.020 A 
ATOM     19  C   UNL     1      -1.366   5.668  25.050  0.00  0.00    +0.001 A 
ATOM     20  C   UNL     1      -0.636   5.315  24.896  0.00  0.00    +0.000 A 
ATOM     21  C   UNL     1      -0.572   4.492  24.878  0.00  0.00    +0.001 A 
ATOM     22  C   UNL     1      -1.237   4.023  25.014  0.00  0.00    +0.020 A 
ENDBRANCH  14  17
ENDBRANCH  13  14
ENDBRANCH  12  13
ENDBRANCH  11  12
TORSDOF 7
ENDMDL
MODEL 4
REMARK VINA RESULT:     -10.9      1.641      2.277
REMARK  Name = 
REMARK  7 active torsions:
REMARK  status: ('A' for Active; 'I' for Inactive)
REMARK    1  A    between atoms: N_2  and  C_3
REMARK    2  A    between atoms: N_2  and  C_23
REMARK    3  A    between atoms: C_3  and  C_4
REMARK    4  A    between atoms: C_11  and  C_12
REMARK    5  A    between atoms: C_12  and  N_13
REMARK    6  A    between atoms: N_13  and  S_14
REMARK    7  A    between atoms: S_14  and  C_17
REMARK                            x       y       z     vdW  Elec       q    Type
REMARK                         _______ _______ _______ _____ _____    ______ ____
ROOT
ATOM      4  C   UNL     1      -1.083   1.930  25.147  0.00  0.00    +0.036 C 
ATOM      5  C   UNL     1      -1.554   1.690  24.576  0.00  0.00    +0.074 C 
ATOM      6  N   UNL     1      -1.194   1.212  25.145  0.00  0.00    -0.272 NA
ATOM      7  C   UNL     1      -0.628   1.840  25.765  0.00  0.00    +0.072 C 
ATOM      8  C   UNL     1      -0.228   1.925  26.274  0.00  0.00    +0.017 C 
ATOM      9  C   UNL     1      -0.734   1.455  25.702  0.00  0.00    +0.006 C 
ATOM     10  C   UNL     1      -0.764   0.588  25.836  0.00  0.00    +0.018 C 
ATOM     11  C   UNL     1      -1.221   0.312  25.290  0.00  0.00    +0.077 C 
ENDROOT
BRANCH   4   3
ATOM      3  C   UNL     1      -0.926   2.740  25.192  0.00  0.00    +0.092 C 
BRANCH   3   2
ATOM      1  C   UNL     1      -1.529   2.963  23.916  0.00  0.00    +0.112 C 
ATOM      2  N   UNL     1      -1.252   3.254  24.637  0.00  0.00    -0.306 N 
BRANCH   2  23
ATOM     23  C   UNL     1      -1.300   4.061  24.801  0.00  0.00    +0.048 A 
ATOM     24  C   UNL     1      -1.984   4.373  25.142  0.00  0.00    +0.015 A 
ATOM     25  C   UNL     1      -2.033   5.180  25.306  0.00  0.00    +0.001 A 
ATOM     26  C   UNL     1      -1.398   5.676  25.129  0.00  0.00    +0.000 A 
ATOM     27  C   UNL     1      -0.715   5.365  24.788  0.00  0.00    +0.001 A 
ATOM     28  C   UNL     1      -0.666   4.558  24.624  0.00  0.00    +0.015 A 
ENDBRANCH   2  23
ENDBRANCH   3   2
ENDBRANCH   4   3
BRANCH  11  12
ATOM     12  C   UNL     1      -1.546  -0.389  25.002  0.00  0.00    +0.131 C 
BRANCH  12  13
ATOM     13  N   UNL     1      -2.116  -0.791  25.442  0.00  0.00    -0.076 NA
BRANCH  13  14
ATOM     14  S   UNL     1      -2.657  -1.285  25.063  0.00  0.00    +0.077 S 
ATOM     15  O   UNL     1      -2.048  -1.601  24.604  0.00  0.00    -0.152 OA
ATOM     16  O   UNL     1      -3.266  -0.970  25.521  0.00  0.00    -0.152 OA
BRANCH  14  17
ATOM     17  C   UNL     1      -3.198  -1.779  24.683  0.00  0.00    +0.124 A 
ATOM     18  C   UNL     1      -3.148  -2.597  24.779  0.00  0.00    +0.020 A 
ATOM     19  C   UNL     1      -3.689  -3.090  24.399  0.00  0.00    +0.001 A 
ATOM     20  C   UNL     1      -4.281  -2.766  23.924  0.00  0.00    +0.000 A 
ATOM     21  C   UNL     1      -4.331  -1.949  23.829  0.00  0.00    +0.001 A 
ATOM     22  C   UNL     1      -3.790  -1.455  24.208  0.00  0.00    +0.020 A 
ENDBRANCH  14  17
ENDBRANCH  13  14
ENDBRANCH  12  13
ENDBRANCH  11  12
TORSDOF 7
ENDMDL
