REMARK  Name = 
REMARK  5 active torsions:
REMARK  status: ('A' for Active; 'I' for Inactive)
REMARK    1  A    between atoms: C_2  and  N_4
REMARK    2  A    between atoms: N_10  and  S_23
REMARK    3  A    between atoms: C_11  and  C_13
REMARK    4  A    between atoms: N_15  and  C_16
REMARK    5  A    between atoms: S_23  and  C_26
REMARK                            x       y       z     vdW  Elec       q    Type
REMARK                         _______ _______ _______ _____ _____    ______ ____
ROOT
ATOM      4  N   UNL     1       0.000  -0.825   0.000  0.00  0.00    -0.190 NA
ATOM      5  C   UNL     1       0.715  -1.238   0.000  0.00  0.00    +0.323 C 
ATOM      6  O   UNL     1       1.429  -0.825   0.000  0.00  0.00    -0.251 OA
ATOM      7  N   UNL     1       0.715  -2.062   0.000  0.00  0.00    -0.259 N 
ATOM      8  C   UNL     1       1.429  -2.475   0.000  0.00  0.00    +0.114 C 
ATOM      9  C   UNL     1       1.429  -3.300   0.000  0.00  0.00    +0.118 C 
ATOM     10  N   UNL     1       0.715  -3.712   0.000  0.00  0.00    -0.145 NA
ATOM     11  C   UNL     1       0.000  -3.300   0.000  0.00  0.00    +0.177 C 
ATOM     12  C   UNL     1       0.000  -2.475   0.000  0.00  0.00    +0.122 C 
ENDROOT
BRANCH   4   2
ATOM      1  C   UNL     1      -0.715   0.412   0.000  0.00  0.00    +0.023 C 
ATOM      2  C   UNL     1       0.000   0.000   0.000  0.00  0.00    +0.097 C 
ATOM      3  C   UNL     1       0.715   0.412   0.000  0.00  0.00    +0.023 C 
ENDBRANCH   4   2
BRANCH  11  13
ATOM     13  C   UNL     1      -0.715  -3.712   0.000  0.00  0.00    +0.260 C 
ATOM     14  O   UNL     1      -1.429  -3.300   0.000  0.00  0.00    -0.272 OA
ATOM     15  N   UNL     1      -0.715  -4.537   0.000  0.00  0.00    -0.197 NA
BRANCH  15  16
ATOM     16  C   UNL     1      -1.429  -4.950   0.000  0.00  0.00    +0.173 C 
ATOM     17  C   UNL     1      -1.429  -5.775   0.000  0.00  0.00    +0.033 C 
ATOM     18  C   UNL     1      -2.143  -6.188   0.000  0.00  0.00    +0.026 C 
ATOM     19  C   UNL     1      -2.858  -5.775   0.000  0.00  0.00    +0.115 C 
ATOM     20  N   UNL     1      -2.858  -4.950   0.000  0.00  0.00    -0.204 NA
ATOM     21  C   UNL     1      -2.143  -4.537   0.000  0.00  0.00    +0.261 C 
ATOM     22  O   UNL     1      -2.143  -3.712   0.000  0.00  0.00    -0.271 OA
ENDBRANCH  15  16
ENDBRANCH  11  13
BRANCH  10  23
ATOM     23  S   UNL     1       0.715  -4.537   0.000  0.00  0.00    +0.064 S 
ATOM     24  O   UNL     1      -0.111  -4.537   0.000  0.00  0.00    -0.153 OA
ATOM     25  O   UNL     1       1.540  -4.537   0.000  0.00  0.00    -0.153 OA
BRANCH  23  26
ATOM     26  C   UNL     1       0.715  -5.362   0.000  0.00  0.00    +0.122 A 
ATOM     27  C   UNL     1       1.429  -5.775   0.000  0.00  0.00    +0.022 A 
ATOM     28  C   UNL     1       1.429  -6.600   0.000  0.00  0.00    +0.031 A 
ATOM     29  C   UNL     1       0.715  -7.013   0.000  0.00  0.00    +0.140 A 
ATOM     30  F   UNL     1       0.715  -7.838   0.000  0.00  0.00    -0.204 F 
ATOM     31  C   UNL     1       0.000  -6.600   0.000  0.00  0.00    +0.031 A 
ATOM     32  C   UNL     1       0.000  -5.775   0.000  0.00  0.00    +0.022 A 
ENDBRANCH  23  26
ENDBRANCH  10  23
TORSDOF 5
