REMARK  Name = 
REMARK  3 active torsions:
REMARK  status: ('A' for Active; 'I' for Inactive)
REMARK    1  A    between atoms: O_2  and  C_3
REMARK    2  A    between atoms: C_3  and  C_4
REMARK    3  A    between atoms: N_6  and  C_7
REMARK                            x       y       z     vdW  Elec       q    Type
REMARK                         _______ _______ _______ _____ _____    ______ ____
ROOT
ATOM      7  C   UNL     1       6.286   1.204   0.000  0.00  0.00    +0.154 C 
ATOM      8  C   UNL     1       6.372   2.025   0.000  0.00  0.00    +0.166 C 
ATOM      9  O   UNL     1       7.179   2.196   0.000  0.00  0.00    -0.349 OA
ATOM     10  C   UNL     1       7.592   1.482   0.000  0.00  0.00    +0.177 C 
ATOM     11  C   UNL     1       8.345   1.146   0.000  0.00  0.00    +0.211 C 
ATOM     12  O   UNL     1       9.060   1.559   0.000  0.00  0.00    -0.218 OA
ATOM     13  C   UNL     1       8.259   0.326   0.000  0.00  0.00    +0.178 C 
ATOM     14  O   UNL     1       7.452   0.154   0.000  0.00  0.00    -0.349 OA
ATOM     15  C   UNL     1       7.040   0.869   0.000  0.00  0.00    +0.167 C 
ENDROOT
BRANCH   7   6
ATOM      4  C   UNL     1       4.857   1.204   0.000  0.00  0.00    +0.272 C 
ATOM      5  O   UNL     1       4.857   2.029   0.000  0.00  0.00    -0.271 OA
ATOM      6  N   UNL     1       5.572   0.792   0.000  0.00  0.00    -0.200 NA
BRANCH   4   3
ATOM      3  C   UNL     1       4.143   0.792   0.000  0.00  0.00    +0.229 C 
BRANCH   3   2
ATOM      1  C   UNL     1       2.714   0.792   0.000  0.00  0.00    +0.175 C 
ATOM      2  O   UNL     1       3.428   1.204   0.000  0.00  0.00    -0.342 OA
ENDBRANCH   3   2
ENDBRANCH   4   3
ENDBRANCH   7   6
TORSDOF 3
