REMARK  Name = 
REMARK  6 active torsions:
REMARK  status: ('A' for Active; 'I' for Inactive)
REMARK    1  A    between atoms: C_2  and  C_4
REMARK    2  A    between atoms: C_7  and  N_8
REMARK    3  A    between atoms: N_14  and  S_27
REMARK    4  A    between atoms: C_15  and  C_17
REMARK    5  A    between atoms: N_19  and  C_20
REMARK    6  A    between atoms: S_27  and  C_30
REMARK                            x       y       z     vdW  Elec       q    Type
REMARK                         _______ _______ _______ _____ _____    ______ ____
ROOT
ATOM      8  N   UNL     1       1.429  -8.250   0.000  0.00  0.00    -0.162 NA
ATOM      9  C   UNL     1       2.143  -8.662   0.000  0.00  0.00    +0.328 C 
ATOM     10  O   UNL     1       2.858  -8.250   0.000  0.00  0.00    -0.250 OA
ATOM     11  N   UNL     1       2.143  -9.488   0.000  0.00  0.00    -0.259 N 
ATOM     12  C   UNL     1       2.858  -9.900   0.000  0.00  0.00    +0.114 C 
ATOM     13  C   UNL     1       2.858 -10.725   0.000  0.00  0.00    +0.118 C 
ATOM     14  N   UNL     1       2.143 -11.137   0.000  0.00  0.00    -0.145 NA
ATOM     15  C   UNL     1       1.429 -10.725   0.000  0.00  0.00    +0.177 C 
ATOM     16  C   UNL     1       1.429  -9.900   0.000  0.00  0.00    +0.122 C 
ENDROOT
BRANCH   8   7
ATOM      4  C   UNL     1       1.429  -5.775   0.000  0.00  0.00    +0.035 A 
ATOM      5  C   UNL     1       2.143  -6.188   0.000  0.00  0.00    +0.004 A 
ATOM      6  C   UNL     1       2.143  -7.013   0.000  0.00  0.00    +0.017 A 
ATOM      7  C   UNL     1       1.429  -7.425   0.000  0.00  0.00    +0.075 A 
ATOM     37  C   UNL     1       0.715  -7.013   0.000  0.00  0.00    +0.017 A 
ATOM     38  C   UNL     1       0.715  -6.188   0.000  0.00  0.00    +0.004 A 
BRANCH   4   2
ATOM      1  C   UNL     1       0.715  -4.537   0.000  0.00  0.00    +0.077 C 
ATOM      2  C   UNL     1       1.429  -4.950   0.000  0.00  0.00    +0.173 C 
ATOM      3  O   UNL     1       2.143  -4.537   0.000  0.00  0.00    -0.291 OA
ENDBRANCH   4   2
ENDBRANCH   8   7
BRANCH  15  17
ATOM     17  C   UNL     1       0.715 -11.137   0.000  0.00  0.00    +0.260 C 
ATOM     18  O   UNL     1       0.000 -10.725   0.000  0.00  0.00    -0.272 OA
ATOM     19  N   UNL     1       0.715 -11.963   0.000  0.00  0.00    -0.197 NA
BRANCH  19  20
ATOM     20  C   UNL     1       0.000 -12.375   0.000  0.00  0.00    +0.173 C 
ATOM     21  C   UNL     1       0.000 -13.200   0.000  0.00  0.00    +0.033 C 
ATOM     22  C   UNL     1      -0.715 -13.613   0.000  0.00  0.00    +0.026 C 
ATOM     23  C   UNL     1      -1.429 -13.200   0.000  0.00  0.00    +0.115 C 
ATOM     24  N   UNL     1      -1.429 -12.375   0.000  0.00  0.00    -0.204 NA
ATOM     25  C   UNL     1      -0.715 -11.963   0.000  0.00  0.00    +0.261 C 
ATOM     26  O   UNL     1      -0.715 -11.137   0.000  0.00  0.00    -0.271 OA
ENDBRANCH  19  20
ENDBRANCH  15  17
BRANCH  14  27
ATOM     27  S   UNL     1       2.143 -11.963   0.000  0.00  0.00    +0.064 S 
ATOM     28  O   UNL     1       1.318 -11.963   0.000  0.00  0.00    -0.153 OA
ATOM     29  O   UNL     1       2.968 -11.963   0.000  0.00  0.00    -0.153 OA
BRANCH  27  30
ATOM     30  C   UNL     1       2.143 -12.787   0.000  0.00  0.00    +0.122 A 
ATOM     31  C   UNL     1       2.858 -13.200   0.000  0.00  0.00    +0.022 A 
ATOM     32  C   UNL     1       2.858 -14.025   0.000  0.00  0.00    +0.031 A 
ATOM     33  C   UNL     1       2.143 -14.438   0.000  0.00  0.00    +0.140 A 
ATOM     34  F   UNL     1       2.143 -15.262   0.000  0.00  0.00    -0.204 F 
ATOM     35  C   UNL     1       1.429 -14.025   0.000  0.00  0.00    +0.031 A 
ATOM     36  C   UNL     1       1.429 -13.200   0.000  0.00  0.00    +0.022 A 
ENDBRANCH  27  30
ENDBRANCH  14  27
TORSDOF 6
