REMARK  Name = 
REMARK  9 active torsions:
REMARK  status: ('A' for Active; 'I' for Inactive)
REMARK    1  A    between atoms: C_2  and  C_4
REMARK    2  A    between atoms: C_4  and  C_5
REMARK    3  A    between atoms: C_5  and  N_6
REMARK    4  A    between atoms: C_7  and  C_9
REMARK    5  A    between atoms: C_11  and  N_12
REMARK    6  A    between atoms: C_13  and  C_15
REMARK    7  A    between atoms: C_15  and  C_16
REMARK    8  A    between atoms: C_16  and  C_17
REMARK    9  A    between atoms: C_17  and  C_18
REMARK                            x       y       z     vdW  Elec       q    Type
REMARK                         _______ _______ _______ _____ _____    ______ ____
ROOT
ATOM      9  C   UNL     1       5.716  -4.125   0.000  0.00  0.00    +0.033 C 
ATOM     10  C   UNL     1       6.430  -3.712   0.000  0.00  0.00    -0.002 C 
ATOM     11  C   UNL     1       7.145  -4.125   0.000  0.00  0.00    +0.150 C 
ATOM     25  C   UNL     1       7.145  -4.950   0.000  0.00  0.00    +0.206 C 
ATOM     26  O   UNL     1       7.859  -5.362   0.000  0.00  0.00    -0.218 OA
ATOM     27  C   UNL     1       6.430  -5.362   0.000  0.00  0.00    +0.189 C 
ATOM     28  O   UNL     1       6.430  -6.188   0.000  0.00  0.00    -0.220 OA
ATOM     29  C   UNL     1       5.716  -4.950   0.000  0.00  0.00    +0.066 C 
ENDROOT
BRANCH   9   7
ATOM      6  N   UNL     1       4.287  -4.125   0.000  0.00  0.00    -0.201 NA
ATOM      7  C   UNL     1       5.001  -3.712   0.000  0.00  0.00    +0.261 C 
ATOM      8  O   UNL     1       5.001  -2.888   0.000  0.00  0.00    -0.269 OA
BRANCH   6   5
ATOM      5  C   UNL     1       3.572  -3.712   0.000  0.00  0.00    +0.125 C 
BRANCH   5   4
ATOM      4  C   UNL     1       2.858  -4.125   0.000  0.00  0.00    +0.112 C 
BRANCH   4   2
ATOM      1  N   UNL     1       1.429  -4.125   0.000  0.00  0.00    -0.088 NA
ATOM      2  C   UNL     1       2.143  -3.712   0.000  0.00  0.00    +0.263 C 
ATOM      3  O   UNL     1       2.143  -2.888   0.000  0.00  0.00    -0.272 OA
ENDBRANCH   4   2
ENDBRANCH   5   4
ENDBRANCH   6   5
ENDBRANCH   9   7
BRANCH  11  12
ATOM     12  N   UNL     1       7.859  -3.712   0.000  0.00  0.00    -0.200 NA
ATOM     13  C   UNL     1       7.859  -2.888   0.000  0.00  0.00    +0.242 C 
ATOM     14  O   UNL     1       7.145  -2.475   0.000  0.00  0.00    -0.273 OA
BRANCH  13  15
ATOM     15  C   UNL     1       8.574  -2.475   0.000  0.00  0.00    +0.087 C 
BRANCH  15  16
ATOM     16  C   UNL     1       8.574  -1.650   0.000  0.00  0.00    +0.019 C 
ATOM     21  C   UNL     1       7.753  -1.736   0.000  0.00  0.00    +0.001 C 
ATOM     22  C   UNL     1       7.418  -0.983   0.000  0.00  0.00    +0.000 C 
ATOM     23  C   UNL     1       8.031  -0.430   0.000  0.00  0.00    +0.000 C 
ATOM     24  C   UNL     1       8.745  -0.843   0.000  0.00  0.00    +0.001 C 
BRANCH  16  17
ATOM     17  C   UNL     1       9.394  -1.736   0.000  0.00  0.00    +0.115 C 
BRANCH  17  18
ATOM     18  C   UNL     1       9.730  -2.490   0.000  0.00  0.00    +0.365 C 
ATOM     19  O   UNL     1      10.550  -2.576   0.000  0.00  0.00    -0.246 OA
ATOM     20  O   UNL     1       9.245  -3.157   0.000  0.00  0.00    -0.246 OA
ENDBRANCH  17  18
ENDBRANCH  16  17
ENDBRANCH  15  16
ENDBRANCH  13  15
ENDBRANCH  11  12
TORSDOF 9
