REMARK  Name = 
REMARK  5 active torsions:
REMARK  status: ('A' for Active; 'I' for Inactive)
REMARK    1  A    between atoms: O_2  and  C_3
REMARK    2  A    between atoms: C_3  and  C_4
REMARK    3  A    between atoms: C_10  and  C_13
REMARK    4  A    between atoms: C_16  and  C_18
REMARK    5  A    between atoms: N_22  and  C_23
REMARK                            x       y       z     vdW  Elec       q    Type
REMARK                         _______ _______ _______ _____ _____    ______ ____
ROOT
ATOM     13  C   UNL     1       2.834  -0.549   0.000  0.00  0.00    +0.205 A 
ATOM     14  N   UNL     1       3.501  -1.034   0.000  0.00  0.00    -0.056 NA
ATOM     15  O   UNL     1       3.247  -1.818   0.000  0.00  0.00    -0.336 OA
ATOM     16  C   UNL     1       2.421  -1.818   0.000  0.00  0.00    +0.251 A 
ATOM     17  N   UNL     1       2.167  -1.034   0.000  0.00  0.00    -0.190 NA
ENDROOT
BRANCH  13  10
ATOM      4  C   UNL     1       3.548   3.164   0.000  0.00  0.00    +0.277 C 
ATOM      5  O   UNL     1       3.548   3.989   0.000  0.00  0.00    -0.270 OA
ATOM      6  N   UNL     1       2.834   2.751   0.000  0.00  0.00    -0.158 NA
ATOM      7  C   UNL     1       2.834   1.926   0.000  0.00  0.00    +0.155 A 
ATOM      8  N   UNL     1       3.548   1.514   0.000  0.00  0.00    -0.227 NA
ATOM      9  C   UNL     1       3.548   0.689   0.000  0.00  0.00    +0.103 A 
ATOM     10  C   UNL     1       2.834   0.276   0.000  0.00  0.00    +0.058 A 
ATOM     11  C   UNL     1       2.119   0.689   0.000  0.00  0.00    +0.008 A 
ATOM     12  C   UNL     1       2.119   1.514   0.000  0.00  0.00    +0.036 A 
BRANCH   4   3
ATOM      3  C   UNL     1       4.263   2.751   0.000  0.00  0.00    +0.229 C 
BRANCH   3   2
ATOM      1  C   UNL     1       5.692   2.751   0.000  0.00  0.00    +0.175 C 
ATOM      2  O   UNL     1       4.977   3.164   0.000  0.00  0.00    -0.342 OA
ENDBRANCH   3   2
ENDBRANCH   4   3
ENDBRANCH  13  10
BRANCH  16  18
ATOM     18  C   UNL     1       1.937  -2.486   0.000  0.00  0.00    +0.138 C 
ATOM     19  C   UNL     1       2.192  -3.270   0.000  0.00  0.00    +0.027 C 
ATOM     20  C   UNL     1       1.524  -3.755   0.000  0.00  0.00    +0.019 C 
ATOM     21  C   UNL     1       0.857  -3.270   0.000  0.00  0.00    +0.072 C 
ATOM     22  N   UNL     1       1.111  -2.486   0.000  0.00  0.00    -0.268 NA
BRANCH  22  23
ATOM     23  C   UNL     1       0.627  -1.818   0.000  0.00  0.00    +0.061 C 
ATOM     24  C   UNL     1      -0.194  -1.905   0.000  0.00  0.00    +0.038 C 
ATOM     25  C   UNL     1      -0.679  -1.237   0.000  0.00  0.00    +0.095 C 
ATOM     26  N   UNL     1      -0.343  -0.483   0.000  0.00  0.00    -0.279 N 
ATOM     27  C   UNL     1       0.477  -0.397   0.000  0.00  0.00    +0.095 C 
ATOM     28  C   UNL     1       0.962  -1.065   0.000  0.00  0.00    +0.038 C 
ATOM     29  C   UNL     1      -0.828   0.184   0.000  0.00  0.00    +0.226 C 
ATOM     30  C   UNL     1      -1.649   0.098   0.000  0.00  0.00    +0.095 C 
ATOM     31  O   UNL     1      -0.493   0.938   0.000  0.00  0.00    -0.275 OA
ENDBRANCH  22  23
ENDBRANCH  16  18
TORSDOF 5
