REMARK  Name = 
REMARK  5 active torsions:
REMARK  status: ('A' for Active; 'I' for Inactive)
REMARK    1  A    between atoms: O_2  and  C_3
REMARK    2  A    between atoms: C_6  and  C_7
REMARK    3  A    between atoms: C_7  and  C_8
REMARK    4  A    between atoms: N_10  and  C_11
REMARK    5  A    between atoms: C_21  and  C_23
REMARK                            x       y       z     vdW  Elec       q    Type
REMARK                         _______ _______ _______ _____ _____    ______ ____
ROOT
ATOM     11  C   UNL     1      -1.296  -1.150   0.000  0.00  0.00    +0.129 A 
ATOM     12  C   UNL     1      -1.167  -0.335   0.000  0.00  0.00    +0.023 A 
ATOM     13  C   UNL     1      -0.397  -0.039   0.000  0.00  0.00    +0.014 A 
ATOM     14  C   UNL     1       0.244  -0.558   0.000  0.00  0.00    +0.041 A 
ATOM     15  C   UNL     1       1.163  -0.557   0.000  0.00  0.00    +0.058 C 
ATOM     16  C   UNL     1       1.713  -0.121   0.000  0.00  0.00    +0.011 C 
ATOM     17  C   UNL     1       1.582  -0.925   0.000  0.00  0.00    +0.043 C 
ATOM     18  C   UNL     1       1.629  -1.912   0.000  0.00  0.00    +0.096 C 
ATOM     19  N   UNL     1       0.813  -2.091   0.000  0.00  0.00    -0.270 N 
ATOM     20  C   UNL     1       1.225  -1.510   0.000  0.00  0.00    +0.100 C 
ATOM     21  C   UNL     1       0.389  -2.865   0.000  0.00  0.00    +0.329 C 
ATOM     22  O   UNL     1       0.532  -3.705   0.000  0.00  0.00    -0.263 OA
ATOM     26  C   UNL     1       0.622  -0.936   0.000  0.00  0.00    +0.110 C 
ATOM     27  N   UNL     1       0.115  -1.373   0.000  0.00  0.00    -0.298 N 
ATOM     28  C   UNL     1      -0.655  -1.669   0.000  0.00  0.00    +0.276 A 
ATOM     29  O   UNL     1      -0.719  -2.694   0.000  0.00  0.00    -0.266 OA
ENDROOT
BRANCH  11  10
ATOM      8  C   UNL     1      -2.993  -0.775   0.000  0.00  0.00    +0.250 C 
ATOM      9  O   UNL     1      -3.013   0.075   0.000  0.00  0.00    -0.273 OA
ATOM     10  N   UNL     1      -2.191  -1.152   0.000  0.00  0.00    -0.174 NA
BRANCH   8   7
ATOM      7  C   UNL     1      -3.635  -1.355   0.000  0.00  0.00    +0.113 C 
BRANCH   7   6
ATOM      3  C   UNL     1      -5.101   0.623   0.000  0.00  0.00    +0.139 A 
ATOM      4  C   UNL     1      -4.282   0.717   0.000  0.00  0.00    +0.037 A 
ATOM      5  C   UNL     1      -3.790   0.054   0.000  0.00  0.00    -0.001 A 
ATOM      6  C   UNL     1      -4.119  -0.703   0.000  0.00  0.00    -0.013 A 
ATOM     30  C   UNL     1      -4.938  -0.797   0.000  0.00  0.00    -0.001 A 
ATOM     31  C   UNL     1      -5.430  -0.134   0.000  0.00  0.00    +0.037 A 
BRANCH   3   2
ATOM      1  C   UNL     1      -6.412   1.191   0.000  0.00  0.00    +0.252 C 
ATOM      2  O   UNL     1      -5.593   1.285   0.000  0.00  0.00    -0.471 OA
ENDBRANCH   3   2
ENDBRANCH   7   6
ENDBRANCH   8   7
ENDBRANCH  11  10
BRANCH  21  23
ATOM     23  C   UNL     1      -0.310  -2.265   0.000  0.00  0.00    +0.440 C 
ATOM     24  O   UNL     1      -0.355  -1.343   0.000  0.00  0.00    -0.235 OA
ATOM     25  O   UNL     1      -1.262  -2.397   0.000  0.00  0.00    -0.235 OA
ENDBRANCH  21  23
TORSDOF 5
