MODEL 1
REMARK VINA RESULT:     -11.1      0.000      0.000
REMARK  Name = 
REMARK  4 active torsions:
REMARK  status: ('A' for Active; 'I' for Inactive)
REMARK    1  A    between atoms: C_7  and  C_8
REMARK    2  A    between atoms: C_15  and  O_17
REMARK    3  A    between atoms: O_17  and  C_18
REMARK    4  A    between atoms: C_21  and  S_24
REMARK                            x       y       z     vdW  Elec       q    Type
REMARK                         _______ _______ _______ _____ _____    ______ ____
ROOT
ATOM      8  C   UNL     1      -2.423   2.842  25.349  0.00  0.00    +0.267 C 
ATOM      9  O   UNL     1      -2.819   2.701  26.059  0.00  0.00    -0.268 OA
ATOM     10  N   UNL     1      -2.618   2.409  24.674  0.00  0.00    -0.268 N 
ATOM     11  C   UNL     1      -2.189   2.595  23.994  0.00  0.00    +0.126 C 
ATOM     12  C   UNL     1      -2.252   2.265  23.240  0.00  0.00    +0.164 C 
ATOM     13  O   UNL     1      -2.761   1.668  22.981  0.00  0.00    -0.348 OA
ATOM     14  C   UNL     1      -3.331   1.255  23.411  0.00  0.00    +0.187 C 
ATOM     15  C   UNL     1      -3.534   1.335  24.207  0.00  0.00    +0.215 C 
ATOM     16  C   UNL     1      -3.216   1.850  24.769  0.00  0.00    +0.140 C 
ENDROOT
BRANCH   8   7
ATOM      1  C   UNL     1      -0.750   2.674  25.978  0.00  0.00    +0.154 C 
ATOM      2  N   UNL     1      -1.063   3.339  25.603  0.00  0.00    -0.245 N 
ATOM      3  N   UNL     1      -0.661   4.044  25.452  0.00  0.00    -0.173 NA
ATOM      4  C   UNL     1      -1.182   4.557  25.069  0.00  0.00    +0.081 A 
ATOM      5  C   UNL     1      -1.010   5.323  24.816  0.00  0.00    +0.054 C 
ATOM      6  C   UNL     1      -1.905   4.169  24.984  0.00  0.00    +0.040 A 
ATOM      7  C   UNL     1      -1.832   3.417  25.314  0.00  0.00    +0.132 A 
ENDBRANCH   8   7
BRANCH  15  17
ATOM     17  O   UNL     1      -4.132   0.837  24.476  0.00  0.00    -0.475 OA
BRANCH  17  18
ATOM     18  C   UNL     1      -4.000   0.024  24.530  0.00  0.00    +0.139 A 
ATOM     19  C   UNL     1      -4.190  -0.469  23.896  0.00  0.00    +0.038 A 
ATOM     20  C   UNL     1      -4.058  -1.280  23.950  0.00  0.00    +0.021 A 
ATOM     21  C   UNL     1      -3.734  -1.601  24.639  0.00  0.00    +0.106 A 
ATOM     22  C   UNL     1      -3.544  -1.108  25.272  0.00  0.00    +0.021 A 
ATOM     23  C   UNL     1      -3.677  -0.297  25.218  0.00  0.00    +0.038 A 
BRANCH  21  24
ATOM     24  S   UNL     1      -3.601  -2.413  24.693  0.00  0.00    +0.010 S 
ATOM     25  C   UNL     1      -3.469  -3.225  24.747  0.00  0.00    +0.182 C 
ATOM     26  O   UNL     1      -3.285  -2.311  25.448  0.00  0.00    -0.169 OA
ATOM     27  O   UNL     1      -3.918  -2.516  23.938  0.00  0.00    -0.169 OA
ENDBRANCH  21  24
ENDBRANCH  17  18
ENDBRANCH  15  17
TORSDOF 4
ENDMDL
MODEL 2
REMARK VINA RESULT:     -10.5      1.488      1.750
REMARK  Name = 
REMARK  4 active torsions:
REMARK  status: ('A' for Active; 'I' for Inactive)
REMARK    1  A    between atoms: C_7  and  C_8
REMARK    2  A    between atoms: C_15  and  O_17
REMARK    3  A    between atoms: O_17  and  C_18
REMARK    4  A    between atoms: C_21  and  S_24
REMARK                            x       y       z     vdW  Elec       q    Type
REMARK                         _______ _______ _______ _____ _____    ______ ____
ROOT
ATOM      8  C   UNL     1      -1.260   2.887  25.660  0.00  0.00    +0.267 C 
ATOM      9  O   UNL     1      -1.186   2.652  26.447  0.00  0.00    -0.268 OA
ATOM     10  N   UNL     1      -1.221   2.326  25.056  0.00  0.00    -0.268 N 
ATOM     11  C   UNL     1      -1.301   2.620  24.289  0.00  0.00    +0.126 C 
ATOM     12  C   UNL     1      -1.287   2.206  23.575  0.00  0.00    +0.164 C 
ATOM     13  O   UNL     1      -1.190   1.395  23.453  0.00  0.00    -0.348 OA
ATOM     14  C   UNL     1      -1.082   0.800  24.013  0.00  0.00    +0.187 C 
ATOM     15  C   UNL     1      -1.046   0.866  24.835  0.00  0.00    +0.215 C 
ATOM     16  C   UNL     1      -1.107   1.546  25.299  0.00  0.00    +0.140 C 
ENDROOT
BRANCH   8   7
ATOM      1  C   UNL     1      -2.736   3.850  26.000  0.00  0.00    +0.154 C 
ATOM      2  N   UNL     1      -2.050   4.126  25.633  0.00  0.00    -0.245 N 
ATOM      3  N   UNL     1      -1.924   4.894  25.357  0.00  0.00    -0.173 NA
ATOM      4  C   UNL     1      -1.166   4.925  25.031  0.00  0.00    +0.081 A 
ATOM      5  C   UNL     1      -0.812   5.588  24.691  0.00  0.00    +0.054 C 
ATOM      6  C   UNL     1      -0.825   4.178  25.104  0.00  0.00    +0.040 A 
ATOM      7  C   UNL     1      -1.372   3.684  25.476  0.00  0.00    +0.132 A 
ENDBRANCH   8   7
BRANCH  15  17
ATOM     17  O   UNL     1      -0.933   0.161  25.247  0.00  0.00    -0.475 OA
BRANCH  17  18
ATOM     18  C   UNL     1      -1.464  -0.463  25.151  0.00  0.00    +0.139 A 
ATOM     19  C   UNL     1      -1.264  -1.106  24.674  0.00  0.00    +0.038 A 
ATOM     20  C   UNL     1      -1.795  -1.729  24.579  0.00  0.00    +0.021 A 
ATOM     21  C   UNL     1      -2.526  -1.711  24.960  0.00  0.00    +0.106 A 
ATOM     22  C   UNL     1      -2.726  -1.068  25.437  0.00  0.00    +0.021 A 
ATOM     23  C   UNL     1      -2.195  -0.445  25.532  0.00  0.00    +0.038 A 
BRANCH  21  24
ATOM     24  S   UNL     1      -3.058  -2.335  24.865  0.00  0.00    +0.010 S 
ATOM     25  C   UNL     1      -3.588  -2.958  24.769  0.00  0.00    +0.182 C 
ATOM     26  O   UNL     1      -2.591  -2.639  24.258  0.00  0.00    -0.169 OA
ATOM     27  O   UNL     1      -3.525  -2.030  25.473  0.00  0.00    -0.169 OA
ENDBRANCH  21  24
ENDBRANCH  17  18
ENDBRANCH  15  17
TORSDOF 4
ENDMDL
MODEL 3
REMARK VINA RESULT:     -10.1      2.450      5.376
REMARK  Name = 
REMARK  4 active torsions:
REMARK  status: ('A' for Active; 'I' for Inactive)
REMARK    1  A    between atoms: C_7  and  C_8
REMARK    2  A    between atoms: C_15  and  O_17
REMARK    3  A    between atoms: O_17  and  C_18
REMARK    4  A    between atoms: C_21  and  S_24
REMARK                            x       y       z     vdW  Elec       q    Type
REMARK                         _______ _______ _______ _____ _____    ______ ____
ROOT
ATOM      8  C   UNL     1      -2.848  -0.556  25.310  0.00  0.00    +0.267 C 
ATOM      9  O   UNL     1      -3.212  -0.220  25.970  0.00  0.00    -0.268 OA
ATOM     10  N   UNL     1      -2.109  -0.286  25.063  0.00  0.00    -0.268 N 
ATOM     11  C   UNL     1      -1.795  -0.661  24.398  0.00  0.00    +0.126 C 
ATOM     12  C   UNL     1      -1.076  -0.519  24.019  0.00  0.00    +0.164 C 
ATOM     13  O   UNL     1      -0.493   0.033  24.213  0.00  0.00    -0.348 OA
ATOM     14  C   UNL     1      -0.486   0.578  24.831  0.00  0.00    +0.187 C 
ATOM     15  C   UNL     1      -1.059   0.707  25.411  0.00  0.00    +0.215 C 
ATOM     16  C   UNL     1      -1.782   0.322  25.514  0.00  0.00    +0.140 C 
ENDROOT
BRANCH   8   7
ATOM      1  C   UNL     1      -4.278  -0.377  24.240  0.00  0.00    +0.154 C 
ATOM      2  N   UNL     1      -3.881  -1.082  24.406  0.00  0.00    -0.245 N 
ATOM      3  N   UNL     1      -4.073  -1.827  24.109  0.00  0.00    -0.173 NA
ATOM      4  C   UNL     1      -3.534  -2.371  24.417  0.00  0.00    +0.081 A 
ATOM      5  C   UNL     1      -3.522  -3.181  24.265  0.00  0.00    +0.054 C 
ATOM      6  C   UNL     1      -3.010  -1.961  24.905  0.00  0.00    +0.040 A 
ATOM      7  C   UNL     1      -3.225  -1.164  24.898  0.00  0.00    +0.132 A 
ENDBRANCH   8   7
BRANCH  15  17
ATOM     17  O   UNL     1      -0.888   1.299  25.959  0.00  0.00    -0.475 OA
BRANCH  17  18
ATOM     18  C   UNL     1      -0.956   2.093  25.745  0.00  0.00    +0.139 A 
ATOM     19  C   UNL     1      -0.283   2.523  25.535  0.00  0.00    +0.038 A 
ATOM     20  C   UNL     1      -0.352   3.316  25.321  0.00  0.00    +0.021 A 
ATOM     21  C   UNL     1      -1.093   3.680  25.317  0.00  0.00    +0.106 A 
ATOM     22  C   UNL     1      -1.764   3.250  25.526  0.00  0.00    +0.021 A 
ATOM     23  C   UNL     1      -1.696   2.457  25.740  0.00  0.00    +0.038 A 
BRANCH  21  24
ATOM     24  S   UNL     1      -1.161   4.474  25.103  0.00  0.00    +0.010 S 
ATOM     25  C   UNL     1      -1.229   5.267  24.889  0.00  0.00    +0.182 C 
ATOM     26  O   UNL     1      -0.514   4.394  24.598  0.00  0.00    -0.169 OA
ATOM     27  O   UNL     1      -1.809   4.554  25.607  0.00  0.00    -0.169 OA
ENDBRANCH  21  24
ENDBRANCH  17  18
ENDBRANCH  15  17
TORSDOF 4
ENDMDL
MODEL 4
REMARK VINA RESULT:     -10.0      2.269      5.159
REMARK  Name = 
REMARK  4 active torsions:
REMARK  status: ('A' for Active; 'I' for Inactive)
REMARK    1  A    between atoms: C_7  and  C_8
REMARK    2  A    between atoms: C_15  and  O_17
REMARK    3  A    between atoms: O_17  and  C_18
REMARK    4  A    between atoms: C_21  and  S_24
REMARK                            x       y       z     vdW  Elec       q    Type
REMARK                         _______ _______ _______ _____ _____    ______ ____
ROOT
ATOM      8  C   UNL     1      -2.841  -0.500  25.310  0.00  0.00    +0.267 C 
ATOM      9  O   UNL     1      -2.620  -0.397  26.098  0.00  0.00    -0.268 OA
ATOM     10  N   UNL     1      -3.086   0.147  24.861  0.00  0.00    -0.268 N 
ATOM     11  C   UNL     1      -3.295  -0.017  24.080  0.00  0.00    +0.126 C 
ATOM     12  C   UNL     1      -3.559   0.505  23.497  0.00  0.00    +0.164 C 
ATOM     13  O   UNL     1      -3.679   1.319  23.553  0.00  0.00    -0.348 OA
ATOM     14  C   UNL     1      -3.565   1.813  24.204  0.00  0.00    +0.187 C 
ATOM     15  C   UNL     1      -3.303   1.615  24.961  0.00  0.00    +0.215 C 
ATOM     16  C   UNL     1      -3.089   0.873  25.253  0.00  0.00    +0.140 C 
ENDROOT
BRANCH   8   7
ATOM      1  C   UNL     1      -1.359  -1.412  24.868  0.00  0.00    +0.154 C 
ATOM      2  N   UNL     1      -2.136  -1.671  24.767  0.00  0.00    -0.245 N 
ATOM      3  N   UNL     1      -2.369  -2.395  24.446  0.00  0.00    -0.173 NA
ATOM      4  C   UNL     1      -3.193  -2.423  24.450  0.00  0.00    +0.081 A 
ATOM      5  C   UNL     1      -3.659  -3.047  24.177  0.00  0.00    +0.054 C 
ATOM      6  C   UNL     1      -3.471  -1.716  24.774  0.00  0.00    +0.040 A 
ATOM      7  C   UNL     1      -2.817  -1.252  24.970  0.00  0.00    +0.132 A 
ENDBRANCH   8   7
BRANCH  15  17
ATOM     17  O   UNL     1      -3.246   2.240  25.495  0.00  0.00    -0.475 OA
BRANCH  17  18
ATOM     18  C   UNL     1      -2.709   2.852  25.360  0.00  0.00    +0.139 A 
ATOM     19  C   UNL     1      -2.972   3.568  25.044  0.00  0.00    +0.038 A 
ATOM     20  C   UNL     1      -2.436   4.180  24.909  0.00  0.00    +0.021 A 
ATOM     21  C   UNL     1      -1.637   4.076  25.088  0.00  0.00    +0.106 A 
ATOM     22  C   UNL     1      -1.375   3.361  25.403  0.00  0.00    +0.021 A 
ATOM     23  C   UNL     1      -1.911   2.749  25.539  0.00  0.00    +0.038 A 
BRANCH  21  24
ATOM     24  S   UNL     1      -1.101   4.689  24.952  0.00  0.00    +0.010 S 
ATOM     25  C   UNL     1      -0.566   5.301  24.816  0.00  0.00    +0.182 C 
ATOM     26  O   UNL     1      -1.599   5.213  25.348  0.00  0.00    -0.169 OA
ATOM     27  O   UNL     1      -0.602   4.164  24.556  0.00  0.00    -0.169 OA
ENDBRANCH  21  24
ENDBRANCH  17  18
ENDBRANCH  15  17
TORSDOF 4
ENDMDL
MODEL 5
REMARK VINA RESULT:      -9.8      2.626      4.482
REMARK  Name = 
REMARK  4 active torsions:
REMARK  status: ('A' for Active; 'I' for Inactive)
REMARK    1  A    between atoms: C_7  and  C_8
REMARK    2  A    between atoms: C_15  and  O_17
REMARK    3  A    between atoms: O_17  and  C_18
REMARK    4  A    between atoms: C_21  and  S_24
REMARK                            x       y       z     vdW  Elec       q    Type
REMARK                         _______ _______ _______ _____ _____    ______ ____
ROOT
ATOM      8  C   UNL     1      -1.217   0.789  24.248  0.00  0.00    +0.267 C 
ATOM      9  O   UNL     1      -1.731   0.853  23.606  0.00  0.00    -0.268 OA
ATOM     10  N   UNL     1      -1.120   1.424  24.765  0.00  0.00    -0.268 N 
ATOM     11  C   UNL     1      -0.593   1.301  25.388  0.00  0.00    +0.126 C 
ATOM     12  C   UNL     1      -0.378   1.822  25.991  0.00  0.00    +0.164 C 
ATOM     13  O   UNL     1      -0.637   2.596  26.118  0.00  0.00    -0.348 OA
ATOM     14  C   UNL     1      -1.174   3.038  25.675  0.00  0.00    +0.187 C 
ATOM     15  C   UNL     1      -1.586   2.817  24.995  0.00  0.00    +0.215 C 
ATOM     16  C   UNL     1      -1.561   2.098  24.590  0.00  0.00    +0.140 C 
ENDROOT
BRANCH   8   7
ATOM      1  C   UNL     1       0.219   0.235  23.325  0.00  0.00    +0.154 C 
ATOM      2  N   UNL     1      -0.141  -0.167  23.949  0.00  0.00    -0.245 N 
ATOM      3  N   UNL     1       0.097  -0.894  24.259  0.00  0.00    -0.173 NA
ATOM      4  C   UNL     1      -0.417  -1.089  24.875  0.00  0.00    +0.081 A 
ATOM      5  C   UNL     1      -0.381  -1.771  25.338  0.00  0.00    +0.054 C 
ATOM      6  C   UNL     1      -0.971  -0.483  24.946  0.00  0.00    +0.040 A 
ATOM      7  C   UNL     1      -0.801   0.087  24.374  0.00  0.00    +0.132 A 
ENDBRANCH   8   7
BRANCH  15  17
ATOM     17  O   UNL     1      -2.087   3.389  24.678  0.00  0.00    -0.475 OA
BRANCH  17  18
ATOM     18  C   UNL     1      -2.885   3.401  24.888  0.00  0.00    +0.139 A 
ATOM     19  C   UNL     1      -3.456   3.131  24.356  0.00  0.00    +0.038 A 
ATOM     20  C   UNL     1      -4.253   3.143  24.566  0.00  0.00    +0.021 A 
ATOM     21  C   UNL     1      -4.481   3.424  25.308  0.00  0.00    +0.106 A 
ATOM     22  C   UNL     1      -3.910   3.693  25.839  0.00  0.00    +0.021 A 
ATOM     23  C   UNL     1      -3.113   3.682  25.629  0.00  0.00    +0.038 A 
BRANCH  21  24
ATOM     24  S   UNL     1      -5.279   3.435  25.518  0.00  0.00    +0.010 S 
ATOM     25  C   UNL     1      -6.076   3.447  25.728  0.00  0.00    +0.182 C 
ATOM     26  O   UNL     1      -5.303   4.248  25.382  0.00  0.00    -0.169 OA
ATOM     27  O   UNL     1      -5.255   2.622  25.654  0.00  0.00    -0.169 OA
ENDBRANCH  21  24
ENDBRANCH  17  18
ENDBRANCH  15  17
TORSDOF 4
ENDMDL
