REMARK  Name = 
REMARK  9 active torsions:
REMARK  status: ('A' for Active; 'I' for Inactive)
REMARK    1  A    between atoms: C_5  and  S_8
REMARK    2  A    between atoms: S_8  and  N_11
REMARK    3  A    between atoms: N_11  and  C_12
REMARK    4  A    between atoms: C_12  and  C_13
REMARK    5  A    between atoms: C_15  and  C_16
REMARK    6  A    between atoms: C_16  and  C_17
REMARK    7  A    between atoms: N_19  and  C_20
REMARK    8  A    between atoms: C_20  and  C_21
REMARK    9  A    between atoms: C_21  and  N_22
REMARK                            x       y       z     vdW  Elec       q    Type
REMARK                         _______ _______ _______ _____ _____    ______ ____
ROOT
ATOM     13  C   UNL     1       0.123  -4.402   0.000  0.00  0.00    +0.167 C 
ATOM     14  O   UNL     1       0.675  -3.789   0.000  0.00  0.00    -0.351 OA
ATOM     15  C   UNL     1       1.429  -4.125   0.000  0.00  0.00    +0.157 C 
ATOM     28  C   UNL     1       1.343  -4.946   0.000  0.00  0.00    +0.212 C 
ATOM     29  O   UNL     1       1.956  -5.497   0.000  0.00  0.00    -0.218 OA
ATOM     30  C   UNL     1       0.536  -5.117   0.000  0.00  0.00    +0.213 C 
ATOM     31  O   UNL     1       0.200  -5.871   0.000  0.00  0.00    -0.218 OA
ENDROOT
BRANCH  13  12
ATOM     12  C   UNL     1      -0.697  -4.316   0.000  0.00  0.00    +0.148 C 
BRANCH  12  11
ATOM     11  N   UNL     1      -1.182  -4.984   0.000  0.00  0.00    -0.075 NA
BRANCH  11   8
ATOM      8  S   UNL     1      -2.003  -4.897   0.000  0.00  0.00    +0.077 S 
ATOM      9  O   UNL     1      -2.089  -5.718   0.000  0.00  0.00    -0.152 OA
ATOM     10  O   UNL     1      -1.916  -4.077   0.000  0.00  0.00    -0.152 OA
BRANCH   8   5
ATOM      1  C   UNL     1      -5.285  -4.553   0.000  0.00  0.00    +0.031 C 
ATOM      2  C   UNL     1      -4.464  -4.639   0.000  0.00  0.00    -0.022 A 
ATOM      3  C   UNL     1      -3.979  -3.971   0.000  0.00  0.00    -0.003 A 
ATOM      4  C   UNL     1      -3.159  -4.058   0.000  0.00  0.00    +0.020 A 
ATOM      5  C   UNL     1      -2.823  -4.811   0.000  0.00  0.00    +0.124 A 
ATOM      6  C   UNL     1      -3.308  -5.479   0.000  0.00  0.00    +0.020 A 
ATOM      7  C   UNL     1      -4.128  -5.393   0.000  0.00  0.00    -0.003 A 
ENDBRANCH   8   5
ENDBRANCH  11   8
ENDBRANCH  12  11
ENDBRANCH  13  12
BRANCH  15  16
ATOM     16  C   UNL     1       2.143  -3.712   0.000  0.00  0.00    +0.119 C 
BRANCH  16  17
ATOM     17  C   UNL     1       2.858  -4.125   0.000  0.00  0.00    +0.244 C 
ATOM     18  O   UNL     1       2.858  -4.950   0.000  0.00  0.00    -0.273 OA
ATOM     19  N   UNL     1       3.572  -3.712   0.000  0.00  0.00    -0.204 NA
BRANCH  19  20
ATOM     20  C   UNL     1       4.287  -4.125   0.000  0.00  0.00    +0.132 C 
BRANCH  20  21
ATOM     21  C   UNL     1       5.001  -3.712   0.000  0.00  0.00    +0.096 C 
BRANCH  21  22
ATOM     22  N   UNL     1       5.716  -4.125   0.000  0.00  0.00    -0.267 NA
ATOM     23  C   UNL     1       6.430  -3.712   0.000  0.00  0.00    +0.105 C 
ATOM     24  C   UNL     1       7.145  -4.125   0.000  0.00  0.00    +0.159 C 
ATOM     25  O   UNL     1       7.145  -4.950   0.000  0.00  0.00    -0.351 OA
ATOM     26  C   UNL     1       6.430  -5.362   0.000  0.00  0.00    +0.159 C 
ATOM     27  C   UNL     1       5.716  -4.950   0.000  0.00  0.00    +0.105 C 
ENDBRANCH  21  22
ENDBRANCH  20  21
ENDBRANCH  19  20
ENDBRANCH  16  17
ENDBRANCH  15  16
TORSDOF 9
