REMARK  Name = 
REMARK  6 active torsions:
REMARK  status: ('A' for Active; 'I' for Inactive)
REMARK    1  A    between atoms: O_2  and  C_3
REMARK    2  A    between atoms: C_6  and  N_7
REMARK    3  A    between atoms: C_19  and  N_20
REMARK    4  A    between atoms: C_21  and  C_23
REMARK    5  A    between atoms: C_23  and  O_24
REMARK    6  A    between atoms: O_24  and  C_25
REMARK                            x       y       z     vdW  Elec       q    Type
REMARK                         _______ _______ _______ _____ _____    ______ ____
ROOT
ATOM      7  N   UNL     1       0.176  -3.370   0.000  0.00  0.00    -0.162 NA
ATOM      8  C   UNL     1       0.125  -2.547   0.000  0.00  0.00    +0.327 C 
ATOM      9  O   UNL     1      -0.614  -2.179   0.000  0.00  0.00    -0.250 OA
ATOM     10  N   UNL     1       0.813  -2.091   0.000  0.00  0.00    -0.262 N 
ATOM     11  C   UNL     1       1.629  -1.912   0.000  0.00  0.00    +0.097 C 
ATOM     12  C   UNL     1       1.582  -0.925   0.000  0.00  0.00    +0.043 C 
ATOM     13  C   UNL     1       1.713  -0.121   0.000  0.00  0.00    +0.011 C 
ATOM     14  C   UNL     1       1.163  -0.557   0.000  0.00  0.00    +0.058 C 
ATOM     15  C   UNL     1       1.225  -1.510   0.000  0.00  0.00    +0.101 C 
ATOM     16  C   UNL     1       0.244  -0.558   0.000  0.00  0.00    +0.041 A 
ATOM     17  C   UNL     1      -0.397  -0.039   0.000  0.00  0.00    +0.014 A 
ATOM     18  C   UNL     1      -1.167  -0.335   0.000  0.00  0.00    +0.023 A 
ATOM     19  C   UNL     1      -1.296  -1.150   0.000  0.00  0.00    +0.129 A 
ATOM     31  C   UNL     1      -0.655  -1.669   0.000  0.00  0.00    +0.276 A 
ATOM     32  O   UNL     1      -1.029  -2.404   0.000  0.00  0.00    -0.266 OA
ATOM     33  N   UNL     1       0.115  -1.373   0.000  0.00  0.00    -0.298 N 
ATOM     34  C   UNL     1       0.622  -0.936   0.000  0.00  0.00    +0.110 C 
ENDROOT
BRANCH   7   6
ATOM      3  C   UNL     1      -1.888  -4.737   0.000  0.00  0.00    +0.139 A 
ATOM      4  C   UNL     1      -1.938  -3.914   0.000  0.00  0.00    +0.038 A 
ATOM      5  C   UNL     1      -1.251  -3.458   0.000  0.00  0.00    +0.020 A 
ATOM      6  C   UNL     1      -0.512  -3.826   0.000  0.00  0.00    +0.075 A 
ATOM     35  C   UNL     1      -0.461  -4.650   0.000  0.00  0.00    +0.020 A 
ATOM     36  C   UNL     1      -1.149  -5.105   0.000  0.00  0.00    +0.038 A 
BRANCH   3   2
ATOM      1  C   UNL     1      -2.525  -6.016   0.000  0.00  0.00    +0.252 C 
ATOM      2  O   UNL     1      -2.575  -5.193   0.000  0.00  0.00    -0.471 OA
ENDBRANCH   3   2
ENDBRANCH   7   6
BRANCH  19  20
ATOM     20  N   UNL     1      -2.066  -1.445   0.000  0.00  0.00    -0.171 NA
ATOM     21  C   UNL     1      -2.707  -0.926   0.000  0.00  0.00    +0.290 C 
ATOM     22  O   UNL     1      -3.478  -1.222   0.000  0.00  0.00    -0.269 OA
BRANCH  21  23
ATOM     23  C   UNL     1      -2.578  -0.111   0.000  0.00  0.00    +0.291 C 
BRANCH  23  24
ATOM     24  O   UNL     1      -3.220   0.408   0.000  0.00  0.00    -0.466 OA
BRANCH  24  25
ATOM     25  C   UNL     1      -3.091   1.223   0.000  0.00  0.00    +0.139 A 
ATOM     26  C   UNL     1      -3.732   1.742   0.000  0.00  0.00    +0.037 A 
ATOM     27  C   UNL     1      -3.603   2.557   0.000  0.00  0.00    +0.003 A 
ATOM     28  C   UNL     1      -2.833   2.852   0.000  0.00  0.00    +0.000 A 
ATOM     29  C   UNL     1      -2.192   2.333   0.000  0.00  0.00    +0.003 A 
ATOM     30  C   UNL     1      -2.321   1.518   0.000  0.00  0.00    +0.037 A 
ENDBRANCH  24  25
ENDBRANCH  23  24
ENDBRANCH  21  23
ENDBRANCH  19  20
TORSDOF 6
