REMARK  Name = 
REMARK  9 active torsions:
REMARK  status: ('A' for Active; 'I' for Inactive)
REMARK    1  A    between atoms: C_2  and  C_3
REMARK    2  A    between atoms: C_3  and  S_4
REMARK    3  A    between atoms: S_4  and  N_7
REMARK    4  A    between atoms: N_7  and  C_8
REMARK    5  A    between atoms: C_8  and  C_9
REMARK    6  A    between atoms: C_16  and  C_17
REMARK    7  A    between atoms: C_19  and  C_24
REMARK    8  A    between atoms: C_27  and  O_28
REMARK    9  A    between atoms: C_30  and  O_31
REMARK                            x       y       z     vdW  Elec       q    Type
REMARK                         _______ _______ _______ _____ _____    ______ ____
ROOT
ATOM     17  C   UNL     1      -0.602  -0.960   0.000  0.00  0.00    +0.063 A 
ATOM     18  C   UNL     1      -1.310  -1.384   0.000  0.00  0.00    +0.034 A 
ATOM     19  C   UNL     1      -2.030  -0.982   0.000  0.00  0.00    +0.084 A 
ATOM     20  N   UNL     1      -2.043  -0.157   0.000  0.00  0.00    -0.231 NA
ATOM     21  C   UNL     1      -1.335   0.266   0.000  0.00  0.00    +0.139 A 
ATOM     22  C   UNL     1      -1.347   1.091   0.000  0.00  0.00    +0.074 C 
ATOM     23  N   UNL     1      -0.614  -0.136   0.000  0.00  0.00    -0.235 NA
ENDROOT
BRANCH  17  16
ATOM      9  C   UNL     1       1.814  -2.106   0.000  0.00  0.00    +0.077 C 
ATOM     10  C   UNL     1       1.661  -1.343   0.000  0.00  0.00    +0.018 C 
ATOM     11  C   UNL     1       0.923  -1.010   0.000  0.00  0.00    +0.010 C 
ATOM     12  C   UNL     1       0.961  -0.114   0.000  0.00  0.00    +0.018 C 
ATOM     13  C   UNL     1       1.205  -0.720   0.000  0.00  0.00    +0.072 C 
ATOM     14  N   UNL     1       1.065  -1.759   0.000  0.00  0.00    -0.272 NA
ATOM     15  C   UNL     1       0.226  -2.118   0.000  0.00  0.00    +0.078 C 
ATOM     16  C   UNL     1       0.119  -1.362   0.000  0.00  0.00    +0.056 C 
BRANCH   9   8
ATOM      8  C   UNL     1       2.324  -2.754   0.000  0.00  0.00    +0.131 C 
BRANCH   8   7
ATOM      7  N   UNL     1       2.018  -3.520   0.000  0.00  0.00    -0.081 NA
BRANCH   7   4
ATOM      4  S   UNL     1       2.529  -4.168   0.000  0.00  0.00    +0.057 S 
ATOM      5  O   UNL     1       3.177  -3.658   0.000  0.00  0.00    -0.156 OA
ATOM      6  O   UNL     1       1.881  -4.678   0.000  0.00  0.00    -0.156 OA
BRANCH   4   3
ATOM      3  C   UNL     1       3.039  -4.816   0.000  0.00  0.00    +0.171 C 
BRANCH   3   2
ATOM      1  C   UNL     1       3.244  -6.230   0.000  0.00  0.00    +0.002 C 
ATOM      2  C   UNL     1       2.733  -5.582   0.000  0.00  0.00    +0.027 C 
ENDBRANCH   3   2
ENDBRANCH   4   3
ENDBRANCH   7   4
ENDBRANCH   8   7
ENDBRANCH   9   8
ENDBRANCH  17  16
BRANCH  19  24
ATOM     24  C   UNL     1      -2.739  -1.405   0.000  0.00  0.00    +0.021 A 
ATOM     25  C   UNL     1      -2.726  -2.230   0.000  0.00  0.00    +0.005 A 
ATOM     26  C   UNL     1      -3.434  -2.653   0.000  0.00  0.00    +0.040 A 
ATOM     27  C   UNL     1      -4.155  -2.251   0.000  0.00  0.00    +0.172 A 
ATOM     30  C   UNL     1      -4.167  -1.427   0.000  0.00  0.00    +0.172 A 
ATOM     33  C   UNL     1      -3.459  -1.003   0.000  0.00  0.00    +0.042 A 
BRANCH  27  28
ATOM     28  O   UNL     1      -4.863  -2.675   0.000  0.00  0.00    -0.468 OA
ATOM     29  C   UNL     1      -5.584  -2.273   0.000  0.00  0.00    +0.253 C 
ENDBRANCH  27  28
BRANCH  30  31
ATOM     31  O   UNL     1      -4.888  -1.025   0.000  0.00  0.00    -0.468 OA
ATOM     32  C   UNL     1      -4.900  -0.200   0.000  0.00  0.00    +0.253 C 
ENDBRANCH  30  31
ENDBRANCH  19  24
TORSDOF 9
