MODEL 1
REMARK VINA RESULT:     -12.2      0.000      0.000
REMARK  Name = 
REMARK  3 active torsions:
REMARK  status: ('A' for Active; 'I' for Inactive)
REMARK    1  A    between atoms: C_7  and  C_9
REMARK    2  A    between atoms: N_12  and  C_13
REMARK    3  A    between atoms: C_13  and  C_14
REMARK                            x       y       z     vdW  Elec       q    Type
REMARK                         _______ _______ _______ _____ _____    ______ ____
ROOT
ATOM      9  C   UNL     1      -4.305   1.006  24.760  0.00  0.00    +0.076 C 
ATOM     10  C   UNL     1      -4.958   1.367  25.111  0.00  0.00    +0.026 C 
ATOM     11  C   UNL     1      -4.876   2.184  25.026  0.00  0.00    +0.073 C 
ATOM     12  N   UNL     1      -4.171   2.327  24.623  0.00  0.00    -0.267 NA
ATOM     20  C   UNL     1      -3.818   1.600  24.458  0.00  0.00    +0.080 C 
ENDROOT
BRANCH   9   7
ATOM      1  F   UNL     1      -3.235  -3.141  25.295  0.00  0.00    -0.204 F 
ATOM      2  C   UNL     1      -3.529  -2.449  24.957  0.00  0.00    +0.142 A 
ATOM      3  C   UNL     1      -3.479  -1.736  25.368  0.00  0.00    +0.050 A 
ATOM      4  C   UNL     1      -3.774  -1.043  25.029  0.00  0.00    +0.102 A 
ATOM      5  C   UNL     1      -4.118  -1.065  24.280  0.00  0.00    +0.100 A 
ATOM      6  N   UNL     1      -4.359  -0.300  24.088  0.00  0.00    -0.229 NA
ATOM      7  C   UNL     1      -4.164   0.195  24.718  0.00  0.00    +0.140 A 
ATOM      8  N   UNL     1      -3.802  -0.265  25.300  0.00  0.00    -0.229 NA
ATOM     21  C   UNL     1      -4.168  -1.779  23.869  0.00  0.00    +0.023 A 
ATOM     22  C   UNL     1      -3.873  -2.471  24.208  0.00  0.00    +0.031 A 
ENDBRANCH   9   7
BRANCH  12  13
ATOM     13  C   UNL     1      -3.871   3.068  24.419  0.00  0.00    +0.119 C 
BRANCH  13  14
ATOM     14  C   UNL     1      -3.264   3.405  24.866  0.00  0.00    +0.075 A 
ATOM     15  N   UNL     1      -2.478   3.317  24.628  0.00  0.00    -0.247 NA
ATOM     16  C   UNL     1      -1.873   3.654  25.076  0.00  0.00    +0.098 A 
ATOM     17  C   UNL     1      -2.051   4.079  25.759  0.00  0.00    +0.021 A 
ATOM     18  C   UNL     1      -2.837   4.167  25.997  0.00  0.00    +0.003 A 
ATOM     19  C   UNL     1      -3.444   3.830  25.550  0.00  0.00    +0.016 A 
ENDBRANCH  13  14
ENDBRANCH  12  13
TORSDOF 3
ENDMDL
MODEL 2
REMARK VINA RESULT:     -11.6      2.114      5.070
REMARK  Name = 
REMARK  3 active torsions:
REMARK  status: ('A' for Active; 'I' for Inactive)
REMARK    1  A    between atoms: C_7  and  C_9
REMARK    2  A    between atoms: N_12  and  C_13
REMARK    3  A    between atoms: C_13  and  C_14
REMARK                            x       y       z     vdW  Elec       q    Type
REMARK                         _______ _______ _______ _____ _____    ______ ____
ROOT
ATOM      9  C   UNL     1      -3.055   1.763  24.325  0.00  0.00    +0.076 C 
ATOM     10  C   UNL     1      -3.151   1.449  23.568  0.00  0.00    +0.026 C 
ATOM     11  C   UNL     1      -3.639   0.787  23.625  0.00  0.00    +0.073 C 
ATOM     12  N   UNL     1      -3.845   0.691  24.418  0.00  0.00    -0.267 NA
ATOM     20  C   UNL     1      -3.484   1.294  24.851  0.00  0.00    +0.080 C 
ENDROOT
BRANCH   9   7
ATOM      1  F   UNL     1      -1.457   5.618  25.429  0.00  0.00    -0.204 F 
ATOM      2  C   UNL     1      -1.497   4.824  25.212  0.00  0.00    +0.142 A 
ATOM      3  C   UNL     1      -2.230   4.466  25.088  0.00  0.00    +0.050 A 
ATOM      4  C   UNL     1      -2.270   3.671  24.871  0.00  0.00    +0.102 A 
ATOM      5  C   UNL     1      -1.577   3.234  24.777  0.00  0.00    +0.100 A 
ATOM      6  N   UNL     1      -1.786   2.466  24.562  0.00  0.00    -0.229 NA
ATOM      7  C   UNL     1      -2.609   2.429  24.522  0.00  0.00    +0.140 A 
ATOM      8  N   UNL     1      -2.907   3.173  24.713  0.00  0.00    -0.229 NA
ATOM     21  C   UNL     1      -0.843   3.592  24.901  0.00  0.00    +0.023 A 
ATOM     22  C   UNL     1      -0.804   4.387  25.118  0.00  0.00    +0.031 A 
ENDBRANCH   9   7
BRANCH  12  13
ATOM     13  C   UNL     1      -4.327   0.096  24.726  0.00  0.00    +0.119 C 
BRANCH  13  14
ATOM     14  C   UNL     1      -4.038  -0.674  24.797  0.00  0.00    +0.075 A 
ATOM     15  N   UNL     1      -3.643  -0.904  25.485  0.00  0.00    -0.247 NA
ATOM     16  C   UNL     1      -3.355  -1.674  25.556  0.00  0.00    +0.098 A 
ATOM     17  C   UNL     1      -3.461  -2.213  24.941  0.00  0.00    +0.021 A 
ATOM     18  C   UNL     1      -3.857  -1.983  24.254  0.00  0.00    +0.003 A 
ATOM     19  C   UNL     1      -4.145  -1.213  24.182  0.00  0.00    +0.016 A 
ENDBRANCH  13  14
ENDBRANCH  12  13
TORSDOF 3
ENDMDL
MODEL 3
REMARK VINA RESULT:     -11.0      1.681      2.354
REMARK  Name = 
REMARK  3 active torsions:
REMARK  status: ('A' for Active; 'I' for Inactive)
REMARK    1  A    between atoms: C_7  and  C_9
REMARK    2  A    between atoms: N_12  and  C_13
REMARK    3  A    between atoms: C_13  and  C_14
REMARK                            x       y       z     vdW  Elec       q    Type
REMARK                         _______ _______ _______ _____ _____    ______ ____
ROOT
ATOM      9  C   UNL     1      -1.590   0.719  24.844  0.00  0.00    +0.076 C 
ATOM     10  C   UNL     1      -0.930   0.885  24.379  0.00  0.00    +0.026 C 
ATOM     11  C   UNL     1      -0.562   1.556  24.687  0.00  0.00    +0.073 C 
ATOM     12  N   UNL     1      -0.995   1.805  25.344  0.00  0.00    -0.267 NA
ATOM     20  C   UNL     1      -1.631   1.287  25.440  0.00  0.00    +0.080 C 
ENDROOT
BRANCH   9   7
ATOM      1  F   UNL     1      -4.797  -1.992  23.844  0.00  0.00    -0.204 F 
ATOM      2  C   UNL     1      -4.091  -1.700  24.154  0.00  0.00    +0.142 A 
ATOM      3  C   UNL     1      -3.885  -0.910  24.037  0.00  0.00    +0.050 A 
ATOM      4  C   UNL     1      -3.178  -0.618  24.347  0.00  0.00    +0.102 A 
ATOM      5  C   UNL     1      -2.678  -1.116  24.773  0.00  0.00    +0.100 A 
ATOM      6  N   UNL     1      -2.022  -0.676  25.011  0.00  0.00    -0.229 NA
ATOM      7  C   UNL     1      -2.117   0.094  24.732  0.00  0.00    +0.140 A 
ATOM      8  N   UNL     1      -2.832   0.130  24.322  0.00  0.00    -0.229 NA
ATOM     21  C   UNL     1      -2.884  -1.907  24.890  0.00  0.00    +0.023 A 
ATOM     22  C   UNL     1      -3.590  -2.198  24.580  0.00  0.00    +0.031 A 
ENDBRANCH   9   7
BRANCH  12  13
ATOM     13  C   UNL     1      -0.824   2.456  25.820  0.00  0.00    +0.119 C 
BRANCH  13  14
ATOM     14  C   UNL     1      -1.127   3.200  25.627  0.00  0.00    +0.075 A 
ATOM     15  N   UNL     1      -1.885   3.413  25.874  0.00  0.00    -0.247 NA
ATOM     16  C   UNL     1      -2.187   4.156  25.681  0.00  0.00    +0.098 A 
ATOM     17  C   UNL     1      -1.732   4.686  25.243  0.00  0.00    +0.021 A 
ATOM     18  C   UNL     1      -0.974   4.472  24.996  0.00  0.00    +0.003 A 
ATOM     19  C   UNL     1      -0.671   3.729  25.189  0.00  0.00    +0.016 A 
ENDBRANCH  13  14
ENDBRANCH  12  13
TORSDOF 3
ENDMDL
