REMARK  Name = 
REMARK  6 active torsions:
REMARK  status: ('A' for Active; 'I' for Inactive)
REMARK    1  A    between atoms: C_2  and  N_4
REMARK    2  A    between atoms: N_7  and  C_8
REMARK    3  A    between atoms: C_8  and  C_9
REMARK    4  A    between atoms: C_12  and  N_13
REMARK    5  A    between atoms: N_13  and  C_14
REMARK    6  A    between atoms: C_14  and  C_15
REMARK                            x       y       z     vdW  Elec       q    Type
REMARK                         _______ _______ _______ _____ _____    ______ ____
ROOT
ATOM      9  C   UNL     1       6.197  -6.842   0.000  0.00  0.00    +0.169 C 
ATOM     10  O   UNL     1       6.284  -6.021   0.000  0.00  0.00    -0.350 OA
ATOM     11  C   UNL     1       7.091  -5.850   0.000  0.00  0.00    +0.162 C 
ATOM     12  C   UNL     1       7.503  -6.564   0.000  0.00  0.00    +0.135 C 
ATOM     22  C   UNL     1       6.951  -7.177   0.000  0.00  0.00    +0.199 C 
ATOM     23  O   UNL     1       7.123  -7.984   0.000  0.00  0.00    -0.219 OA
ENDROOT
BRANCH   9   8
ATOM      8  C   UNL     1       5.483  -7.254   0.000  0.00  0.00    +0.149 C 
BRANCH   8   7
ATOM      4  N   UNL     1       3.340  -6.842   0.000  0.00  0.00    -0.189 NA
ATOM      5  C   UNL     1       4.054  -7.254   0.000  0.00  0.00    +0.339 C 
ATOM      6  O   UNL     1       4.054  -8.079   0.000  0.00  0.00    -0.249 OA
ATOM      7  N   UNL     1       4.769  -6.842   0.000  0.00  0.00    -0.185 NA
BRANCH   4   2
ATOM      1  C   UNL     1       1.911  -6.842   0.000  0.00  0.00    +0.023 C 
ATOM      2  C   UNL     1       2.625  -7.254   0.000  0.00  0.00    +0.097 C 
ATOM      3  C   UNL     1       2.625  -8.079   0.000  0.00  0.00    +0.023 C 
ENDBRANCH   4   2
ENDBRANCH   8   7
ENDBRANCH   9   8
BRANCH  12  13
ATOM     13  N   UNL     1       8.324  -6.650   0.000  0.00  0.00    -0.209 NA
BRANCH  13  14
ATOM     14  C   UNL     1       8.809  -5.983   0.000  0.00  0.00    +0.117 C 
BRANCH  14  15
ATOM     15  C   UNL     1       9.629  -6.069   0.000  0.00  0.00    +0.023 A 
ATOM     16  C   UNL     1      10.114  -5.402   0.000  0.00  0.00    -0.001 A 
ATOM     17  C   UNL     1      10.934  -5.488   0.000  0.00  0.00    -0.000 A 
ATOM     18  C   UNL     1      11.270  -6.242   0.000  0.00  0.00    +0.002 A 
ATOM     19  C   UNL     1      10.785  -6.909   0.000  0.00  0.00    +0.029 A 
ATOM     20  C   UNL     1       9.965  -6.823   0.000  0.00  0.00    +0.137 A 
ATOM     21  F   UNL     1       9.480  -7.490   0.000  0.00  0.00    -0.204 F 
ENDBRANCH  14  15
ENDBRANCH  13  14
ENDBRANCH  12  13
TORSDOF 6
