REMARK  Name = 
REMARK  5 active torsions:
REMARK  status: ('A' for Active; 'I' for Inactive)
REMARK    1  A    between atoms: N_2  and  C_4
REMARK    2  A    between atoms: C_7  and  C_10
REMARK    3  A    between atoms: N_15  and  C_16
REMARK    4  A    between atoms: C_20  and  N_24
REMARK    5  A    between atoms: C_25  and  C_27
REMARK                            x       y       z     vdW  Elec       q    Type
REMARK                         _______ _______ _______ _____ _____    ______ ____
ROOT
ATOM     16  C   UNL     1       6.841   3.527   0.000  0.00  0.00    +0.154 C 
ATOM     17  C   UNL     1       6.754   2.707   0.000  0.00  0.00    +0.166 C 
ATOM     18  O   UNL     1       5.947   2.535   0.000  0.00  0.00    -0.350 OA
ATOM     19  C   UNL     1       5.535   3.250   0.000  0.00  0.00    +0.166 C 
ATOM     20  C   UNL     1       4.781   3.585   0.000  0.00  0.00    +0.155 C 
ATOM     21  C   UNL     1       4.867   4.406   0.000  0.00  0.00    +0.166 C 
ATOM     22  O   UNL     1       5.674   4.577   0.000  0.00  0.00    -0.350 OA
ATOM     23  C   UNL     1       6.087   3.863   0.000  0.00  0.00    +0.166 C 
ENDROOT
BRANCH  16  15
ATOM     10  C   UNL     1       9.698   3.527   0.000  0.00  0.00    +0.086 A 
ATOM     11  C   UNL     1       9.698   2.702   0.000  0.00  0.00    +0.040 A 
ATOM     12  C   UNL     1       8.984   2.290   0.000  0.00  0.00    +0.103 A 
ATOM     13  N   UNL     1       8.270   2.702   0.000  0.00  0.00    -0.211 NA
ATOM     14  C   UNL     1       8.270   3.527   0.000  0.00  0.00    +0.237 A 
ATOM     15  N   UNL     1       7.555   3.940   0.000  0.00  0.00    -0.200 NA
ATOM     36  N   UNL     1       8.984   3.940   0.000  0.00  0.00    -0.212 NA
BRANCH  10   7
ATOM      4  C   UNL     1      11.842   4.765   0.000  0.00  0.00    +0.048 A 
ATOM      5  C   UNL     1      11.842   3.940   0.000  0.00  0.00    +0.015 A 
ATOM      6  C   UNL     1      11.127   3.527   0.000  0.00  0.00    +0.003 A 
ATOM      7  C   UNL     1      10.413   3.940   0.000  0.00  0.00    +0.018 A 
ATOM      8  C   UNL     1      10.413   4.765   0.000  0.00  0.00    +0.003 A 
ATOM      9  C   UNL     1      11.127   5.177   0.000  0.00  0.00    +0.015 A 
BRANCH   4   2
ATOM      1  C   UNL     1      12.556   6.002   0.000  0.00  0.00    +0.112 C 
ATOM      2  N   UNL     1      12.556   5.177   0.000  0.00  0.00    -0.304 N 
ATOM      3  C   UNL     1      13.271   4.765   0.000  0.00  0.00    +0.112 C 
ENDBRANCH   4   2
ENDBRANCH  10   7
ENDBRANCH  16  15
BRANCH  20  24
ATOM     24  N   UNL     1       4.067   3.173   0.000  0.00  0.00    -0.198 NA
ATOM     25  C   UNL     1       4.067   2.348   0.000  0.00  0.00    +0.265 C 
ATOM     26  O   UNL     1       4.781   1.935   0.000  0.00  0.00    -0.268 OA
BRANCH  25  27
ATOM     27  C   UNL     1       3.352   1.935   0.000  0.00  0.00    +0.058 A 
ATOM     28  C   UNL     1       3.352   1.110   0.000  0.00  0.00    +0.008 A 
ATOM     29  C   UNL     1       2.638   0.698   0.000  0.00  0.00    +0.040 A 
ATOM     30  C   UNL     1       1.923   1.110   0.000  0.00  0.00    +0.176 A 
ATOM     31  O   UNL     1       1.139   0.856   0.000  0.00  0.00    -0.435 OA
ATOM     32  C   UNL     1       0.654   1.523   0.000  0.00  0.00    +0.429 C 
ATOM     33  O   UNL     1       1.139   2.190   0.000  0.00  0.00    -0.435 OA
ATOM     34  C   UNL     1       1.923   1.935   0.000  0.00  0.00    +0.177 A 
ATOM     35  C   UNL     1       2.638   2.348   0.000  0.00  0.00    +0.045 A 
ENDBRANCH  25  27
ENDBRANCH  20  24
TORSDOF 5
