MODEL 1
REMARK VINA RESULT:     -13.0      0.000      0.000
REMARK  Name = 
REMARK  3 active torsions:
REMARK  status: ('A' for Active; 'I' for Inactive)
REMARK    1  A    between atoms: C_6  and  C_7
REMARK    2  A    between atoms: C_7  and  N_8
REMARK    3  A    between atoms: C_11  and  C_13
REMARK                            x       y       z     vdW  Elec       q    Type
REMARK                         _______ _______ _______ _____ _____    ______ ____
ROOT
ATOM      8  N   UNL     1      -4.349   2.168  24.634  0.00  0.00    -0.269 NA
ATOM      9  C   UNL     1      -5.013   1.988  25.090  0.00  0.00    +0.073 C 
ATOM     10  C   UNL     1      -5.040   1.168  25.186  0.00  0.00    +0.026 C 
ATOM     11  C   UNL     1      -4.393   0.843  24.790  0.00  0.00    +0.076 C 
ATOM     12  C   UNL     1      -3.966   1.461  24.449  0.00  0.00    +0.080 C 
ENDROOT
BRANCH  11  13
ATOM     13  C   UNL     1      -4.207   0.041  24.743  0.00  0.00    +0.140 A 
ATOM     14  N   UNL     1      -4.416  -0.471  24.131  0.00  0.00    -0.229 NA
ATOM     15  C   UNL     1      -4.117  -1.218  24.311  0.00  0.00    +0.100 A 
ATOM     16  C   UNL     1      -3.722  -1.169  25.033  0.00  0.00    +0.100 A 
ATOM     17  N   UNL     1      -3.777  -0.391  25.301  0.00  0.00    -0.229 NA
ATOM     18  C   UNL     1      -3.363  -1.839  25.354  0.00  0.00    +0.021 A 
ATOM     19  C   UNL     1      -3.399  -2.558  24.952  0.00  0.00    +0.002 A 
ATOM     20  C   UNL     1      -3.794  -2.608  24.230  0.00  0.00    +0.002 A 
ATOM     21  C   UNL     1      -4.153  -1.939  23.908  0.00  0.00    +0.021 A 
ENDBRANCH  11  13
BRANCH   8   7
ATOM      7  C   UNL     1      -4.109   2.923  24.404  0.00  0.00    +0.099 C 
BRANCH   7   6
ATOM      1  F   UNL     1      -1.620   4.416  25.974  0.00  0.00    -0.202 F 
ATOM      2  C   UNL     1      -2.242   4.042  25.581  0.00  0.00    +0.167 A 
ATOM      3  C   UNL     1      -3.001   4.057  25.904  0.00  0.00    +0.167 A 
ATOM      4  F   UNL     1      -3.138   4.445  26.619  0.00  0.00    -0.202 F 
ATOM      5  C   UNL     1      -3.624   3.684  25.512  0.00  0.00    +0.029 A 
ATOM      6  C   UNL     1      -3.487   3.296  24.796  0.00  0.00    -0.004 A 
ATOM     22  C   UNL     1      -2.728   3.281  24.473  0.00  0.00    -0.000 A 
ATOM     23  C   UNL     1      -2.105   3.655  24.866  0.00  0.00    +0.032 A 
ENDBRANCH   7   6
ENDBRANCH   8   7
TORSDOF 3
ENDMDL
MODEL 2
REMARK VINA RESULT:     -12.7      2.458      5.141
REMARK  Name = 
REMARK  3 active torsions:
REMARK  status: ('A' for Active; 'I' for Inactive)
REMARK    1  A    between atoms: C_6  and  C_7
REMARK    2  A    between atoms: C_7  and  N_8
REMARK    3  A    between atoms: C_11  and  C_13
REMARK                            x       y       z     vdW  Elec       q    Type
REMARK                         _______ _______ _______ _____ _____    ______ ____
ROOT
ATOM      8  N   UNL     1      -3.795   0.760  24.414  0.00  0.00    -0.269 NA
ATOM      9  C   UNL     1      -3.513   0.800  23.640  0.00  0.00    +0.073 C 
ATOM     10  C   UNL     1      -3.015   1.457  23.583  0.00  0.00    +0.026 C 
ATOM     11  C   UNL     1      -2.990   1.822  24.323  0.00  0.00    +0.076 C 
ATOM     12  C   UNL     1      -3.472   1.392  24.836  0.00  0.00    +0.080 C 
ENDROOT
BRANCH  11  13
ATOM     13  C   UNL     1      -2.559   2.499  24.515  0.00  0.00    +0.140 A 
ATOM     14  N   UNL     1      -1.751   2.609  24.396  0.00  0.00    -0.229 NA
ATOM     15  C   UNL     1      -1.554   3.362  24.667  0.00  0.00    +0.100 A 
ATOM     16  C   UNL     1      -2.240   3.718  24.954  0.00  0.00    +0.100 A 
ATOM     17  N   UNL     1      -2.862   3.185  24.860  0.00  0.00    -0.229 NA
ATOM     18  C   UNL     1      -2.210   4.482  25.264  0.00  0.00    +0.021 A 
ATOM     19  C   UNL     1      -1.494   4.890  25.286  0.00  0.00    +0.002 A 
ATOM     20  C   UNL     1      -0.807   4.535  24.999  0.00  0.00    +0.002 A 
ATOM     21  C   UNL     1      -0.836   3.771  24.689  0.00  0.00    +0.021 A 
ENDBRANCH  11  13
BRANCH   8   7
ATOM      7  C   UNL     1      -4.309   0.189  24.714  0.00  0.00    +0.099 C 
BRANCH   7   6
ATOM      1  F   UNL     1      -3.288  -2.928  25.073  0.00  0.00    -0.202 F 
ATOM      2  C   UNL     1      -3.543  -2.148  24.984  0.00  0.00    +0.167 A 
ATOM      3  C   UNL     1      -3.942  -1.921  24.298  0.00  0.00    +0.167 A 
ATOM      4  F   UNL     1      -4.086  -2.474  23.702  0.00  0.00    -0.202 F 
ATOM      5  C   UNL     1      -4.197  -1.142  24.208  0.00  0.00    +0.029 A 
ATOM      6  C   UNL     1      -4.053  -0.590  24.804  0.00  0.00    -0.004 A 
ATOM     22  C   UNL     1      -3.655  -0.817  25.490  0.00  0.00    -0.000 A 
ATOM     23  C   UNL     1      -3.399  -1.597  25.579  0.00  0.00    +0.032 A 
ENDBRANCH   7   6
ENDBRANCH   8   7
TORSDOF 3
ENDMDL
MODEL 3
REMARK VINA RESULT:     -12.0      1.708      2.368
REMARK  Name = 
REMARK  3 active torsions:
REMARK  status: ('A' for Active; 'I' for Inactive)
REMARK    1  A    between atoms: C_6  and  C_7
REMARK    2  A    between atoms: C_7  and  N_8
REMARK    3  A    between atoms: C_11  and  C_13
REMARK                            x       y       z     vdW  Elec       q    Type
REMARK                         _______ _______ _______ _____ _____    ______ ____
ROOT
ATOM      8  N   UNL     1      -1.063   1.869  25.266  0.00  0.00    -0.269 NA
ATOM      9  C   UNL     1      -0.667   1.655  24.575  0.00  0.00    +0.073 C 
ATOM     10  C   UNL     1      -1.054   1.003  24.250  0.00  0.00    +0.026 C 
ATOM     11  C   UNL     1      -1.690   0.814  24.741  0.00  0.00    +0.076 C 
ATOM     12  C   UNL     1      -1.695   1.349  25.369  0.00  0.00    +0.080 C 
ENDROOT
BRANCH  11  13
ATOM     13  C   UNL     1      -2.226   0.197  24.625  0.00  0.00    +0.140 A 
ATOM     14  N   UNL     1      -2.972   0.263  24.279  0.00  0.00    -0.229 NA
ATOM     15  C   UNL     1      -3.317  -0.486  24.274  0.00  0.00    +0.100 A 
ATOM     16  C   UNL     1      -2.784  -1.015  24.616  0.00  0.00    +0.100 A 
ATOM     17  N   UNL     1      -2.110  -0.593  24.833  0.00  0.00    -0.229 NA
ATOM     18  C   UNL     1      -2.982  -1.813  24.686  0.00  0.00    +0.021 A 
ATOM     19  C   UNL     1      -3.712  -2.082  24.414  0.00  0.00    +0.002 A 
ATOM     20  C   UNL     1      -4.245  -1.554  24.072  0.00  0.00    +0.002 A 
ATOM     21  C   UNL     1      -4.048  -0.756  24.002  0.00  0.00    +0.021 A 
ENDBRANCH  11  13
BRANCH   8   7
ATOM      7  C   UNL     1      -0.863   2.493  25.767  0.00  0.00    +0.099 C 
BRANCH   7   6
ATOM      1  F   UNL     1      -1.886   5.554  25.082  0.00  0.00    -0.202 F 
ATOM      2  C   UNL     1      -1.630   4.788  25.254  0.00  0.00    +0.167 A 
ATOM      3  C   UNL     1      -0.891   4.533  24.992  0.00  0.00    +0.167 A 
ATOM      4  F   UNL     1      -0.408   5.042  24.558  0.00  0.00    -0.202 F 
ATOM      5  C   UNL     1      -0.635   3.767  25.163  0.00  0.00    +0.029 A 
ATOM      6  C   UNL     1      -1.119   3.258  25.596  0.00  0.00    -0.004 A 
ATOM     22  C   UNL     1      -1.858   3.514  25.858  0.00  0.00    -0.000 A 
ATOM     23  C   UNL     1      -2.113   4.280  25.687  0.00  0.00    +0.032 A 
ENDBRANCH   7   6
ENDBRANCH   8   7
TORSDOF 3
ENDMDL
MODEL 4
REMARK VINA RESULT:     -11.5      2.766      5.430
REMARK  Name = 
REMARK  3 active torsions:
REMARK  status: ('A' for Active; 'I' for Inactive)
REMARK    1  A    between atoms: C_6  and  C_7
REMARK    2  A    between atoms: C_7  and  N_8
REMARK    3  A    between atoms: C_11  and  C_13
REMARK                            x       y       z     vdW  Elec       q    Type
REMARK                         _______ _______ _______ _____ _____    ______ ____
ROOT
ATOM      8  N   UNL     1      -1.059   0.037  25.115  0.00  0.00    -0.269 NA
ATOM      9  C   UNL     1      -0.714   0.149  24.374  0.00  0.00    +0.073 C 
ATOM     10  C   UNL     1      -0.704   0.960  24.218  0.00  0.00    +0.026 C 
ATOM     11  C   UNL     1      -1.043   1.348  24.864  0.00  0.00    +0.076 C 
ATOM     12  C   UNL     1      -1.262   0.777  25.417  0.00  0.00    +0.080 C 
ENDROOT
BRANCH  11  13
ATOM     13  C   UNL     1      -1.144   2.163  24.941  0.00  0.00    +0.140 A 
ATOM     14  N   UNL     1      -1.819   2.543  25.222  0.00  0.00    -0.229 NA
ATOM     15  C   UNL     1      -1.680   3.356  25.205  0.00  0.00    +0.100 A 
ATOM     16  C   UNL     1      -0.918   3.478  24.913  0.00  0.00    +0.100 A 
ATOM     17  N   UNL     1      -0.586   2.741  24.750  0.00  0.00    -0.229 NA
ATOM     18  C   UNL     1      -0.625   4.245  24.834  0.00  0.00    +0.021 A 
ATOM     19  C   UNL     1      -1.093   4.890  25.047  0.00  0.00    +0.002 A 
ATOM     20  C   UNL     1      -1.855   4.768  25.339  0.00  0.00    +0.002 A 
ATOM     21  C   UNL     1      -2.149   4.001  25.418  0.00  0.00    +0.021 A 
ENDBRANCH  11  13
BRANCH   8   7
ATOM      7  C   UNL     1      -1.180  -0.689  25.488  0.00  0.00    +0.099 C 
BRANCH   7   6
ATOM      1  F   UNL     1      -3.859  -2.482  24.784  0.00  0.00    -0.202 F 
ATOM      2  C   UNL     1      -3.189  -2.034  24.960  0.00  0.00    +0.167 A 
ATOM      3  C   UNL     1      -3.234  -1.426  25.516  0.00  0.00    +0.167 A 
ATOM      4  F   UNL     1      -3.949  -1.267  25.896  0.00  0.00    -0.202 F 
ATOM      5  C   UNL     1      -2.564  -0.978  25.692  0.00  0.00    +0.029 A 
ATOM      6  C   UNL     1      -1.850  -1.137  25.312  0.00  0.00    -0.004 A 
ATOM     22  C   UNL     1      -1.805  -1.745  24.756  0.00  0.00    -0.000 A 
ATOM     23  C   UNL     1      -2.475  -2.193  24.580  0.00  0.00    +0.032 A 
ENDBRANCH   7   6
ENDBRANCH   8   7
TORSDOF 3
ENDMDL
