REMARK  Name = 
REMARK  7 active torsions:
REMARK  status: ('A' for Active; 'I' for Inactive)
REMARK    1  A    between atoms: O_2  and  C_3
REMARK    2  A    between atoms: C_4  and  O_5
REMARK    3  A    between atoms: C_7  and  O_8
REMARK    4  A    between atoms: C_10  and  C_11
REMARK    5  A    between atoms: C_11  and  N_12
REMARK    6  A    between atoms: C_17  and  C_18
REMARK    7  A    between atoms: C_20  and  C_23
REMARK                            x       y       z     vdW  Elec       q    Type
REMARK                         _______ _______ _______ _____ _____    ______ ____
ROOT
ATOM     12  N   UNL     1      -0.596  -3.041   0.000  0.00  0.00    -0.260 NA
ATOM     13  C   UNL     1       0.072  -3.525   0.000  0.00  0.00    +0.106 C 
ATOM     14  C   UNL     1      -0.183  -4.310   0.000  0.00  0.00    +0.170 C 
ATOM     15  O   UNL     1       0.302  -4.977   0.000  0.00  0.00    -0.222 OA
ATOM     16  C   UNL     1      -1.008  -4.310   0.000  0.00  0.00    +0.060 C 
ATOM     17  C   UNL     1      -1.263  -3.525   0.000  0.00  0.00    +0.140 C 
ENDROOT
BRANCH  17  18
ATOM     18  C   UNL     1      -2.047  -3.270   0.000  0.00  0.00    +0.251 A 
ATOM     19  N   UNL     1      -2.715  -3.755   0.000  0.00  0.00    -0.190 NA
ATOM     20  C   UNL     1      -3.382  -3.270   0.000  0.00  0.00    +0.203 A 
ATOM     21  N   UNL     1      -3.127  -2.486   0.000  0.00  0.00    -0.056 NA
ATOM     22  O   UNL     1      -2.303  -2.486   0.000  0.00  0.00    -0.336 OA
BRANCH  20  23
ATOM     23  C   UNL     1      -4.167  -3.525   0.000  0.00  0.00    +0.039 A 
ATOM     24  C   UNL     1      -4.338  -4.332   0.000  0.00  0.00    +0.003 A 
ATOM     25  C   UNL     1      -5.123  -4.587   0.000  0.00  0.00    -0.000 A 
ATOM     26  C   UNL     1      -5.736  -4.035   0.000  0.00  0.00    -0.004 A 
ATOM     27  C   UNL     1      -5.565  -3.228   0.000  0.00  0.00    -0.022 A 
ATOM     28  C   UNL     1      -6.178  -2.676   0.000  0.00  0.00    +0.031 C 
ATOM     29  C   UNL     1      -4.780  -2.973   0.000  0.00  0.00    -0.001 A 
ENDBRANCH  20  23
ENDBRANCH  17  18
BRANCH  12  11
ATOM     11  C   UNL     1      -0.596  -2.216   0.000  0.00  0.00    +0.103 C 
BRANCH  11  10
ATOM      3  C   UNL     1       1.548  -0.978   0.000  0.00  0.00    +0.175 A 
ATOM      4  C   UNL     1       1.548  -1.803   0.000  0.00  0.00    +0.206 A 
ATOM      7  C   UNL     1       0.834  -2.216   0.000  0.00  0.00    +0.173 A 
ATOM     10  C   UNL     1       0.119  -1.803   0.000  0.00  0.00    +0.031 A 
ATOM     30  C   UNL     1       0.119  -0.978   0.000  0.00  0.00    +0.003 A 
ATOM     31  C   UNL     1       0.834  -0.566   0.000  0.00  0.00    +0.040 A 
BRANCH   3   2
ATOM      1  C   UNL     1       2.262   0.260   0.000  0.00  0.00    +0.253 C 
ATOM      2  O   UNL     1       2.262  -0.566   0.000  0.00  0.00    -0.468 OA
ENDBRANCH   3   2
BRANCH   4   5
ATOM      5  O   UNL     1       2.262  -2.216   0.000  0.00  0.00    -0.465 OA
ATOM      6  C   UNL     1       2.262  -3.041   0.000  0.00  0.00    +0.253 C 
ENDBRANCH   4   5
BRANCH   7   8
ATOM      8  O   UNL     1       0.834  -3.041   0.000  0.00  0.00    -0.469 OA
ATOM      9  C   UNL     1       1.548  -3.453   0.000  0.00  0.00    +0.253 C 
ENDBRANCH   7   8
ENDBRANCH  11  10
ENDBRANCH  12  11
TORSDOF 7
