REMARK  Name = 
REMARK  10 active torsions:
REMARK  status: ('A' for Active; 'I' for Inactive)
REMARK    1  A    between atoms: O_2  and  C_3
REMARK    2  A    between atoms: C_3  and  C_4
REMARK    3  A    between atoms: N_6  and  C_7
REMARK    4  A    between atoms: C_11  and  C_13
REMARK    5  A    between atoms: N_15  and  C_16
REMARK    6  A    between atoms: C_16  and  C_17
REMARK    7  A    between atoms: C_16  and  C_23
REMARK    8  A    between atoms: C_17  and  C_18
REMARK    9  A    between atoms: C_26  and  C_28
REMARK   10  A    between atoms: C_28  and  O_29
REMARK                            x       y       z     vdW  Elec       q    Type
REMARK                         _______ _______ _______ _____ _____    ______ ____
ROOT
ATOM      7  C   UNL     1       0.715  -0.412   0.000  0.00  0.00    +0.099 C 
ATOM      8  C   UNL     1       0.000   0.000   0.000  0.00  0.00    +0.043 C 
ATOM      9  C   UNL     1       0.000   0.825   0.000  0.00  0.00    +0.096 C 
ATOM     10  N   UNL     1       0.715   1.238   0.000  0.00  0.00    -0.271 N 
ATOM     11  C   UNL     1       1.429   0.825   0.000  0.00  0.00    +0.155 C 
ATOM     12  C   UNL     1       1.429   0.000   0.000  0.00  0.00    +0.051 C 
ATOM     26  C   UNL     1       0.715   2.062   0.000  0.00  0.00    +0.256 C 
ATOM     27  O   UNL     1       1.429   2.475   0.000  0.00  0.00    -0.272 OA
ENDROOT
BRANCH   7   6
ATOM      4  C   UNL     1       0.000  -1.650   0.000  0.00  0.00    +0.272 C 
ATOM      5  O   UNL     1      -0.715  -1.238   0.000  0.00  0.00    -0.271 OA
ATOM      6  N   UNL     1       0.715  -1.238   0.000  0.00  0.00    -0.205 NA
BRANCH   4   3
ATOM      3  C   UNL     1       0.000  -2.475   0.000  0.00  0.00    +0.229 C 
BRANCH   3   2
ATOM      1  C   UNL     1      -0.715  -3.712   0.000  0.00  0.00    +0.175 C 
ATOM      2  O   UNL     1      -0.715  -2.888   0.000  0.00  0.00    -0.342 OA
ENDBRANCH   3   2
ENDBRANCH   4   3
ENDBRANCH   7   6
BRANCH  11  13
ATOM     13  C   UNL     1       2.143   1.238   0.000  0.00  0.00    +0.260 C 
ATOM     14  O   UNL     1       2.858   0.825   0.000  0.00  0.00    -0.272 OA
ATOM     15  N   UNL     1       2.143   2.062   0.000  0.00  0.00    -0.196 NA
BRANCH  15  16
ATOM     16  C   UNL     1       2.858   2.475   0.000  0.00  0.00    +0.179 C 
BRANCH  16  23
ATOM     23  C   UNL     1       3.572   2.062   0.000  0.00  0.00    +0.281 C 
ATOM     24  N   UNL     1       4.287   2.475   0.000  0.00  0.00    -0.086 NA
ATOM     25  O   UNL     1       3.572   1.238   0.000  0.00  0.00    -0.270 OA
ENDBRANCH  16  23
BRANCH  16  17
ATOM     17  C   UNL     1       2.858   3.300   0.000  0.00  0.00    +0.064 C 
BRANCH  17  18
ATOM     18  C   UNL     1       3.572   3.712   0.000  0.00  0.00    +0.010 A 
ATOM     19  C   UNL     1       3.659   4.533   0.000  0.00  0.00    +0.003 A 
ATOM     20  C   UNL     1       4.466   4.705   0.000  0.00  0.00    +0.007 A 
ATOM     21  C   UNL     1       4.878   3.990   0.000  0.00  0.00    +0.035 A 
ATOM     22  S   UNL     1       4.326   3.377   0.000  0.00  0.00    -0.091 S 
ENDBRANCH  17  18
ENDBRANCH  16  17
ENDBRANCH  15  16
ENDBRANCH  11  13
BRANCH  26  28
ATOM     28  C   UNL     1       0.000   2.475   0.000  0.00  0.00    +0.227 C 
BRANCH  28  29
ATOM     29  O   UNL     1      -0.715   2.062   0.000  0.00  0.00    -0.342 OA
ATOM     30  C   UNL     1      -1.429   2.475   0.000  0.00  0.00    +0.175 C 
ENDBRANCH  28  29
ENDBRANCH  26  28
TORSDOF 10
