REMARK  Name = 
REMARK  4 active torsions:
REMARK  status: ('A' for Active; 'I' for Inactive)
REMARK    1  A    between atoms: C_5  and  N_6
REMARK    2  A    between atoms: C_18  and  N_19
REMARK    3  A    between atoms: C_20  and  C_22
REMARK    4  A    between atoms: C_22  and  C_23
REMARK                            x       y       z     vdW  Elec       q    Type
REMARK                         _______ _______ _______ _____ _____    ______ ____
ROOT
ATOM      6  N   UNL     1      -0.614  -2.179   0.000  0.00  0.00    -0.162 NA
ATOM      7  C   UNL     1       0.125  -2.547   0.000  0.00  0.00    +0.327 C 
ATOM      8  O   UNL     1       0.176  -3.370   0.000  0.00  0.00    -0.250 OA
ATOM      9  N   UNL     1       0.813  -2.091   0.000  0.00  0.00    -0.262 N 
ATOM     10  C   UNL     1       1.629  -1.912   0.000  0.00  0.00    +0.097 C 
ATOM     11  C   UNL     1       1.582  -0.925   0.000  0.00  0.00    +0.043 C 
ATOM     12  C   UNL     1       1.713  -0.121   0.000  0.00  0.00    +0.011 C 
ATOM     13  C   UNL     1       1.163  -0.557   0.000  0.00  0.00    +0.058 C 
ATOM     14  C   UNL     1       1.225  -1.510   0.000  0.00  0.00    +0.101 C 
ATOM     15  C   UNL     1       0.244  -0.558   0.000  0.00  0.00    +0.041 A 
ATOM     16  C   UNL     1      -0.397  -0.039   0.000  0.00  0.00    +0.014 A 
ATOM     17  C   UNL     1      -1.167  -0.335   0.000  0.00  0.00    +0.023 A 
ATOM     18  C   UNL     1      -1.296  -1.150   0.000  0.00  0.00    +0.129 A 
ATOM     29  C   UNL     1      -0.655  -1.669   0.000  0.00  0.00    +0.276 A 
ATOM     30  O   UNL     1      -1.238  -2.252   0.000  0.00  0.00    -0.266 OA
ATOM     31  N   UNL     1       0.115  -1.373   0.000  0.00  0.00    -0.298 N 
ATOM     32  C   UNL     1       0.622  -0.936   0.000  0.00  0.00    +0.110 C 
ENDROOT
BRANCH   6   5
ATOM      1  F   UNL     1      -3.365  -4.002   0.000  0.00  0.00    -0.204 F 
ATOM      2  C   UNL     1      -2.677  -3.546   0.000  0.00  0.00    +0.140 A 
ATOM      3  C   UNL     1      -2.728  -2.723   0.000  0.00  0.00    +0.031 A 
ATOM      4  C   UNL     1      -2.040  -2.267   0.000  0.00  0.00    +0.019 A 
ATOM      5  C   UNL     1      -1.301  -2.635   0.000  0.00  0.00    +0.075 A 
ATOM     33  C   UNL     1      -1.251  -3.458   0.000  0.00  0.00    +0.019 A 
ATOM     34  C   UNL     1      -1.938  -3.914   0.000  0.00  0.00    +0.031 A 
ENDBRANCH   6   5
BRANCH  18  19
ATOM     19  N   UNL     1      -2.066  -1.445   0.000  0.00  0.00    -0.174 NA
ATOM     20  C   UNL     1      -2.707  -0.926   0.000  0.00  0.00    +0.250 C 
ATOM     21  O   UNL     1      -2.578  -0.111   0.000  0.00  0.00    -0.273 OA
BRANCH  20  22
ATOM     22  C   UNL     1      -3.478  -1.222   0.000  0.00  0.00    +0.113 C 
BRANCH  22  23
ATOM     23  C   UNL     1      -4.119  -0.703   0.000  0.00  0.00    -0.013 A 
ATOM     24  C   UNL     1      -4.889  -0.999   0.000  0.00  0.00    -0.004 A 
ATOM     25  C   UNL     1      -5.530  -0.480   0.000  0.00  0.00    -0.000 A 
ATOM     26  C   UNL     1      -5.401   0.335   0.000  0.00  0.00    -0.000 A 
ATOM     27  C   UNL     1      -4.631   0.631   0.000  0.00  0.00    -0.000 A 
ATOM     28  C   UNL     1      -3.990   0.112   0.000  0.00  0.00    -0.004 A 
ENDBRANCH  22  23
ENDBRANCH  20  22
ENDBRANCH  18  19
TORSDOF 4
