MODEL 1
REMARK VINA RESULT:     -11.8      0.000      0.000
REMARK  Name = 
REMARK  4 active torsions:
REMARK  status: ('A' for Active; 'I' for Inactive)
REMARK    1  A    between atoms: N_7  and  C_10
REMARK    2  A    between atoms: C_16  and  N_17
REMARK    3  A    between atoms: N_17  and  C_18
REMARK    4  A    between atoms: C_18  and  C_19
REMARK                            x       y       z     vdW  Elec       q    Type
REMARK                         _______ _______ _______ _____ _____    ______ ____
ROOT
ATOM     10  C   UNL     1      -3.564   0.851  24.748  0.00  0.00    +0.147 C 
ATOM     11  C   UNL     1      -4.479   0.530  24.814  0.00  0.00    +0.253 C 
ATOM     12  O   UNL     1      -4.734  -0.315  24.827  0.00  0.00    -0.327 OA
ATOM     13  C   UNL     1      -4.274   0.247  24.797  0.00  0.00    +0.176 C 
ATOM     14  C   UNL     1      -4.205   1.021  24.797  0.00  0.00    +0.166 C 
ATOM     15  O   UNL     1      -4.878   1.252  24.849  0.00  0.00    -0.328 OA
ATOM     16  C   UNL     1      -3.336   1.342  24.735  0.00  0.00    +0.135 C 
ATOM     28  C   UNL     1      -2.937   0.617  24.700  0.00  0.00    +0.190 C 
ATOM     29  O   UNL     1      -2.315   0.078  24.650  0.00  0.00    -0.220 OA
ENDROOT
BRANCH  10   7
ATOM      1  C   UNL     1      -3.721  -2.855  24.018  0.00  0.00    +0.095 C 
ATOM      2  C   UNL     1      -3.600  -2.449  24.726  0.00  0.00    +0.226 C 
ATOM      3  O   UNL     1      -3.488  -2.868  25.428  0.00  0.00    -0.275 OA
ATOM      4  N   UNL     1      -3.591  -1.624  24.731  0.00  0.00    -0.277 N 
ATOM      5  C   UNL     1      -3.470  -1.218  25.439  0.00  0.00    +0.111 C 
ATOM      6  C   UNL     1      -3.461  -0.393  25.445  0.00  0.00    +0.094 C 
ATOM      7  N   UNL     1      -3.573   0.026  24.743  0.00  0.00    -0.265 NA
ATOM      8  C   UNL     1      -3.694  -0.381  24.036  0.00  0.00    +0.094 C 
ATOM      9  C   UNL     1      -3.703  -1.205  24.029  0.00  0.00    +0.111 C 
ENDBRANCH  10   7
BRANCH  16  17
ATOM     17  N   UNL     1      -3.049   2.116  24.719  0.00  0.00    -0.209 NA
BRANCH  17  18
ATOM     18  C   UNL     1      -2.561   2.386  25.327  0.00  0.00    +0.115 C 
BRANCH  18  19
ATOM     19  C   UNL     1      -2.286   3.165  25.319  0.00  0.00    -0.002 A 
ATOM     20  C   UNL     1      -2.721   3.760  25.690  0.00  0.00    +0.000 A 
ATOM     21  C   UNL     1      -2.447   4.537  25.682  0.00  0.00    +0.040 A 
ATOM     22  C   UNL     1      -1.736   4.721  25.304  0.00  0.00    +0.176 A 
ATOM     23  O   UNL     1      -1.330   5.432  25.206  0.00  0.00    -0.435 OA
ATOM     24  C   UNL     1      -0.644   5.277  24.776  0.00  0.00    +0.429 C 
ATOM     25  O   UNL     1      -0.626   4.469  24.607  0.00  0.00    -0.435 OA
ATOM     26  C   UNL     1      -1.301   4.125  24.933  0.00  0.00    +0.176 A 
ATOM     27  C   UNL     1      -1.576   3.347  24.941  0.00  0.00    +0.037 A 
ENDBRANCH  18  19
ENDBRANCH  17  18
ENDBRANCH  16  17
TORSDOF 4
ENDMDL
MODEL 2
REMARK VINA RESULT:     -11.7      1.142      5.208
REMARK  Name = 
REMARK  4 active torsions:
REMARK  status: ('A' for Active; 'I' for Inactive)
REMARK    1  A    between atoms: N_7  and  C_10
REMARK    2  A    between atoms: C_16  and  N_17
REMARK    3  A    between atoms: N_17  and  C_18
REMARK    4  A    between atoms: C_18  and  C_19
REMARK                            x       y       z     vdW  Elec       q    Type
REMARK                         _______ _______ _______ _____ _____    ______ ____
ROOT
ATOM     10  C   UNL     1      -3.492   2.010  24.338  0.00  0.00    +0.147 C 
ATOM     11  C   UNL     1      -4.019   2.805  24.147  0.00  0.00    +0.253 C 
ATOM     12  O   UNL     1      -3.797   3.636  24.344  0.00  0.00    -0.327 OA
ATOM     13  C   UNL     1      -3.727   2.914  24.307  0.00  0.00    +0.176 C 
ATOM     14  C   UNL     1      -4.054   2.248  24.073  0.00  0.00    +0.166 C 
ATOM     15  O   UNL     1      -4.669   2.456  23.777  0.00  0.00    -0.328 OA
ATOM     16  C   UNL     1      -3.562   1.481  24.249  0.00  0.00    +0.135 C 
ATOM     28  C   UNL     1      -2.910   1.833  24.620  0.00  0.00    +0.190 C 
ATOM     29  O   UNL     1      -2.182   1.904  25.002  0.00  0.00    -0.220 OA
ENDROOT
BRANCH  10   7
ATOM      1  C   UNL     1      -1.286   5.012  24.981  0.00  0.00    +0.095 C 
ATOM      2  C   UNL     1      -1.907   4.695  25.420  0.00  0.00    +0.226 C 
ATOM      3  O   UNL     1      -2.133   5.050  26.131  0.00  0.00    -0.275 OA
ATOM      4  N   UNL     1      -2.303   4.024  25.150  0.00  0.00    -0.277 N 
ATOM      5  C   UNL     1      -2.925   3.707  25.589  0.00  0.00    +0.111 C 
ATOM      6  C   UNL     1      -3.322   3.036  25.319  0.00  0.00    +0.094 C 
ATOM      7  N   UNL     1      -3.096   2.682  24.609  0.00  0.00    -0.265 NA
ATOM      8  C   UNL     1      -2.474   2.999  24.170  0.00  0.00    +0.094 C 
ATOM      9  C   UNL     1      -2.078   3.670  24.439  0.00  0.00    +0.111 C 
ENDBRANCH  10   7
BRANCH  16  17
ATOM     17  N   UNL     1      -3.725   0.688  24.087  0.00  0.00    -0.209 NA
BRANCH  17  18
ATOM     18  C   UNL     1      -3.906   0.170  24.702  0.00  0.00    +0.115 C 
BRANCH  18  19
ATOM     19  C   UNL     1      -3.906  -0.645  24.568  0.00  0.00    -0.002 A 
ATOM     20  C   UNL     1      -4.308  -0.956  23.918  0.00  0.00    +0.000 A 
ATOM     21  C   UNL     1      -4.308  -1.770  23.785  0.00  0.00    +0.040 A 
ATOM     22  C   UNL     1      -3.906  -2.273  24.302  0.00  0.00    +0.176 A 
ATOM     23  O   UNL     1      -3.810  -3.092  24.311  0.00  0.00    -0.435 OA
ATOM     24  C   UNL     1      -3.349  -3.287  24.967  0.00  0.00    +0.429 C 
ATOM     25  O   UNL     1      -3.160  -2.587  25.363  0.00  0.00    -0.435 OA
ATOM     26  C   UNL     1      -3.505  -1.961  24.952  0.00  0.00    +0.176 A 
ATOM     27  C   UNL     1      -3.505  -1.147  25.085  0.00  0.00    +0.037 A 
ENDBRANCH  18  19
ENDBRANCH  17  18
ENDBRANCH  16  17
TORSDOF 4
ENDMDL
MODEL 3
REMARK VINA RESULT:     -11.3      1.286      5.436
REMARK  Name = 
REMARK  4 active torsions:
REMARK  status: ('A' for Active; 'I' for Inactive)
REMARK    1  A    between atoms: N_7  and  C_10
REMARK    2  A    between atoms: C_16  and  N_17
REMARK    3  A    between atoms: N_17  and  C_18
REMARK    4  A    between atoms: C_18  and  C_19
REMARK                            x       y       z     vdW  Elec       q    Type
REMARK                         _______ _______ _______ _____ _____    ______ ____
ROOT
ATOM     10  C   UNL     1      -1.673   1.638  24.992  0.00  0.00    +0.147 C 
ATOM     11  C   UNL     1      -0.973   1.867  25.628  0.00  0.00    +0.253 C 
ATOM     12  O   UNL     1      -0.683   2.680  25.810  0.00  0.00    -0.327 OA
ATOM     13  C   UNL     1      -1.085   2.168  25.488  0.00  0.00    +0.176 C 
ATOM     14  C   UNL     1      -1.233   1.407  25.435  0.00  0.00    +0.166 C 
ATOM     15  O   UNL     1      -0.778   1.112  25.899  0.00  0.00    -0.328 OA
ATOM     16  C   UNL     1      -1.899   1.173  24.831  0.00  0.00    +0.135 C 
ATOM     28  C   UNL     1      -2.094   1.932  24.560  0.00  0.00    +0.190 C 
ATOM     29  O   UNL     1      -2.473   2.527  24.133  0.00  0.00    -0.220 OA
ENDROOT
BRANCH  10   7
ATOM      1  C   UNL     1      -0.641   5.251  24.571  0.00  0.00    +0.095 C 
ATOM      2  C   UNL     1      -1.226   4.908  25.040  0.00  0.00    +0.226 C 
ATOM      3  O   UNL     1      -1.700   5.382  25.521  0.00  0.00    -0.275 OA
ATOM      4  N   UNL     1      -1.338   4.090  25.028  0.00  0.00    -0.277 N 
ATOM      5  C   UNL     1      -1.923   3.747  25.497  0.00  0.00    +0.111 C 
ATOM      6  C   UNL     1      -2.035   2.930  25.485  0.00  0.00    +0.094 C 
ATOM      7  N   UNL     1      -1.561   2.455  25.004  0.00  0.00    -0.265 NA
ATOM      8  C   UNL     1      -0.976   2.799  24.535  0.00  0.00    +0.094 C 
ATOM      9  C   UNL     1      -0.864   3.616  24.547  0.00  0.00    +0.111 C 
ENDBRANCH  10   7
BRANCH  16  17
ATOM     17  N   UNL     1      -2.204   0.434  24.627  0.00  0.00    -0.209 NA
BRANCH  17  18
ATOM     18  C   UNL     1      -2.952   0.210  24.891  0.00  0.00    +0.115 C 
BRANCH  18  19
ATOM     19  C   UNL     1      -3.275  -0.511  24.652  0.00  0.00    -0.002 A 
ATOM     20  C   UNL     1      -3.886  -0.525  24.098  0.00  0.00    +0.000 A 
ATOM     21  C   UNL     1      -4.209  -1.245  23.858  0.00  0.00    +0.040 A 
ATOM     22  C   UNL     1      -3.921  -1.952  24.173  0.00  0.00    +0.176 A 
ATOM     23  O   UNL     1      -4.130  -2.740  24.043  0.00  0.00    -0.435 OA
ATOM     24  C   UNL     1      -3.647  -3.212  24.516  0.00  0.00    +0.429 C 
ATOM     25  O   UNL     1      -3.141  -2.716  24.939  0.00  0.00    -0.435 OA
ATOM     26  C   UNL     1      -3.310  -1.937  24.727  0.00  0.00    +0.176 A 
ATOM     27  C   UNL     1      -2.987  -1.217  24.966  0.00  0.00    +0.037 A 
ENDBRANCH  18  19
ENDBRANCH  17  18
ENDBRANCH  16  17
TORSDOF 4
ENDMDL
MODEL 4
REMARK VINA RESULT:     -10.6      1.007      1.602
REMARK  Name = 
REMARK  4 active torsions:
REMARK  status: ('A' for Active; 'I' for Inactive)
REMARK    1  A    between atoms: N_7  and  C_10
REMARK    2  A    between atoms: C_16  and  N_17
REMARK    3  A    between atoms: N_17  and  C_18
REMARK    4  A    between atoms: C_18  and  C_19
REMARK                            x       y       z     vdW  Elec       q    Type
REMARK                         _______ _______ _______ _____ _____    ______ ____
ROOT
ATOM     10  C   UNL     1      -1.928   0.355  25.009  0.00  0.00    +0.147 C 
ATOM     11  C   UNL     1      -1.313  -0.345  24.731  0.00  0.00    +0.253 C 
ATOM     12  O   UNL     1      -1.519  -1.191  24.588  0.00  0.00    -0.327 OA
ATOM     13  C   UNL     1      -1.628  -0.494  24.762  0.00  0.00    +0.176 C 
ATOM     14  C   UNL     1      -1.300   0.205  24.848  0.00  0.00    +0.166 C 
ATOM     15  O   UNL     1      -0.615   0.093  24.684  0.00  0.00    -0.328 OA
ATOM     16  C   UNL     1      -1.875   0.884  25.114  0.00  0.00    +0.135 C 
ATOM     28  C   UNL     1      -2.576   0.443  25.160  0.00  0.00    +0.190 C 
ATOM     29  O   UNL     1      -3.372   0.266  25.283  0.00  0.00    -0.220 OA
ENDROOT
BRANCH  10   7
ATOM      1  C   UNL     1      -3.925  -2.693  24.003  0.00  0.00    +0.095 C 
ATOM      2  C   UNL     1      -3.546  -2.506  24.711  0.00  0.00    +0.226 C 
ATOM      3  O   UNL     1      -3.571  -3.034  25.345  0.00  0.00    -0.275 OA
ATOM      4  N   UNL     1      -3.141  -1.791  24.785  0.00  0.00    -0.277 N 
ATOM      5  C   UNL     1      -2.762  -1.603  25.493  0.00  0.00    +0.111 C 
ATOM      6  C   UNL     1      -2.357  -0.888  25.568  0.00  0.00    +0.094 C 
ATOM      7  N   UNL     1      -2.332  -0.360  24.935  0.00  0.00    -0.265 NA
ATOM      8  C   UNL     1      -2.712  -0.548  24.227  0.00  0.00    +0.094 C 
ATOM      9  C   UNL     1      -3.117  -1.263  24.152  0.00  0.00    +0.111 C 
ENDBRANCH  10   7
BRANCH  16  17
ATOM     17  N   UNL     1      -1.733   1.683  25.259  0.00  0.00    -0.209 NA
BRANCH  17  18
ATOM     18  C   UNL     1      -2.179   2.259  24.873  0.00  0.00    +0.115 C 
BRANCH  18  19
ATOM     19  C   UNL     1      -2.030   3.059  25.012  0.00  0.00    -0.002 A 
ATOM     20  C   UNL     1      -2.546   3.499  25.482  0.00  0.00    +0.000 A 
ATOM     21  C   UNL     1      -2.397   4.298  25.621  0.00  0.00    +0.040 A 
ATOM     22  C   UNL     1      -1.732   4.658  25.289  0.00  0.00    +0.176 A 
ATOM     23  O   UNL     1      -1.445   5.431  25.328  0.00  0.00    -0.435 OA
ATOM     24  C   UNL     1      -0.753   5.468  24.883  0.00  0.00    +0.429 C 
ATOM     25  O   UNL     1      -0.611   4.718  24.567  0.00  0.00    -0.435 OA
ATOM     26  C   UNL     1      -1.217   4.218  24.819  0.00  0.00    +0.176 A 
ATOM     27  C   UNL     1      -1.366   3.418  24.680  0.00  0.00    +0.037 A 
ENDBRANCH  18  19
ENDBRANCH  17  18
ENDBRANCH  16  17
TORSDOF 4
ENDMDL
MODEL 5
REMARK VINA RESULT:      -9.9      2.565      3.900
REMARK  Name = 
REMARK  4 active torsions:
REMARK  status: ('A' for Active; 'I' for Inactive)
REMARK    1  A    between atoms: N_7  and  C_10
REMARK    2  A    between atoms: C_16  and  N_17
REMARK    3  A    between atoms: N_17  and  C_18
REMARK    4  A    between atoms: C_18  and  C_19
REMARK                            x       y       z     vdW  Elec       q    Type
REMARK                         _______ _______ _______ _____ _____    ______ ____
ROOT
ATOM     10  C   UNL     1      -1.448   0.804  24.748  0.00  0.00    +0.147 C 
ATOM     11  C   UNL     1      -0.949   0.073  25.149  0.00  0.00    +0.253 C 
ATOM     12  O   UNL     1      -0.184  -0.257  24.856  0.00  0.00    -0.327 OA
ATOM     13  C   UNL     1      -0.766   0.178  24.869  0.00  0.00    +0.176 C 
ATOM     14  C   UNL     1      -1.425   0.358  25.240  0.00  0.00    +0.166 C 
ATOM     15  O   UNL     1      -1.444  -0.102  25.785  0.00  0.00    -0.328 OA
ATOM     16  C   UNL     1      -1.913   1.055  24.868  0.00  0.00    +0.135 C 
ATOM     28  C   UNL     1      -1.415   1.229  24.229  0.00  0.00    +0.190 C 
ATOM     29  O   UNL     1      -1.128   1.600  23.551  0.00  0.00    -0.220 OA
ENDROOT
BRANCH  10   7
ATOM      1  C   UNL     1       1.306  -0.382  22.445  0.00  0.00    +0.095 C 
ATOM      2  C   UNL     1       1.292   0.227  23.002  0.00  0.00    +0.226 C 
ATOM      3  O   UNL     1       1.964   0.691  23.123  0.00  0.00    -0.275 OA
ATOM      4  N   UNL     1       0.607   0.371  23.438  0.00  0.00    -0.277 N 
ATOM      5  C   UNL     1       0.594   0.979  23.995  0.00  0.00    +0.111 C 
ATOM      6  C   UNL     1      -0.091   1.124  24.432  0.00  0.00    +0.094 C 
ATOM      7  N   UNL     1      -0.763   0.660  24.311  0.00  0.00    -0.265 NA
ATOM      8  C   UNL     1      -0.749   0.052  23.754  0.00  0.00    +0.094 C 
ATOM      9  C   UNL     1      -0.065  -0.093  23.317  0.00  0.00    +0.111 C 
ENDBRANCH  10   7
BRANCH  16  17
ATOM     17  N   UNL     1      -2.627   1.396  25.102  0.00  0.00    -0.209 NA
BRANCH  17  18
ATOM     18  C   UNL     1      -3.247   1.465  24.563  0.00  0.00    +0.115 C 
BRANCH  18  19
ATOM     19  C   UNL     1      -3.961   1.808  24.797  0.00  0.00    -0.002 A 
ATOM     20  C   UNL     1      -4.644   1.348  24.844  0.00  0.00    +0.000 A 
ATOM     21  C   UNL     1      -5.357   1.690  25.077  0.00  0.00    +0.040 A 
ATOM     22  C   UNL     1      -5.387   2.494  25.265  0.00  0.00    +0.176 A 
ATOM     23  O   UNL     1      -6.006   2.981  25.510  0.00  0.00    -0.435 OA
ATOM     24  C   UNL     1      -5.706   3.741  25.615  0.00  0.00    +0.429 C 
ATOM     25  O   UNL     1      -4.900   3.725  25.435  0.00  0.00    -0.435 OA
ATOM     26  C   UNL     1      -4.704   2.954  25.218  0.00  0.00    +0.176 A 
ATOM     27  C   UNL     1      -3.990   2.611  24.984  0.00  0.00    +0.037 A 
ENDBRANCH  18  19
ENDBRANCH  17  18
ENDBRANCH  16  17
TORSDOF 4
ENDMDL
