MODEL 1
REMARK VINA RESULT:     -10.8      0.000      0.000
REMARK  Name = 
REMARK  6 active torsions:
REMARK  status: ('A' for Active; 'I' for Inactive)
REMARK    1  A    between atoms: S_2  and  N_5
REMARK    2  A    between atoms: C_10  and  C_12
REMARK    3  A    between atoms: C_15  and  C_17
REMARK    4  A    between atoms: N_21  and  C_22
REMARK    5  A    between atoms: C_22  and  C_23
REMARK    6  A    between atoms: C_26  and  C_29
REMARK                            x       y       z     vdW  Elec       q    Type
REMARK                         _______ _______ _______ _____ _____    ______ ____
ROOT
ATOM     12  C   UNL     1      -1.298   2.372  25.323  0.00  0.00    +0.203 A 
ATOM     13  N   UNL     1      -0.628   2.302  25.800  0.00  0.00    -0.056 NA
ATOM     14  O   UNL     1      -0.179   1.670  25.518  0.00  0.00    -0.336 OA
ATOM     15  C   UNL     1      -0.571   1.349  24.866  0.00  0.00    +0.251 A 
ATOM     16  N   UNL     1      -1.262   1.784  24.746  0.00  0.00    -0.190 NA
ENDROOT
BRANCH  12  10
ATOM      5  N   UNL     1      -4.074   3.048  25.305  0.00  0.00    -0.081 NA
ATOM      6  C   UNL     1      -3.285   3.270  25.399  0.00  0.00    +0.171 A 
ATOM      7  N   UNL     1      -3.096   4.053  25.578  0.00  0.00    -0.226 NA
ATOM      8  C   UNL     1      -2.307   4.275  25.672  0.00  0.00    +0.101 A 
ATOM      9  C   UNL     1      -1.707   3.715  25.587  0.00  0.00    +0.024 A 
ATOM     10  C   UNL     1      -1.897   2.932  25.408  0.00  0.00    +0.044 A 
ATOM     11  C   UNL     1      -2.686   2.709  25.314  0.00  0.00    +0.041 A 
BRANCH   5   2
ATOM      1  C   UNL     1      -5.273   4.169  25.475  0.00  0.00    +0.202 C 
ATOM      2  S   UNL     1      -4.674   3.609  25.390  0.00  0.00    +0.076 S 
ATOM      3  O   UNL     1      -4.758   3.398  26.183  0.00  0.00    -0.153 OA
ATOM      4  O   UNL     1      -4.589   3.819  24.597  0.00  0.00    -0.153 OA
ENDBRANCH   5   2
ENDBRANCH  12  10
BRANCH  15  17
ATOM     17  C   UNL     1      -0.316   0.708  24.415  0.00  0.00    +0.138 C 
ATOM     18  C   UNL     1       0.190   0.743  23.764  0.00  0.00    +0.027 C 
ATOM     19  C   UNL     1       0.296  -0.024  23.481  0.00  0.00    +0.019 C 
ATOM     20  C   UNL     1      -0.145  -0.534  23.956  0.00  0.00    +0.073 C 
ATOM     21  N   UNL     1      -0.524  -0.082  24.533  0.00  0.00    -0.263 NA
BRANCH  21  22
ATOM     22  C   UNL     1      -1.022  -0.369  25.125  0.00  0.00    +0.099 C 
BRANCH  22  23
ATOM     23  C   UNL     1      -1.558  -0.972  24.956  0.00  0.00    -0.006 A 
ATOM     24  C   UNL     1      -1.303  -1.756  24.931  0.00  0.00    -0.002 A 
ATOM     25  C   UNL     1      -1.840  -2.360  24.762  0.00  0.00    +0.010 A 
ATOM     26  C   UNL     1      -2.632  -2.178  24.618  0.00  0.00    +0.068 A 
ATOM     27  C   UNL     1      -2.887  -1.394  24.643  0.00  0.00    +0.010 A 
ATOM     28  C   UNL     1      -2.351  -0.791  24.812  0.00  0.00    -0.002 A 
BRANCH  26  29
ATOM     29  C   UNL     1      -3.169  -2.782  24.449  0.00  0.00    +0.100 C 
ATOM     30  N   UNL     1      -3.705  -3.385  24.280  0.00  0.00    -0.191 NA
ENDBRANCH  26  29
ENDBRANCH  22  23
ENDBRANCH  21  22
ENDBRANCH  15  17
TORSDOF 6
ENDMDL
MODEL 2
REMARK VINA RESULT:     -10.8      2.067      4.958
REMARK  Name = 
REMARK  6 active torsions:
REMARK  status: ('A' for Active; 'I' for Inactive)
REMARK    1  A    between atoms: S_2  and  N_5
REMARK    2  A    between atoms: C_10  and  C_12
REMARK    3  A    between atoms: C_15  and  C_17
REMARK    4  A    between atoms: N_21  and  C_22
REMARK    5  A    between atoms: C_22  and  C_23
REMARK    6  A    between atoms: C_26  and  C_29
REMARK                            x       y       z     vdW  Elec       q    Type
REMARK                         _______ _______ _______ _____ _____    ______ ____
ROOT
ATOM     12  C   UNL     1      -1.102   0.361  24.526  0.00  0.00    +0.203 A 
ATOM     13  N   UNL     1      -0.636   0.651  23.910  0.00  0.00    -0.056 NA
ATOM     14  O   UNL     1      -0.575   1.469  24.001  0.00  0.00    -0.336 OA
ATOM     15  C   UNL     1      -1.002   1.684  24.673  0.00  0.00    +0.251 A 
ATOM     16  N   UNL     1      -1.328   0.999  24.998  0.00  0.00    -0.190 NA
ENDROOT
BRANCH  12  10
ATOM      5  N   UNL     1      -3.076  -1.705  24.591  0.00  0.00    -0.081 NA
ATOM      6  C   UNL     1      -2.293  -1.462  24.681  0.00  0.00    +0.171 A 
ATOM      7  N   UNL     1      -1.713  -2.009  24.895  0.00  0.00    -0.226 NA
ATOM      8  C   UNL     1      -0.930  -1.766  24.985  0.00  0.00    +0.101 A 
ATOM      9  C   UNL     1      -0.726  -0.976  24.862  0.00  0.00    +0.024 A 
ATOM     10  C   UNL     1      -1.306  -0.429  24.649  0.00  0.00    +0.044 A 
ATOM     11  C   UNL     1      -2.089  -0.672  24.558  0.00  0.00    +0.041 A 
BRANCH   5   2
ATOM      1  C   UNL     1      -3.483  -3.285  24.836  0.00  0.00    +0.202 C 
ATOM      2  S   UNL     1      -3.279  -2.495  24.714  0.00  0.00    +0.076 S 
ATOM      3  O   UNL     1      -3.099  -2.664  23.926  0.00  0.00    -0.153 OA
ATOM      4  O   UNL     1      -3.459  -2.326  25.501  0.00  0.00    -0.153 OA
ENDBRANCH   5   2
ENDBRANCH  12  10
BRANCH  15  17
ATOM     17  C   UNL     1      -1.088   2.449  24.969  0.00  0.00    +0.138 C 
ATOM     18  C   UNL     1      -0.529   2.863  25.413  0.00  0.00    +0.027 C 
ATOM     19  C   UNL     1      -0.844   3.604  25.592  0.00  0.00    +0.019 C 
ATOM     20  C   UNL     1      -1.597   3.649  25.258  0.00  0.00    +0.073 C 
ATOM     21  N   UNL     1      -1.748   2.934  24.873  0.00  0.00    -0.263 NA
BRANCH  21  22
ATOM     22  C   UNL     1      -2.438   2.741  24.465  0.00  0.00    +0.099 C 
BRANCH  22  23
ATOM     23  C   UNL     1      -3.164   3.042  24.714  0.00  0.00    -0.006 A 
ATOM     24  C   UNL     1      -3.443   3.754  24.405  0.00  0.00    -0.002 A 
ATOM     25  C   UNL     1      -4.170   4.056  24.654  0.00  0.00    +0.010 A 
ATOM     26  C   UNL     1      -4.616   3.645  25.213  0.00  0.00    +0.068 A 
ATOM     27  C   UNL     1      -4.337   2.933  25.522  0.00  0.00    +0.010 A 
ATOM     28  C   UNL     1      -3.611   2.631  25.273  0.00  0.00    -0.002 A 
BRANCH  26  29
ATOM     29  C   UNL     1      -5.343   3.947  25.462  0.00  0.00    +0.100 C 
ATOM     30  N   UNL     1      -6.069   4.248  25.711  0.00  0.00    -0.191 NA
ENDBRANCH  26  29
ENDBRANCH  22  23
ENDBRANCH  21  22
ENDBRANCH  15  17
TORSDOF 6
ENDMDL
MODEL 3
REMARK VINA RESULT:     -10.8      2.305      5.780
REMARK  Name = 
REMARK  6 active torsions:
REMARK  status: ('A' for Active; 'I' for Inactive)
REMARK    1  A    between atoms: S_2  and  N_5
REMARK    2  A    between atoms: C_10  and  C_12
REMARK    3  A    between atoms: C_15  and  C_17
REMARK    4  A    between atoms: N_21  and  C_22
REMARK    5  A    between atoms: C_22  and  C_23
REMARK    6  A    between atoms: C_26  and  C_29
REMARK                            x       y       z     vdW  Elec       q    Type
REMARK                         _______ _______ _______ _____ _____    ______ ____
ROOT
ATOM     12  C   UNL     1      -4.102  -0.205  24.799  0.00  0.00    +0.203 A 
ATOM     13  N   UNL     1      -4.734  -0.206  24.268  0.00  0.00    -0.056 NA
ATOM     14  O   UNL     1      -5.150   0.500  24.366  0.00  0.00    -0.336 OA
ATOM     15  C   UNL     1      -4.776   0.937  24.958  0.00  0.00    +0.251 A 
ATOM     16  N   UNL     1      -4.128   0.501  25.225  0.00  0.00    -0.190 NA
ENDROOT
BRANCH  12  10
ATOM      5  N   UNL     1      -1.374  -1.048  24.918  0.00  0.00    -0.081 NA
ATOM      6  C   UNL     1      -2.179  -1.226  24.948  0.00  0.00    +0.171 A 
ATOM      7  N   UNL     1      -2.425  -2.005  25.067  0.00  0.00    -0.226 NA
ATOM      8  C   UNL     1      -3.229  -2.183  25.096  0.00  0.00    +0.101 A 
ATOM      9  C   UNL     1      -3.789  -1.583  25.007  0.00  0.00    +0.024 A 
ATOM     10  C   UNL     1      -3.543  -0.805  24.889  0.00  0.00    +0.044 A 
ATOM     11  C   UNL     1      -2.738  -0.626  24.859  0.00  0.00    +0.041 A 
BRANCH   5   2
ATOM      1  C   UNL     1      -0.256  -2.248  25.096  0.00  0.00    +0.202 C 
ATOM      2  S   UNL     1      -0.815  -1.648  25.007  0.00  0.00    +0.076 S 
ATOM      3  O   UNL     1      -0.857  -1.807  24.199  0.00  0.00    -0.153 OA
ATOM      4  O   UNL     1      -0.772  -1.488  25.816  0.00  0.00    -0.153 OA
ENDBRANCH   5   2
ENDBRANCH  12  10
BRANCH  15  17
ATOM     17  C   UNL     1      -5.008   1.679  25.233  0.00  0.00    +0.138 C 
ATOM     18  C   UNL     1      -5.629   1.830  25.755  0.00  0.00    +0.027 C 
ATOM     19  C   UNL     1      -5.665   2.644  25.880  0.00  0.00    +0.019 C 
ATOM     20  C   UNL     1      -5.066   2.997  25.436  0.00  0.00    +0.073 C 
ATOM     21  N   UNL     1      -4.660   2.400  25.036  0.00  0.00    -0.263 NA
BRANCH  21  22
ATOM     22  C   UNL     1      -4.018   2.507  24.529  0.00  0.00    +0.099 C 
BRANCH  22  23
ATOM     23  C   UNL     1      -3.476   3.111  24.671  0.00  0.00    -0.006 A 
ATOM     24  C   UNL     1      -2.844   2.986  25.186  0.00  0.00    -0.002 A 
ATOM     25  C   UNL     1      -2.301   3.591  25.328  0.00  0.00    +0.010 A 
ATOM     26  C   UNL     1      -2.390   4.321  24.954  0.00  0.00    +0.068 A 
ATOM     27  C   UNL     1      -3.022   4.446  24.439  0.00  0.00    +0.010 A 
ATOM     28  C   UNL     1      -3.565   3.842  24.297  0.00  0.00    -0.002 A 
BRANCH  26  29
ATOM     29  C   UNL     1      -1.847   4.926  25.096  0.00  0.00    +0.100 C 
ATOM     30  N   UNL     1      -1.304   5.530  25.238  0.00  0.00    -0.191 NA
ENDBRANCH  26  29
ENDBRANCH  22  23
ENDBRANCH  21  22
ENDBRANCH  15  17
TORSDOF 6
ENDMDL
MODEL 4
REMARK VINA RESULT:     -10.5      2.067      3.666
REMARK  Name = 
REMARK  6 active torsions:
REMARK  status: ('A' for Active; 'I' for Inactive)
REMARK    1  A    between atoms: S_2  and  N_5
REMARK    2  A    between atoms: C_10  and  C_12
REMARK    3  A    between atoms: C_15  and  C_17
REMARK    4  A    between atoms: N_21  and  C_22
REMARK    5  A    between atoms: C_22  and  C_23
REMARK    6  A    between atoms: C_26  and  C_29
REMARK                            x       y       z     vdW  Elec       q    Type
REMARK                         _______ _______ _______ _____ _____    ______ ____
ROOT
ATOM     12  C   UNL     1      -3.123   3.105  24.911  0.00  0.00    +0.203 A 
ATOM     13  N   UNL     1      -3.582   3.519  24.364  0.00  0.00    -0.056 NA
ATOM     14  O   UNL     1      -4.295   3.114  24.272  0.00  0.00    -0.336 OA
ATOM     15  C   UNL     1      -4.277   2.450  24.762  0.00  0.00    +0.251 A 
ATOM     16  N   UNL     1      -3.552   2.445  25.156  0.00  0.00    -0.190 NA
ENDROOT
BRANCH  12  10
ATOM      5  N   UNL     1      -0.586   2.371  26.002  0.00  0.00    -0.081 NA
ATOM      6  C   UNL     1      -1.099   2.948  25.712  0.00  0.00    +0.171 A 
ATOM      7  N   UNL     1      -0.856   3.736  25.678  0.00  0.00    -0.226 NA
ATOM      8  C   UNL     1      -1.369   4.313  25.388  0.00  0.00    +0.101 A 
ATOM      9  C   UNL     1      -2.124   4.103  25.132  0.00  0.00    +0.024 A 
ATOM     10  C   UNL     1      -2.367   3.316  25.167  0.00  0.00    +0.044 A 
ATOM     11  C   UNL     1      -1.854   2.738  25.457  0.00  0.00    +0.041 A 
BRANCH   5   2
ATOM      1  C   UNL     1       0.926   2.791  26.514  0.00  0.00    +0.202 C 
ATOM      2  S   UNL     1       0.170   2.581  26.258  0.00  0.00    +0.076 S 
ATOM      3  O   UNL     1       0.457   2.481  25.491  0.00  0.00    -0.153 OA
ATOM      4  O   UNL     1      -0.117   2.681  27.025  0.00  0.00    -0.153 OA
ENDBRANCH   5   2
ENDBRANCH  12  10
BRANCH  15  17
ATOM     17  C   UNL     1      -4.876   1.890  24.843  0.00  0.00    +0.138 C 
ATOM     18  C   UNL     1      -5.629   2.028  25.152  0.00  0.00    +0.027 C 
ATOM     19  C   UNL     1      -6.048   1.317  25.130  0.00  0.00    +0.019 C 
ATOM     20  C   UNL     1      -5.554   0.740  24.807  0.00  0.00    +0.073 C 
ATOM     21  N   UNL     1      -4.830   1.095  24.629  0.00  0.00    -0.263 NA
BRANCH  21  22
ATOM     22  C   UNL     1      -4.175   0.720  24.297  0.00  0.00    +0.099 C 
BRANCH  22  23
ATOM     23  C   UNL     1      -4.061  -0.089  24.410  0.00  0.00    -0.006 A 
ATOM     24  C   UNL     1      -3.744  -0.367  25.119  0.00  0.00    -0.002 A 
ATOM     25  C   UNL     1      -3.631  -1.176  25.232  0.00  0.00    +0.010 A 
ATOM     26  C   UNL     1      -3.835  -1.708  24.635  0.00  0.00    +0.068 A 
ATOM     27  C   UNL     1      -4.152  -1.431  23.926  0.00  0.00    +0.010 A 
ATOM     28  C   UNL     1      -4.265  -0.622  23.813  0.00  0.00    -0.002 A 
BRANCH  26  29
ATOM     29  C   UNL     1      -3.721  -2.518  24.748  0.00  0.00    +0.100 C 
ATOM     30  N   UNL     1      -3.608  -3.327  24.861  0.00  0.00    -0.191 NA
ENDBRANCH  26  29
ENDBRANCH  22  23
ENDBRANCH  21  22
ENDBRANCH  15  17
TORSDOF 6
ENDMDL
MODEL 5
REMARK VINA RESULT:      -9.7      1.838      3.058
REMARK  Name = 
REMARK  6 active torsions:
REMARK  status: ('A' for Active; 'I' for Inactive)
REMARK    1  A    between atoms: S_2  and  N_5
REMARK    2  A    between atoms: C_10  and  C_12
REMARK    3  A    between atoms: C_15  and  C_17
REMARK    4  A    between atoms: N_21  and  C_22
REMARK    5  A    between atoms: C_22  and  C_23
REMARK    6  A    between atoms: C_26  and  C_29
REMARK                            x       y       z     vdW  Elec       q    Type
REMARK                         _______ _______ _______ _____ _____    ______ ____
ROOT
ATOM     12  C   UNL     1      -4.111   1.677  24.826  0.00  0.00    +0.203 A 
ATOM     13  N   UNL     1      -4.737   1.454  25.316  0.00  0.00    -0.056 NA
ATOM     14  O   UNL     1      -4.841   0.639  25.240  0.00  0.00    -0.336 OA
ATOM     15  C   UNL     1      -4.280   0.359  24.704  0.00  0.00    +0.251 A 
ATOM     16  N   UNL     1      -3.829   1.001  24.448  0.00  0.00    -0.190 NA
ENDROOT
BRANCH  12  10
ATOM      5  N   UNL     1      -2.108   3.646  25.360  0.00  0.00    -0.081 NA
ATOM      6  C   UNL     1      -2.817   3.427  24.999  0.00  0.00    +0.171 A 
ATOM      7  N   UNL     1      -3.234   3.975  24.543  0.00  0.00    -0.226 NA
ATOM      8  C   UNL     1      -3.943   3.756  24.183  0.00  0.00    +0.101 A 
ATOM      9  C   UNL     1      -4.235   2.990  24.277  0.00  0.00    +0.024 A 
ATOM     10  C   UNL     1      -3.819   2.443  24.732  0.00  0.00    +0.044 A 
ATOM     11  C   UNL     1      -3.109   2.661  25.093  0.00  0.00    +0.041 A 
BRANCH   5   2
ATOM      1  C   UNL     1      -1.524   5.177  25.171  0.00  0.00    +0.202 C 
ATOM      2  S   UNL     1      -1.816   4.411  25.265  0.00  0.00    +0.076 S 
ATOM      3  O   UNL     1      -1.344   4.154  24.640  0.00  0.00    -0.153 OA
ATOM      4  O   UNL     1      -2.289   4.669  25.891  0.00  0.00    -0.153 OA
ENDBRANCH   5   2
ENDBRANCH  12  10
BRANCH  15  17
ATOM     17  C   UNL     1      -4.186  -0.425  24.465  0.00  0.00    +0.138 C 
ATOM     18  C   UNL     1      -4.603  -0.801  23.859  0.00  0.00    +0.027 C 
ATOM     19  C   UNL     1      -4.334  -1.579  23.809  0.00  0.00    +0.019 C 
ATOM     20  C   UNL     1      -3.751  -1.685  24.384  0.00  0.00    +0.073 C 
ATOM     21  N   UNL     1      -3.660  -0.972  24.789  0.00  0.00    -0.263 NA
BRANCH  21  22
ATOM     22  C   UNL     1      -3.135  -0.830  25.409  0.00  0.00    +0.099 C 
BRANCH  22  23
ATOM     23  C   UNL     1      -2.378  -1.156  25.391  0.00  0.00    -0.006 A 
ATOM     24  C   UNL     1      -2.281  -1.974  25.362  0.00  0.00    -0.002 A 
ATOM     25  C   UNL     1      -1.522  -2.300  25.344  0.00  0.00    +0.010 A 
ATOM     26  C   UNL     1      -0.862  -1.806  25.354  0.00  0.00    +0.068 A 
ATOM     27  C   UNL     1      -0.959  -0.987  25.383  0.00  0.00    +0.010 A 
ATOM     28  C   UNL     1      -1.716  -0.662  25.401  0.00  0.00    -0.002 A 
BRANCH  26  29
ATOM     29  C   UNL     1      -0.103  -2.131  25.336  0.00  0.00    +0.100 C 
ATOM     30  N   UNL     1       0.654  -2.457  25.318  0.00  0.00    -0.191 NA
ENDBRANCH  26  29
ENDBRANCH  22  23
ENDBRANCH  21  22
ENDBRANCH  15  17
TORSDOF 6
ENDMDL
MODEL 6
REMARK VINA RESULT:      -9.7      1.837      3.288
REMARK  Name = 
REMARK  6 active torsions:
REMARK  status: ('A' for Active; 'I' for Inactive)
REMARK    1  A    between atoms: S_2  and  N_5
REMARK    2  A    between atoms: C_10  and  C_12
REMARK    3  A    between atoms: C_15  and  C_17
REMARK    4  A    between atoms: N_21  and  C_22
REMARK    5  A    between atoms: C_22  and  C_23
REMARK    6  A    between atoms: C_26  and  C_29
REMARK                            x       y       z     vdW  Elec       q    Type
REMARK                         _______ _______ _______ _____ _____    ______ ____
ROOT
ATOM     12  C   UNL     1      -3.134   0.782  24.249  0.00  0.00    +0.203 A 
ATOM     13  N   UNL     1      -3.388   0.088  23.881  0.00  0.00    -0.056 NA
ATOM     14  O   UNL     1      -2.809  -0.488  23.994  0.00  0.00    -0.336 OA
ATOM     15  C   UNL     1      -2.196  -0.151  24.432  0.00  0.00    +0.251 A 
ATOM     16  N   UNL     1      -2.398   0.634  24.590  0.00  0.00    -0.190 NA
ENDROOT
BRANCH  12  10
ATOM      5  N   UNL     1      -4.889   2.585  25.603  0.00  0.00    -0.081 NA
ATOM      6  C   UNL     1      -4.422   2.398  24.950  0.00  0.00    +0.171 A 
ATOM      7  N   UNL     1      -4.365   2.928  24.319  0.00  0.00    -0.226 NA
ATOM      8  C   UNL     1      -3.898   2.741  23.665  0.00  0.00    +0.101 A 
ATOM      9  C   UNL     1      -3.487   2.025  23.642  0.00  0.00    +0.024 A 
ATOM     10  C   UNL     1      -3.544   1.497  24.272  0.00  0.00    +0.044 A 
ATOM     11  C   UNL     1      -4.012   1.683  24.927  0.00  0.00    +0.041 A 
BRANCH   5   2
ATOM      1  C   UNL     1      -5.710   4.016  25.650  0.00  0.00    +0.202 C 
ATOM      2  S   UNL     1      -5.300   3.301  25.627  0.00  0.00    +0.076 S 
ATOM      3  O   UNL     1      -5.963   2.930  25.305  0.00  0.00    -0.153 OA
ATOM      4  O   UNL     1      -4.636   3.671  25.948  0.00  0.00    -0.153 OA
ENDBRANCH   5   2
ENDBRANCH  12  10
BRANCH  15  17
ATOM     17  C   UNL     1      -1.505  -0.531  24.671  0.00  0.00    +0.138 C 
ATOM     18  C   UNL     1      -1.439  -1.078  25.286  0.00  0.00    +0.027 C 
ATOM     19  C   UNL     1      -0.651  -1.317  25.333  0.00  0.00    +0.019 C 
ATOM     20  C   UNL     1      -0.229  -0.917  24.747  0.00  0.00    +0.073 C 
ATOM     21  N   UNL     1      -0.756  -0.431  24.338  0.00  0.00    -0.263 NA
BRANCH  21  22
ATOM     22  C   UNL     1      -0.568   0.066  23.708  0.00  0.00    +0.099 C 
BRANCH  22  23
ATOM     23  C   UNL     1       0.216   0.150  23.468  0.00  0.00    -0.006 A 
ATOM     24  C   UNL     1       0.675   0.767  23.766  0.00  0.00    -0.002 A 
ATOM     25  C   UNL     1       1.460   0.851  23.526  0.00  0.00    +0.010 A 
ATOM     26  C   UNL     1       1.786   0.317  22.987  0.00  0.00    +0.068 A 
ATOM     27  C   UNL     1       1.326  -0.300  22.689  0.00  0.00    +0.010 A 
ATOM     28  C   UNL     1       0.542  -0.384  22.929  0.00  0.00    -0.002 A 
BRANCH  26  29
ATOM     29  C   UNL     1       2.571   0.401  22.747  0.00  0.00    +0.100 C 
ATOM     30  N   UNL     1       3.355   0.485  22.507  0.00  0.00    -0.191 NA
ENDBRANCH  26  29
ENDBRANCH  22  23
ENDBRANCH  21  22
ENDBRANCH  15  17
TORSDOF 6
ENDMDL
MODEL 7
REMARK VINA RESULT:      -9.0      1.551      2.421
REMARK  Name = 
REMARK  6 active torsions:
REMARK  status: ('A' for Active; 'I' for Inactive)
REMARK    1  A    between atoms: S_2  and  N_5
REMARK    2  A    between atoms: C_10  and  C_12
REMARK    3  A    between atoms: C_15  and  C_17
REMARK    4  A    between atoms: N_21  and  C_22
REMARK    5  A    between atoms: C_22  and  C_23
REMARK    6  A    between atoms: C_26  and  C_29
REMARK                            x       y       z     vdW  Elec       q    Type
REMARK                         _______ _______ _______ _____ _____    ______ ____
ROOT
ATOM     12  C   UNL     1      -2.848   3.369  25.087  0.00  0.00    +0.203 A 
ATOM     13  N   UNL     1      -2.441   3.880  24.582  0.00  0.00    -0.056 NA
ATOM     14  O   UNL     1      -1.635   3.711  24.644  0.00  0.00    -0.336 OA
ATOM     15  C   UNL     1      -1.545   3.096  25.187  0.00  0.00    +0.251 A 
ATOM     16  N   UNL     1      -2.295   2.885  25.460  0.00  0.00    -0.190 NA
ENDROOT
BRANCH  12  10
ATOM      5  N   UNL     1      -5.287   1.886  25.232  0.00  0.00    -0.081 NA
ATOM      6  C   UNL     1      -4.884   2.605  25.270  0.00  0.00    +0.171 A 
ATOM      7  N   UNL     1      -5.300   3.302  25.419  0.00  0.00    -0.226 NA
ATOM      8  C   UNL     1      -4.897   4.021  25.458  0.00  0.00    +0.101 A 
ATOM      9  C   UNL     1      -4.080   4.044  25.347  0.00  0.00    +0.024 A 
ATOM     10  C   UNL     1      -3.665   3.347  25.198  0.00  0.00    +0.044 A 
ATOM     11  C   UNL     1      -4.067   2.627  25.159  0.00  0.00    +0.041 A 
BRANCH   5   2
ATOM      1  C   UNL     1      -6.921   1.842  25.454  0.00  0.00    +0.202 C 
ATOM      2  S   UNL     1      -6.104   1.864  25.343  0.00  0.00    +0.076 S 
ATOM      3  O   UNL     1      -6.217   1.934  24.529  0.00  0.00    -0.153 OA
ATOM      4  O   UNL     1      -5.992   1.794  26.157  0.00  0.00    -0.153 OA
ENDBRANCH   5   2
ENDBRANCH  12  10
BRANCH  15  17
ATOM     17  C   UNL     1      -0.831   2.753  25.416  0.00  0.00    +0.138 C 
ATOM     18  C   UNL     1      -0.273   3.087  25.924  0.00  0.00    +0.027 C 
ATOM     19  C   UNL     1       0.353   2.556  26.000  0.00  0.00    +0.019 C 
ATOM     20  C   UNL     1       0.183   1.893  25.540  0.00  0.00    +0.073 C 
ATOM     21  N   UNL     1      -0.550   2.014  25.179  0.00  0.00    -0.263 NA
BRANCH  21  22
ATOM     22  C   UNL     1      -0.932   1.490  24.670  0.00  0.00    +0.099 C 
BRANCH  22  23
ATOM     23  C   UNL     1      -0.840   0.677  24.771  0.00  0.00    -0.006 A 
ATOM     24  C   UNL     1      -0.357   0.250  24.257  0.00  0.00    -0.002 A 
ATOM     25  C   UNL     1      -0.265  -0.565  24.357  0.00  0.00    +0.010 A 
ATOM     26  C   UNL     1      -0.657  -0.951  24.972  0.00  0.00    +0.068 A 
ATOM     27  C   UNL     1      -1.141  -0.523  25.486  0.00  0.00    +0.010 A 
ATOM     28  C   UNL     1      -1.233   0.290  25.385  0.00  0.00    -0.002 A 
BRANCH  26  29
ATOM     29  C   UNL     1      -0.565  -1.765  25.072  0.00  0.00    +0.100 C 
ATOM     30  N   UNL     1      -0.473  -2.578  25.173  0.00  0.00    -0.191 NA
ENDBRANCH  26  29
ENDBRANCH  22  23
ENDBRANCH  21  22
ENDBRANCH  15  17
TORSDOF 6
ENDMDL
