MODEL 1
REMARK VINA RESULT:     -12.7      0.000      0.000
REMARK  Name = 
REMARK  3 active torsions:
REMARK  status: ('A' for Active; 'I' for Inactive)
REMARK    1  A    between atoms: C_7  and  C_8
REMARK    2  A    between atoms: C_8  and  N_9
REMARK    3  A    between atoms: C_12  and  C_14
REMARK                            x       y       z     vdW  Elec       q    Type
REMARK                         _______ _______ _______ _____ _____    ______ ____
ROOT
ATOM      9  N   UNL     1      -4.082   0.615  24.526  0.00  0.00    -0.268 NA
ATOM     10  C   UNL     1      -4.664   1.061  24.902  0.00  0.00    +0.073 C 
ATOM     11  C   UNL     1      -4.341   1.798  25.088  0.00  0.00    +0.028 C 
ATOM     12  C   UNL     1      -3.559   1.807  24.825  0.00  0.00    +0.094 C 
ATOM     13  C   UNL     1      -3.399   1.076  24.478  0.00  0.00    +0.082 C 
ENDROOT
BRANCH  12  14
ATOM     14  C   UNL     1      -3.030   2.436  24.898  0.00  0.00    +0.207 A 
ATOM     15  N   UNL     1      -3.214   3.196  25.160  0.00  0.00    -0.212 NA
ATOM     16  C   UNL     1      -2.523   3.645  25.145  0.00  0.00    +0.119 A 
ATOM     17  C   UNL     1      -1.911   3.162  24.873  0.00  0.00    +0.164 A 
ATOM     18  O   UNL     1      -2.225   2.415  24.720  0.00  0.00    -0.438 OA
ATOM     19  C   UNL     1      -1.148   3.467  24.800  0.00  0.00    +0.039 A 
ATOM     20  C   UNL     1      -0.996   4.252  24.998  0.00  0.00    +0.003 A 
ATOM     21  C   UNL     1      -1.607   4.735  25.271  0.00  0.00    +0.002 A 
ATOM     22  C   UNL     1      -2.371   4.432  25.344  0.00  0.00    +0.022 A 
ENDBRANCH  12  14
BRANCH   9   8
ATOM      8  C   UNL     1      -4.166  -0.156  24.245  0.00  0.00    +0.099 C 
BRANCH   8   7
ATOM      1  C   UNL     1      -4.133  -1.674  23.600  0.00  0.00    +0.031 C 
ATOM      2  C   UNL     1      -3.882  -1.550  24.376  0.00  0.00    -0.024 A 
ATOM      3  C   UNL     1      -3.615  -2.185  24.830  0.00  0.00    -0.005 A 
ATOM      4  C   UNL     1      -3.364  -2.061  25.605  0.00  0.00    -0.000 A 
ATOM      5  C   UNL     1      -3.381  -1.303  25.928  0.00  0.00    -0.000 A 
ATOM      6  C   UNL     1      -3.648  -0.667  25.475  0.00  0.00    -0.003 A 
ATOM      7  C   UNL     1      -3.899  -0.791  24.699  0.00  0.00    -0.010 A 
ENDBRANCH   8   7
ENDBRANCH   9   8
TORSDOF 3
ENDMDL
MODEL 2
REMARK VINA RESULT:     -12.6      1.221      4.792
REMARK  Name = 
REMARK  3 active torsions:
REMARK  status: ('A' for Active; 'I' for Inactive)
REMARK    1  A    between atoms: C_7  and  C_8
REMARK    2  A    between atoms: C_8  and  N_9
REMARK    3  A    between atoms: C_12  and  C_14
REMARK                            x       y       z     vdW  Elec       q    Type
REMARK                         _______ _______ _______ _____ _____    ______ ____
ROOT
ATOM      9  N   UNL     1      -3.666   2.174  24.166  0.00  0.00    -0.268 NA
ATOM     10  C   UNL     1      -3.233   2.035  23.478  0.00  0.00    +0.073 C 
ATOM     11  C   UNL     1      -3.142   1.219  23.395  0.00  0.00    +0.028 C 
ATOM     12  C   UNL     1      -3.518   0.854  24.032  0.00  0.00    +0.094 C 
ATOM     13  C   UNL     1      -3.842   1.444  24.509  0.00  0.00    +0.082 C 
ENDROOT
BRANCH  12  14
ATOM     14  C   UNL     1      -3.562   0.042  24.169  0.00  0.00    +0.207 A 
ATOM     15  N   UNL     1      -3.178  -0.370  24.771  0.00  0.00    -0.212 NA
ATOM     16  C   UNL     1      -3.377  -1.168  24.701  0.00  0.00    +0.119 A 
ATOM     17  C   UNL     1      -3.883  -1.248  24.055  0.00  0.00    +0.164 A 
ATOM     18  O   UNL     1      -3.998  -0.501  23.726  0.00  0.00    -0.438 OA
ATOM     19  C   UNL     1      -4.175  -1.993  23.850  0.00  0.00    +0.039 A 
ATOM     20  C   UNL     1      -3.960  -2.656  24.291  0.00  0.00    +0.003 A 
ATOM     21  C   UNL     1      -3.453  -2.575  24.937  0.00  0.00    +0.002 A 
ATOM     22  C   UNL     1      -3.161  -1.831  25.142  0.00  0.00    +0.022 A 
ENDBRANCH  12  14
BRANCH   9   8
ATOM      8  C   UNL     1      -3.885   2.913  24.461  0.00  0.00    +0.099 C 
BRANCH   8   7
ATOM      1  C   UNL     1      -4.484   3.716  25.772  0.00  0.00    +0.031 C 
ATOM      2  C   UNL     1      -3.674   3.726  25.617  0.00  0.00    -0.024 A 
ATOM      3  C   UNL     1      -3.163   4.138  26.117  0.00  0.00    -0.005 A 
ATOM      4  C   UNL     1      -2.354   4.149  25.962  0.00  0.00    -0.000 A 
ATOM      5  C   UNL     1      -2.054   3.748  25.306  0.00  0.00    -0.000 A 
ATOM      6  C   UNL     1      -2.564   3.336  24.806  0.00  0.00    -0.003 A 
ATOM      7  C   UNL     1      -3.375   3.325  24.962  0.00  0.00    -0.010 A 
ENDBRANCH   8   7
ENDBRANCH   9   8
TORSDOF 3
ENDMDL
