REMARK  Name = 
REMARK  3 active torsions:
REMARK  status: ('A' for Active; 'I' for Inactive)
REMARK    1  A    between atoms: C_2  and  C_5
REMARK    2  A    between atoms: C_9  and  C_11
REMARK    3  A    between atoms: C_26  and  C_28
REMARK                            x       y       z     vdW  Elec       q    Type
REMARK                         _______ _______ _______ _____ _____    ______ ____
ROOT
ATOM     11  C   UNL     1       5.940   1.655   0.000  0.00  0.00    +0.000 A 
ATOM     12  C   UNL     1       5.152   1.899   0.000  0.00  0.00    +0.006 A 
ATOM     13  C   UNL     1       4.547   1.337   0.000  0.00  0.00    +0.069 A 
ATOM     14  C   UNL     1       4.731   0.533   0.000  0.00  0.00    +0.078 A 
ATOM     15  N   UNL     1       4.216  -0.112   0.000  0.00  0.00    -0.178 NA
ATOM     16  C   UNL     1       3.391  -0.112   0.000  0.00  0.00    +0.265 C 
ATOM     17  O   UNL     1       3.033  -0.855   0.000  0.00  0.00    -0.271 OA
ATOM     18  C   UNL     1       2.877   0.533   0.000  0.00  0.00    +0.174 C 
ATOM     19  C   UNL     1       2.088   0.290   0.000  0.00  0.00    +0.123 C 
ATOM     20  N   UNL     1       1.484   0.851   0.000  0.00  0.00    -0.274 N 
ATOM     21  C   UNL     1       1.667   1.655   0.000  0.00  0.00    +0.115 C 
ATOM     22  C   UNL     1       2.456   1.899   0.000  0.00  0.00    +0.116 C 
ATOM     23  N   UNL     1       3.060   1.337   0.000  0.00  0.00    -0.266 N 
ATOM     24  C   UNL     1       3.804   1.695   0.000  0.00  0.00    +0.251 C 
ATOM     25  O   UNL     1       3.804   2.520   0.000  0.00  0.00    -0.270 OA
ATOM     26  C   UNL     1       0.695   0.608   0.000  0.00  0.00    +0.242 C 
ATOM     27  O   UNL     1       0.512  -0.197   0.000  0.00  0.00    -0.273 OA
ATOM     33  C   UNL     1       5.519   0.290   0.000  0.00  0.00    +0.017 A 
ATOM     34  C   UNL     1       6.124   0.851   0.000  0.00  0.00    +0.001 A 
ENDROOT
BRANCH  11   9
ATOM      5  C   UNL     1       6.966   3.582   0.000  0.00  0.00    +0.071 A 
ATOM      6  C   UNL     1       7.754   3.339   0.000  0.00  0.00    +0.004 A 
ATOM      7  C   UNL     1       7.938   2.534   0.000  0.00  0.00    -0.000 A 
ATOM      8  C   UNL     1       7.333   1.973   0.000  0.00  0.00    -0.000 A 
ATOM      9  C   UNL     1       6.545   2.216   0.000  0.00  0.00    -0.000 A 
ATOM     10  C   UNL     1       6.361   3.021   0.000  0.00  0.00    +0.004 A 
BRANCH   5   2
ATOM      1  F   UNL     1       6.599   5.191   0.000  0.00  0.00    -0.166 F 
ATOM      2  C   UNL     1       6.782   4.386   0.000  0.00  0.00    +0.419 C 
ATOM      3  F   UNL     1       5.978   4.203   0.000  0.00  0.00    -0.166 F 
ATOM      4  F   UNL     1       7.587   4.570   0.000  0.00  0.00    -0.166 F 
ENDBRANCH   5   2
ENDBRANCH  11   9
BRANCH  26  28
ATOM     28  C   UNL     1       0.091   1.169   0.000  0.00  0.00    +0.161 C 
ATOM     29  C   UNL     1      -0.719   1.010   0.000  0.00  0.00    +0.086 C 
ATOM     30  S   UNL     1      -1.121   1.730   0.000  0.00  0.00    -0.119 S 
ATOM     31  C   UNL     1      -0.559   2.335   0.000  0.00  0.00    +0.147 C 
ATOM     32  N   UNL     1       0.189   1.988   0.000  0.00  0.00    -0.198 NA
ENDBRANCH  26  28
TORSDOF 3
