MODEL 1
REMARK VINA RESULT:     -11.9      0.000      0.000
REMARK  Name = 
REMARK  5 active torsions:
REMARK  status: ('A' for Active; 'I' for Inactive)
REMARK    1  A    between atoms: C_4  and  N_18
REMARK    2  A    between atoms: C_6  and  C_7
REMARK    3  A    between atoms: C_9  and  C_12
REMARK    4  A    between atoms: N_21  and  C_22
REMARK    5  A    between atoms: C_22  and  C_23
REMARK                            x       y       z     vdW  Elec       q    Type
REMARK                         _______ _______ _______ _____ _____    ______ ____
ROOT
ATOM      1  C   UNL     1      -5.378   3.704  25.313  0.00  0.00    +0.090 C 
ATOM      2  N   UNL     1      -4.996   2.973  25.317  0.00  0.00    -0.264 NA
ATOM      3  C   UNL     1      -5.351   2.240  25.182  0.00  0.00    +0.094 C 
ATOM      4  C   UNL     1      -4.766   1.660  25.239  0.00  0.00    +0.115 C 
ATOM      5  C   UNL     1      -4.051   2.034  25.409  0.00  0.00    +0.049 C 
ATOM      6  C   UNL     1      -4.194   2.846  25.457  0.00  0.00    +0.139 C 
ENDROOT
BRANCH   6   7
ATOM      7  C   UNL     1      -3.631   3.428  25.618  0.00  0.00    +0.251 A 
ATOM      8  N   UNL     1      -2.952   3.581  25.175  0.00  0.00    -0.190 NA
ATOM      9  C   UNL     1      -2.551   4.207  25.532  0.00  0.00    +0.203 A 
ATOM     10  N   UNL     1      -2.981   4.441  26.195  0.00  0.00    -0.056 NA
ATOM     11  O   UNL     1      -3.649   3.959  26.248  0.00  0.00    -0.336 OA
BRANCH   9  12
ATOM     12  C   UNL     1      -1.843   4.541  25.272  0.00  0.00    +0.042 A 
ATOM     13  C   UNL     1      -1.180   4.064  25.154  0.00  0.00    +0.024 A 
ATOM     14  C   UNL     1      -0.472   4.397  24.894  0.00  0.00    +0.099 A 
ATOM     15  N   UNL     1      -0.427   5.208  24.751  0.00  0.00    -0.242 NA
ATOM     16  C   UNL     1      -1.088   5.686  24.869  0.00  0.00    +0.099 A 
ATOM     17  C   UNL     1      -1.797   5.352  25.129  0.00  0.00    +0.024 A 
ENDBRANCH   9  12
ENDBRANCH   6   7
BRANCH   4  18
ATOM     18  N   UNL     1      -4.878   0.849  25.143  0.00  0.00    -0.187 NA
ATOM     19  C   UNL     1      -4.382   0.420  24.643  0.00  0.00    +0.340 C 
ATOM     20  O   UNL     1      -3.773   0.802  24.239  0.00  0.00    -0.249 OA
ATOM     21  N   UNL     1      -4.494  -0.392  24.547  0.00  0.00    -0.182 NA
BRANCH  21  22
ATOM     22  C   UNL     1      -3.997  -0.821  24.047  0.00  0.00    +0.143 C 
BRANCH  22  23
ATOM     23  C   UNL     1      -3.879  -1.627  24.175  0.00  0.00    -0.001 A 
ATOM     24  C   UNL     1      -4.314  -2.181  23.746  0.00  0.00    -0.003 A 
ATOM     25  C   UNL     1      -4.197  -2.987  23.874  0.00  0.00    -0.000 A 
ATOM     26  C   UNL     1      -3.643  -3.241  24.431  0.00  0.00    -0.000 A 
ATOM     27  C   UNL     1      -3.207  -2.686  24.860  0.00  0.00    -0.000 A 
ATOM     28  C   UNL     1      -3.325  -1.880  24.732  0.00  0.00    -0.003 A 
ENDBRANCH  22  23
ENDBRANCH  21  22
ENDBRANCH   4  18
TORSDOF 5
ENDMDL
MODEL 2
REMARK VINA RESULT:     -10.2      1.020      5.845
REMARK  Name = 
REMARK  5 active torsions:
REMARK  status: ('A' for Active; 'I' for Inactive)
REMARK    1  A    between atoms: C_4  and  N_18
REMARK    2  A    between atoms: C_6  and  C_7
REMARK    3  A    between atoms: C_9  and  C_12
REMARK    4  A    between atoms: N_21  and  C_22
REMARK    5  A    between atoms: C_22  and  C_23
REMARK                            x       y       z     vdW  Elec       q    Type
REMARK                         _______ _______ _______ _____ _____    ______ ____
ROOT
ATOM      1  C   UNL     1      -5.790   0.850  25.332  0.00  0.00    +0.090 C 
ATOM      2  N   UNL     1      -5.126   1.241  25.041  0.00  0.00    -0.264 NA
ATOM      3  C   UNL     1      -4.985   2.053  25.079  0.00  0.00    +0.094 C 
ATOM      4  C   UNL     1      -4.257   2.203  24.721  0.00  0.00    +0.115 C 
ATOM      5  C   UNL     1      -3.948   1.484  24.462  0.00  0.00    +0.049 C 
ATOM      6  C   UNL     1      -4.485   0.889  24.659  0.00  0.00    +0.139 C 
ENDROOT
BRANCH   6   7
ATOM      7  C   UNL     1      -4.396   0.083  24.502  0.00  0.00    +0.251 A 
ATOM      8  N   UNL     1      -3.733  -0.374  24.677  0.00  0.00    -0.190 NA
ATOM      9  C   UNL     1      -3.882  -1.145  24.426  0.00  0.00    +0.203 A 
ATOM     10  N   UNL     1      -4.638  -1.165  24.097  0.00  0.00    -0.056 NA
ATOM     11  O   UNL     1      -4.955  -0.405  24.144  0.00  0.00    -0.336 OA
BRANCH   9  12
ATOM     12  C   UNL     1      -3.366  -1.786  24.493  0.00  0.00    +0.042 A 
ATOM     13  C   UNL     1      -2.554  -1.656  24.557  0.00  0.00    +0.024 A 
ATOM     14  C   UNL     1      -2.038  -2.296  24.624  0.00  0.00    +0.099 A 
ATOM     15  N   UNL     1      -2.334  -3.066  24.626  0.00  0.00    -0.242 NA
ATOM     16  C   UNL     1      -3.146  -3.196  24.562  0.00  0.00    +0.099 A 
ATOM     17  C   UNL     1      -3.662  -2.556  24.495  0.00  0.00    +0.024 A 
ENDBRANCH   9  12
ENDBRANCH   6   7
BRANCH   4  18
ATOM     18  N   UNL     1      -3.901   2.942  24.638  0.00  0.00    -0.187 NA
ATOM     19  C   UNL     1      -3.267   3.152  25.122  0.00  0.00    +0.340 C 
ATOM     20  O   UNL     1      -2.989   2.623  25.690  0.00  0.00    -0.249 OA
ATOM     21  N   UNL     1      -2.912   3.892  25.038  0.00  0.00    -0.182 NA
BRANCH  21  22
ATOM     22  C   UNL     1      -2.277   4.102  25.524  0.00  0.00    +0.143 C 
BRANCH  22  23
ATOM     23  C   UNL     1      -1.680   4.592  25.232  0.00  0.00    -0.001 A 
ATOM     24  C   UNL     1      -0.951   4.270  25.019  0.00  0.00    -0.003 A 
ATOM     25  C   UNL     1      -0.354   4.759  24.728  0.00  0.00    -0.000 A 
ATOM     26  C   UNL     1      -0.485   5.570  24.650  0.00  0.00    -0.000 A 
ATOM     27  C   UNL     1      -1.215   5.891  24.863  0.00  0.00    -0.000 A 
ATOM     28  C   UNL     1      -1.812   5.403  25.154  0.00  0.00    -0.003 A 
ENDBRANCH  22  23
ENDBRANCH  21  22
ENDBRANCH   4  18
TORSDOF 5
ENDMDL
MODEL 3
REMARK VINA RESULT:      -9.9      3.887      5.571
REMARK  Name = 
REMARK  5 active torsions:
REMARK  status: ('A' for Active; 'I' for Inactive)
REMARK    1  A    between atoms: C_4  and  N_18
REMARK    2  A    between atoms: C_6  and  C_7
REMARK    3  A    between atoms: C_9  and  C_12
REMARK    4  A    between atoms: N_21  and  C_22
REMARK    5  A    between atoms: C_22  and  C_23
REMARK                            x       y       z     vdW  Elec       q    Type
REMARK                         _______ _______ _______ _____ _____    ______ ____
ROOT
ATOM      1  C   UNL     1      -2.026  -0.410  24.627  0.00  0.00    +0.090 C 
ATOM      2  N   UNL     1      -1.487   0.166  24.389  0.00  0.00    -0.264 NA
ATOM      3  C   UNL     1      -0.665   0.091  24.390  0.00  0.00    +0.094 C 
ATOM      4  C   UNL     1      -0.344   0.797  24.108  0.00  0.00    +0.115 C 
ATOM      5  C   UNL     1      -0.967   1.309  23.933  0.00  0.00    +0.049 C 
ATOM      6  C   UNL     1      -1.673   0.918  24.107  0.00  0.00    +0.139 C 
ENDROOT
BRANCH   6   7
ATOM      7  C   UNL     1      -2.433   1.226  24.014  0.00  0.00    +0.251 A 
ATOM      8  N   UNL     1      -2.871   1.619  24.592  0.00  0.00    -0.190 NA
ATOM      9  C   UNL     1      -3.596   1.831  24.262  0.00  0.00    +0.203 A 
ATOM     10  N   UNL     1      -3.608   1.570  23.481  0.00  0.00    -0.056 NA
ATOM     11  O   UNL     1      -2.888   1.196  23.327  0.00  0.00    -0.336 OA
BRANCH   9  12
ATOM     12  C   UNL     1      -4.205   2.235  24.647  0.00  0.00    +0.042 A 
ATOM     13  C   UNL     1      -4.903   1.840  24.842  0.00  0.00    +0.024 A 
ATOM     14  C   UNL     1      -5.511   2.243  25.227  0.00  0.00    +0.099 A 
ATOM     15  N   UNL     1      -5.421   3.041  25.416  0.00  0.00    -0.242 NA
ATOM     16  C   UNL     1      -4.724   3.436  25.221  0.00  0.00    +0.099 A 
ATOM     17  C   UNL     1      -4.115   3.033  24.836  0.00  0.00    +0.024 A 
ENDBRANCH   9  12
ENDBRANCH   6   7
BRANCH   4  18
ATOM     18  N   UNL     1       0.459   0.963  24.018  0.00  0.00    -0.187 NA
ATOM     19  C   UNL     1       0.911   0.534  23.477  0.00  0.00    +0.340 C 
ATOM     20  O   UNL     1       0.560  -0.060  23.026  0.00  0.00    -0.249 OA
ATOM     21  N   UNL     1       1.714   0.700  23.387  0.00  0.00    -0.182 NA
BRANCH  21  22
ATOM     22  C   UNL     1       2.165   0.271  22.846  0.00  0.00    +0.143 C 
BRANCH  22  23
ATOM     23  C   UNL     1       2.989   0.320  22.865  0.00  0.00    -0.001 A 
ATOM     24  C   UNL     1       3.366   1.017  22.637  0.00  0.00    -0.003 A 
ATOM     25  C   UNL     1       4.189   1.066  22.657  0.00  0.00    -0.000 A 
ATOM     26  C   UNL     1       4.636   0.418  22.904  0.00  0.00    -0.000 A 
ATOM     27  C   UNL     1       4.258  -0.279  23.133  0.00  0.00    -0.000 A 
ATOM     28  C   UNL     1       3.435  -0.329  23.113  0.00  0.00    -0.003 A 
ENDBRANCH  22  23
ENDBRANCH  21  22
ENDBRANCH   4  18
TORSDOF 5
ENDMDL
MODEL 4
REMARK VINA RESULT:      -9.9      4.062      5.618
REMARK  Name = 
REMARK  5 active torsions:
REMARK  status: ('A' for Active; 'I' for Inactive)
REMARK    1  A    between atoms: C_4  and  N_18
REMARK    2  A    between atoms: C_6  and  C_7
REMARK    3  A    between atoms: C_9  and  C_12
REMARK    4  A    between atoms: N_21  and  C_22
REMARK    5  A    between atoms: C_22  and  C_23
REMARK                            x       y       z     vdW  Elec       q    Type
REMARK                         _______ _______ _______ _____ _____    ______ ____
ROOT
ATOM      1  C   UNL     1      -0.169  -1.227  24.222  0.00  0.00    +0.090 C 
ATOM      2  N   UNL     1      -0.401  -0.436  24.230  0.00  0.00    -0.264 NA
ATOM      3  C   UNL     1      -1.044  -0.123  24.642  0.00  0.00    +0.094 C 
ATOM      4  C   UNL     1      -1.072   0.688  24.494  0.00  0.00    +0.115 C 
ATOM      5  C   UNL     1      -0.446   0.877  23.991  0.00  0.00    +0.049 C 
ATOM      6  C   UNL     1      -0.032   0.182  23.828  0.00  0.00    +0.139 C 
ENDROOT
BRANCH   6   7
ATOM      7  C   UNL     1       0.636   0.116  23.346  0.00  0.00    +0.251 A 
ATOM      8  N   UNL     1       1.409   0.303  23.562  0.00  0.00    -0.190 NA
ATOM      9  C   UNL     1       1.897   0.155  22.914  0.00  0.00    +0.203 A 
ATOM     10  N   UNL     1       1.426  -0.124  22.298  0.00  0.00    -0.056 NA
ATOM     11  O   UNL     1       0.646  -0.148  22.565  0.00  0.00    -0.336 OA
BRANCH   9  12
ATOM     12  C   UNL     1       2.715   0.265  22.887  0.00  0.00    +0.042 A 
ATOM     13  C   UNL     1       3.025   1.011  22.717  0.00  0.00    +0.024 A 
ATOM     14  C   UNL     1       3.841   1.122  22.690  0.00  0.00    +0.099 A 
ATOM     15  N   UNL     1       4.349   0.487  22.833  0.00  0.00    -0.242 NA
ATOM     16  C   UNL     1       4.039  -0.259  23.003  0.00  0.00    +0.099 A 
ATOM     17  C   UNL     1       3.222  -0.369  23.030  0.00  0.00    +0.024 A 
ENDBRANCH   9  12
ENDBRANCH   6   7
BRANCH   4  18
ATOM     18  N   UNL     1      -1.627   1.218  24.796  0.00  0.00    -0.187 NA
ATOM     19  C   UNL     1      -2.367   1.288  24.439  0.00  0.00    +0.340 C 
ATOM     20  O   UNL     1      -2.552   0.829  23.780  0.00  0.00    -0.249 OA
ATOM     21  N   UNL     1      -2.922   1.818  24.742  0.00  0.00    -0.182 NA
BRANCH  21  22
ATOM     22  C   UNL     1      -3.663   1.888  24.384  0.00  0.00    +0.143 C 
BRANCH  22  23
ATOM     23  C   UNL     1      -4.265   2.307  24.762  0.00  0.00    -0.001 A 
ATOM     24  C   UNL     1      -4.951   1.917  25.002  0.00  0.00    -0.003 A 
ATOM     25  C   UNL     1      -5.553   2.336  25.380  0.00  0.00    -0.000 A 
ATOM     26  C   UNL     1      -5.470   3.145  25.518  0.00  0.00    -0.000 A 
ATOM     27  C   UNL     1      -4.783   3.535  25.278  0.00  0.00    -0.000 A 
ATOM     28  C   UNL     1      -4.181   3.117  24.900  0.00  0.00    -0.003 A 
ENDBRANCH  22  23
ENDBRANCH  21  22
ENDBRANCH   4  18
TORSDOF 5
ENDMDL
MODEL 5
REMARK VINA RESULT:      -9.9      2.229      3.029
REMARK  Name = 
REMARK  5 active torsions:
REMARK  status: ('A' for Active; 'I' for Inactive)
REMARK    1  A    between atoms: C_4  and  N_18
REMARK    2  A    between atoms: C_6  and  C_7
REMARK    3  A    between atoms: C_9  and  C_12
REMARK    4  A    between atoms: N_21  and  C_22
REMARK    5  A    between atoms: C_22  and  C_23
REMARK                            x       y       z     vdW  Elec       q    Type
REMARK                         _______ _______ _______ _____ _____    ______ ____
ROOT
ATOM      1  C   UNL     1       0.848   1.542  23.874  0.00  0.00    +0.090 C 
ATOM      2  N   UNL     1       0.220   1.138  24.221  0.00  0.00    -0.264 NA
ATOM      3  C   UNL     1       0.017   0.349  24.086  0.00  0.00    +0.094 C 
ATOM      4  C   UNL     1      -0.645   0.174  24.546  0.00  0.00    +0.115 C 
ATOM      5  C   UNL     1      -0.851   0.854  24.966  0.00  0.00    +0.049 C 
ATOM      6  C   UNL     1      -0.316   1.449  24.765  0.00  0.00    +0.139 C 
ENDROOT
BRANCH   6   7
ATOM      7  C   UNL     1      -0.318   2.221  25.057  0.00  0.00    +0.251 A 
ATOM      8  N   UNL     1      -0.841   2.820  24.840  0.00  0.00    -0.190 NA
ATOM      9  C   UNL     1      -0.643   3.498  25.266  0.00  0.00    +0.203 A 
ATOM     10  N   UNL     1       0.003   3.319  25.745  0.00  0.00    -0.056 NA
ATOM     11  O   UNL     1       0.204   2.529  25.616  0.00  0.00    -0.336 OA
BRANCH   9  12
ATOM     12  C   UNL     1      -1.024   4.229  25.220  0.00  0.00    +0.042 A 
ATOM     13  C   UNL     1      -0.651   4.866  24.851  0.00  0.00    +0.024 A 
ATOM     14  C   UNL     1      -1.032   5.596  24.805  0.00  0.00    +0.099 A 
ATOM     15  N   UNL     1      -1.785   5.689  25.128  0.00  0.00    -0.242 NA
ATOM     16  C   UNL     1      -2.159   5.053  25.496  0.00  0.00    +0.099 A 
ATOM     17  C   UNL     1      -1.777   4.322  25.542  0.00  0.00    +0.024 A 
ENDBRANCH   9  12
ENDBRANCH   6   7
BRANCH   4  18
ATOM     18  N   UNL     1      -1.033  -0.553  24.581  0.00  0.00    -0.187 NA
ATOM     19  C   UNL     1      -1.854  -0.580  24.656  0.00  0.00    +0.340 C 
ATOM     20  O   UNL     1      -2.288   0.120  24.696  0.00  0.00    -0.249 OA
ATOM     21  N   UNL     1      -2.241  -1.308  24.690  0.00  0.00    -0.182 NA
BRANCH  21  22
ATOM     22  C   UNL     1      -3.063  -1.334  24.765  0.00  0.00    +0.143 C 
BRANCH  22  23
ATOM     23  C   UNL     1      -3.482  -1.985  24.478  0.00  0.00    -0.001 A 
ATOM     24  C   UNL     1      -4.104  -1.873  23.948  0.00  0.00    -0.003 A 
ATOM     25  C   UNL     1      -4.523  -2.523  23.661  0.00  0.00    -0.000 A 
ATOM     26  C   UNL     1      -4.321  -3.285  23.904  0.00  0.00    -0.000 A 
ATOM     27  C   UNL     1      -3.698  -3.397  24.434  0.00  0.00    -0.000 A 
ATOM     28  C   UNL     1      -3.279  -2.747  24.721  0.00  0.00    -0.003 A 
ENDBRANCH  22  23
ENDBRANCH  21  22
ENDBRANCH   4  18
TORSDOF 5
ENDMDL
MODEL 6
REMARK VINA RESULT:      -9.8      3.943      6.396
REMARK  Name = 
REMARK  5 active torsions:
REMARK  status: ('A' for Active; 'I' for Inactive)
REMARK    1  A    between atoms: C_4  and  N_18
REMARK    2  A    between atoms: C_6  and  C_7
REMARK    3  A    between atoms: C_9  and  C_12
REMARK    4  A    between atoms: N_21  and  C_22
REMARK    5  A    between atoms: C_22  and  C_23
REMARK                            x       y       z     vdW  Elec       q    Type
REMARK                         _______ _______ _______ _____ _____    ______ ____
ROOT
ATOM      1  C   UNL     1      -2.136   1.843  23.717  0.00  0.00    +0.090 C 
ATOM      2  N   UNL     1      -1.425   1.477  23.915  0.00  0.00    -0.264 NA
ATOM      3  C   UNL     1      -0.669   1.765  23.750  0.00  0.00    +0.094 C 
ATOM      4  C   UNL     1      -0.121   1.224  24.046  0.00  0.00    +0.115 C 
ATOM      5  C   UNL     1      -0.537   0.602  24.394  0.00  0.00    +0.049 C 
ATOM      6  C   UNL     1      -1.344   0.759  24.313  0.00  0.00    +0.139 C 
ENDROOT
BRANCH   6   7
ATOM      7  C   UNL     1      -1.960   0.281  24.582  0.00  0.00    +0.251 A 
ATOM      8  N   UNL     1      -2.237  -0.404  24.216  0.00  0.00    -0.190 NA
ATOM      9  C   UNL     1      -2.855  -0.704  24.672  0.00  0.00    +0.203 A 
ATOM     10  N   UNL     1      -2.961  -0.204  25.319  0.00  0.00    -0.056 NA
ATOM     11  O   UNL     1      -2.408   0.405  25.263  0.00  0.00    -0.336 OA
BRANCH   9  12
ATOM     12  C   UNL     1      -3.292  -1.385  24.510  0.00  0.00    +0.042 A 
ATOM     13  C   UNL     1      -3.073  -2.106  24.845  0.00  0.00    +0.024 A 
ATOM     14  C   UNL     1      -3.509  -2.787  24.683  0.00  0.00    +0.099 A 
ATOM     15  N   UNL     1      -4.166  -2.746  24.185  0.00  0.00    -0.242 NA
ATOM     16  C   UNL     1      -4.386  -2.026  23.849  0.00  0.00    +0.099 A 
ATOM     17  C   UNL     1      -3.949  -1.345  24.012  0.00  0.00    +0.024 A 
ENDBRANCH   9  12
ENDBRANCH   6   7
BRANCH   4  18
ATOM     18  N   UNL     1       0.700   1.293  24.002  0.00  0.00    -0.187 NA
ATOM     19  C   UNL     1       1.127   0.817  23.481  0.00  0.00    +0.340 C 
ATOM     20  O   UNL     1       0.733   0.272  23.003  0.00  0.00    -0.249 OA
ATOM     21  N   UNL     1       1.948   0.887  23.437  0.00  0.00    -0.182 NA
BRANCH  21  22
ATOM     22  C   UNL     1       2.375   0.410  22.915  0.00  0.00    +0.143 C 
BRANCH  22  23
ATOM     23  C   UNL     1       3.198   0.383  22.961  0.00  0.00    -0.001 A 
ATOM     24  C   UNL     1       3.646   1.029  22.712  0.00  0.00    -0.003 A 
ATOM     25  C   UNL     1       4.469   1.003  22.758  0.00  0.00    -0.000 A 
ATOM     26  C   UNL     1       4.845   0.330  23.053  0.00  0.00    -0.000 A 
ATOM     27  C   UNL     1       4.396  -0.316  23.303  0.00  0.00    -0.000 A 
ATOM     28  C   UNL     1       3.573  -0.290  23.257  0.00  0.00    -0.003 A 
ENDBRANCH  22  23
ENDBRANCH  21  22
ENDBRANCH   4  18
TORSDOF 5
ENDMDL
MODEL 7
REMARK VINA RESULT:      -9.6      2.386      6.619
REMARK  Name = 
REMARK  5 active torsions:
REMARK  status: ('A' for Active; 'I' for Inactive)
REMARK    1  A    between atoms: C_4  and  N_18
REMARK    2  A    between atoms: C_6  and  C_7
REMARK    3  A    between atoms: C_9  and  C_12
REMARK    4  A    between atoms: N_21  and  C_22
REMARK    5  A    between atoms: C_22  and  C_23
REMARK                            x       y       z     vdW  Elec       q    Type
REMARK                         _______ _______ _______ _____ _____    ______ ____
ROOT
ATOM      1  C   UNL     1       0.303  -0.920  23.756  0.00  0.00    +0.090 C 
ATOM      2  N   UNL     1      -0.056  -0.309  24.176  0.00  0.00    -0.264 NA
ATOM      3  C   UNL     1       0.229   0.463  24.249  0.00  0.00    +0.094 C 
ATOM      4  C   UNL     1      -0.302   0.888  24.716  0.00  0.00    +0.115 C 
ATOM      5  C   UNL     1      -0.915   0.379  24.932  0.00  0.00    +0.049 C 
ATOM      6  C   UNL     1      -0.762  -0.360  24.598  0.00  0.00    +0.139 C 
ENDROOT
BRANCH   6   7
ATOM      7  C   UNL     1      -1.234  -1.033  24.674  0.00  0.00    +0.251 A 
ATOM      8  N   UNL     1      -1.997  -1.126  24.376  0.00  0.00    -0.190 NA
ATOM      9  C   UNL     1      -2.259  -1.881  24.579  0.00  0.00    +0.203 A 
ATOM     10  N   UNL     1      -1.659  -2.255  25.002  0.00  0.00    -0.056 NA
ATOM     11  O   UNL     1      -1.025  -1.731  25.060  0.00  0.00    -0.336 OA
BRANCH   9  12
ATOM     12  C   UNL     1      -2.995  -2.206  24.392  0.00  0.00    +0.042 A 
ATOM     13  C   UNL     1      -3.122  -3.016  24.479  0.00  0.00    +0.024 A 
ATOM     14  C   UNL     1      -3.857  -3.341  24.292  0.00  0.00    +0.099 A 
ATOM     15  N   UNL     1      -4.464  -2.855  24.017  0.00  0.00    -0.242 NA
ATOM     16  C   UNL     1      -4.337  -2.045  23.930  0.00  0.00    +0.099 A 
ATOM     17  C   UNL     1      -3.602  -1.720  24.117  0.00  0.00    +0.024 A 
ENDBRANCH   9  12
ENDBRANCH   6   7
BRANCH   4  18
ATOM     18  N   UNL     1      -0.233   1.681  24.929  0.00  0.00    -0.187 NA
ATOM     19  C   UNL     1      -0.622   2.262  24.492  0.00  0.00    +0.340 C 
ATOM     20  O   UNL     1      -1.082   2.049  23.841  0.00  0.00    -0.249 OA
ATOM     21  N   UNL     1      -0.552   3.056  24.706  0.00  0.00    -0.182 NA
BRANCH  21  22
ATOM     22  C   UNL     1      -0.943   3.636  24.267  0.00  0.00    +0.143 C 
BRANCH  22  23
ATOM     23  C   UNL     1      -1.219   4.319  24.641  0.00  0.00    -0.001 A 
ATOM     24  C   UNL     1      -0.761   5.004  24.638  0.00  0.00    -0.003 A 
ATOM     25  C   UNL     1      -1.036   5.686  25.011  0.00  0.00    -0.000 A 
ATOM     26  C   UNL     1      -1.770   5.683  25.387  0.00  0.00    -0.000 A 
ATOM     27  C   UNL     1      -2.228   4.997  25.391  0.00  0.00    -0.000 A 
ATOM     28  C   UNL     1      -1.953   4.315  25.018  0.00  0.00    -0.003 A 
ENDBRANCH  22  23
ENDBRANCH  21  22
ENDBRANCH   4  18
TORSDOF 5
ENDMDL
