REMARK  Name = 
REMARK  4 active torsions:
REMARK  status: ('A' for Active; 'I' for Inactive)
REMARK    1  A    between atoms: C_2  and  O_5
REMARK    2  A    between atoms: O_5  and  C_6
REMARK    3  A    between atoms: C_8  and  C_9
REMARK    4  A    between atoms: C_9  and  N_10
REMARK                            x       y       z     vdW  Elec       q    Type
REMARK                         _______ _______ _______ _____ _____    ______ ____
ROOT
ATOM     10  N   UNL     1       3.352   1.935   0.000  0.00  0.00    -0.266 NA
ATOM     11  C   UNL     1       3.352   1.110   0.000  0.00  0.00    +0.094 C 
ATOM     12  C   UNL     1       2.638   0.698   0.000  0.00  0.00    +0.112 C 
ATOM     13  N   UNL     1       1.923   1.110   0.000  0.00  0.00    -0.261 N 
ATOM     14  C   UNL     1       1.923   1.935   0.000  0.00  0.00    +0.113 C 
ATOM     15  C   UNL     1       1.139   2.190   0.000  0.00  0.00    +0.122 C 
ATOM     16  N   UNL     1       0.654   1.523   0.000  0.00  0.00    -0.226 N 
ATOM     17  C   UNL     1       1.139   0.856   0.000  0.00  0.00    +0.312 C 
ATOM     18  O   UNL     1       0.884   0.071   0.000  0.00  0.00    -0.252 OA
ATOM     19  C   UNL     1      -0.171   1.523   0.000  0.00  0.00    +0.139 A 
ATOM     20  N   UNL     1      -0.584   0.808   0.000  0.00  0.00    -0.229 NA
ATOM     21  C   UNL     1      -1.409   0.808   0.000  0.00  0.00    +0.100 A 
ATOM     22  C   UNL     1      -1.821   1.523   0.000  0.00  0.00    +0.021 A 
ATOM     23  C   UNL     1      -1.409   2.237   0.000  0.00  0.00    +0.004 A 
ATOM     24  C   UNL     1      -0.584   2.237   0.000  0.00  0.00    +0.035 A 
ATOM     25  C   UNL     1       2.638   2.348   0.000  0.00  0.00    +0.094 C 
ENDROOT
BRANCH  10   9
ATOM      9  C   UNL     1       4.067   2.348   0.000  0.00  0.00    +0.099 C 
BRANCH   9   8
ATOM      6  C   UNL     1       5.496   0.698   0.000  0.00  0.00    +0.147 A 
ATOM      7  C   UNL     1       4.781   1.110   0.000  0.00  0.00    +0.034 A 
ATOM      8  C   UNL     1       4.781   1.935   0.000  0.00  0.00    -0.003 A 
ATOM     26  C   UNL     1       5.496   2.348   0.000  0.00  0.00    -0.003 A 
ATOM     27  C   UNL     1       6.210   1.935   0.000  0.00  0.00    +0.003 A 
ATOM     28  C   UNL     1       6.210   1.110   0.000  0.00  0.00    +0.037 A 
BRANCH   6   5
ATOM      5  O   UNL     1       5.496  -0.127   0.000  0.00  0.00    -0.404 OA
BRANCH   5   2
ATOM      1  F   UNL     1       6.925  -0.952   0.000  0.00  0.00    -0.133 F 
ATOM      2  C   UNL     1       6.210  -0.540   0.000  0.00  0.00    +0.575 C 
ATOM      3  F   UNL     1       6.623   0.175   0.000  0.00  0.00    -0.133 F 
ATOM      4  F   UNL     1       5.798  -1.254   0.000  0.00  0.00    -0.133 F 
ENDBRANCH   5   2
ENDBRANCH   6   5
ENDBRANCH   9   8
ENDBRANCH  10   9
TORSDOF 4
