MODEL 1
REMARK VINA RESULT:     -11.7      0.000      0.000
REMARK  Name = 
REMARK  6 active torsions:
REMARK  status: ('A' for Active; 'I' for Inactive)
REMARK    1  A    between atoms: C_2  and  C_3
REMARK    2  A    between atoms: C_6  and  C_7
REMARK    3  A    between atoms: C_7  and  N_8
REMARK    4  A    between atoms: C_13  and  C_14
REMARK    5  A    between atoms: N_16  and  C_17
REMARK    6  A    between atoms: C_17  and  C_18
REMARK                            x       y       z     vdW  Elec       q    Type
REMARK                         _______ _______ _______ _____ _____    ______ ____
ROOT
ATOM      8  N   UNL     1      -3.358   2.410  24.740  0.00  0.00    -0.255 NA
ATOM      9  C   UNL     1      -3.636   3.040  25.193  0.00  0.00    +0.121 C 
ATOM     10  C   UNL     1      -4.444   3.116  25.342  0.00  0.00    +0.090 A 
ATOM     11  C   UNL     1      -4.974   2.562  25.038  0.00  0.00    +0.077 A 
ATOM     12  C   UNL     1      -4.695   1.931  24.584  0.00  0.00    +0.072 C 
ATOM     13  C   UNL     1      -3.887   1.855  24.435  0.00  0.00    +0.143 C 
ATOM     25  N   UNL     1      -5.733   2.778  25.274  0.00  0.00    -0.227 NA
ATOM     26  C   UNL     1      -5.674   3.466  25.725  0.00  0.00    +0.198 A 
ATOM     27  N   UNL     1      -4.877   3.675  25.767  0.00  0.00    -0.226 NA
ENDROOT
BRANCH  13  14
ATOM     14  C   UNL     1      -3.610   1.225  23.982  0.00  0.00    +0.257 C 
ATOM     15  O   UNL     1      -3.306   1.361  23.227  0.00  0.00    -0.272 OA
ATOM     16  N   UNL     1      -3.637   0.457  24.283  0.00  0.00    -0.199 NA
BRANCH  16  17
ATOM     17  C   UNL     1      -3.359  -0.174  23.830  0.00  0.00    +0.142 C 
BRANCH  17  18
ATOM     18  C   UNL     1      -3.406  -0.944  24.121  0.00  0.00    -0.001 A 
ATOM     19  C   UNL     1      -2.852  -1.212  24.670  0.00  0.00    -0.002 A 
ATOM     20  C   UNL     1      -2.899  -1.982  24.961  0.00  0.00    +0.011 A 
ATOM     21  C   UNL     1      -3.500  -2.485  24.704  0.00  0.00    +0.058 A 
ATOM     22 CL   UNL     1      -3.547  -3.256  24.995  0.00  0.00    -0.082 Cl
ATOM     23  C   UNL     1      -4.055  -2.217  24.154  0.00  0.00    +0.011 A 
ATOM     24  C   UNL     1      -4.008  -1.447  23.863  0.00  0.00    -0.002 A 
ENDBRANCH  17  18
ENDBRANCH  16  17
ENDBRANCH  13  14
BRANCH   8   7
ATOM      7  C   UNL     1      -2.551   2.334  24.591  0.00  0.00    +0.138 C 
BRANCH   7   6
ATOM      3  C   UNL     1      -1.272   3.983  25.043  0.00  0.00    +0.156 A 
ATOM      4  C   UNL     1      -1.139   3.495  25.694  0.00  0.00    +0.038 A 
ATOM      5  C   UNL     1      -1.601   2.817  25.604  0.00  0.00    +0.037 A 
ATOM      6  C   UNL     1      -2.021   2.887  24.897  0.00  0.00    +0.139 A 
ATOM     28  O   UNL     1      -1.818   3.608  24.550  0.00  0.00    -0.458 OA
BRANCH   3   2
ATOM      1  O   UNL     1      -1.285   5.405  25.187  0.00  0.00    -0.212 OA
ATOM      2  C   UNL     1      -0.923   4.718  24.908  0.00  0.00    +0.246 C 
ENDBRANCH   3   2
ENDBRANCH   7   6
ENDBRANCH   8   7
TORSDOF 6
ENDMDL
MODEL 2
REMARK VINA RESULT:     -10.3      1.924      4.308
REMARK  Name = 
REMARK  6 active torsions:
REMARK  status: ('A' for Active; 'I' for Inactive)
REMARK    1  A    between atoms: C_2  and  C_3
REMARK    2  A    between atoms: C_6  and  C_7
REMARK    3  A    between atoms: C_7  and  N_8
REMARK    4  A    between atoms: C_13  and  C_14
REMARK    5  A    between atoms: N_16  and  C_17
REMARK    6  A    between atoms: C_17  and  C_18
REMARK                            x       y       z     vdW  Elec       q    Type
REMARK                         _______ _______ _______ _____ _____    ______ ____
ROOT
ATOM      8  N   UNL     1      -4.145   1.226  24.377  0.00  0.00    -0.255 NA
ATOM      9  C   UNL     1      -4.896   1.003  24.633  0.00  0.00    +0.121 C 
ATOM     10  C   UNL     1      -5.398   1.561  24.978  0.00  0.00    +0.090 A 
ATOM     11  C   UNL     1      -5.146   2.341  25.067  0.00  0.00    +0.077 A 
ATOM     12  C   UNL     1      -4.394   2.565  24.811  0.00  0.00    +0.072 C 
ATOM     13  C   UNL     1      -3.894   2.007  24.466  0.00  0.00    +0.143 C 
ATOM     25  N   UNL     1      -5.756   2.766  25.425  0.00  0.00    -0.227 NA
ATOM     26  C   UNL     1      -6.384   2.248  25.557  0.00  0.00    +0.198 A 
ATOM     27  N   UNL     1      -6.162   1.504  25.281  0.00  0.00    -0.226 NA
ENDROOT
BRANCH  13  14
ATOM     14  C   UNL     1      -3.143   2.231  24.210  0.00  0.00    +0.257 C 
ATOM     15  O   UNL     1      -2.995   2.339  23.405  0.00  0.00    -0.272 OA
ATOM     16  N   UNL     1      -2.538   2.347  24.760  0.00  0.00    -0.199 NA
BRANCH  16  17
ATOM     17  C   UNL     1      -1.786   2.571  24.504  0.00  0.00    +0.142 C 
BRANCH  17  18
ATOM     18  C   UNL     1      -1.156   2.585  25.036  0.00  0.00    -0.001 A 
ATOM     19  C   UNL     1      -1.111   3.177  25.607  0.00  0.00    -0.002 A 
ATOM     20  C   UNL     1      -0.480   3.191  26.139  0.00  0.00    +0.011 A 
ATOM     21  C   UNL     1       0.105   2.612  26.099  0.00  0.00    +0.058 A 
ATOM     22 CL   UNL     1       0.736   2.625  26.631  0.00  0.00    -0.082 Cl
ATOM     23  C   UNL     1       0.060   2.018  25.527  0.00  0.00    +0.011 A 
ATOM     24  C   UNL     1      -0.570   2.004  24.995  0.00  0.00    -0.002 A 
ENDBRANCH  17  18
ENDBRANCH  16  17
ENDBRANCH  13  14
BRANCH   8   7
ATOM      7  C   UNL     1      -3.645   0.669  24.031  0.00  0.00    +0.138 C 
BRANCH   7   6
ATOM      3  C   UNL     1      -3.624  -1.297  24.863  0.00  0.00    +0.156 A 
ATOM      4  C   UNL     1      -4.059  -1.420  24.174  0.00  0.00    +0.038 A 
ATOM      5  C   UNL     1      -4.120  -0.698  23.778  0.00  0.00    +0.037 A 
ATOM      6  C   UNL     1      -3.723  -0.129  24.223  0.00  0.00    +0.139 A 
ATOM     28  O   UNL     1      -3.415  -0.499  24.894  0.00  0.00    -0.458 OA
BRANCH   3   2
ATOM      1  O   UNL     1      -3.584  -2.667  25.269  0.00  0.00    -0.212 OA
ATOM      2  C   UNL     1      -3.430  -1.871  25.423  0.00  0.00    +0.246 C 
ENDBRANCH   3   2
ENDBRANCH   7   6
ENDBRANCH   8   7
TORSDOF 6
ENDMDL
MODEL 3
REMARK VINA RESULT:     -10.3      2.462      3.626
REMARK  Name = 
REMARK  6 active torsions:
REMARK  status: ('A' for Active; 'I' for Inactive)
REMARK    1  A    between atoms: C_2  and  C_3
REMARK    2  A    between atoms: C_6  and  C_7
REMARK    3  A    between atoms: C_7  and  N_8
REMARK    4  A    between atoms: C_13  and  C_14
REMARK    5  A    between atoms: N_16  and  C_17
REMARK    6  A    between atoms: C_17  and  C_18
REMARK                            x       y       z     vdW  Elec       q    Type
REMARK                         _______ _______ _______ _____ _____    ______ ____
ROOT
ATOM      8  N   UNL     1      -0.530   0.740  24.855  0.00  0.00    -0.255 NA
ATOM      9  C   UNL     1       0.052   1.141  24.430  0.00  0.00    +0.121 C 
ATOM     10  C   UNL     1       0.496   0.742  23.861  0.00  0.00    +0.090 A 
ATOM     11  C   UNL     1       0.357  -0.059  23.716  0.00  0.00    +0.077 A 
ATOM     12  C   UNL     1      -0.226  -0.460  24.141  0.00  0.00    +0.072 C 
ATOM     13  C   UNL     1      -0.669  -0.060  24.710  0.00  0.00    +0.143 C 
ATOM     25  N   UNL     1       0.877  -0.305  23.126  0.00  0.00    -0.227 NA
ATOM     26  C   UNL     1       1.338   0.342  22.905  0.00  0.00    +0.198 A 
ATOM     27  N   UNL     1       1.102   0.989  23.360  0.00  0.00    -0.226 NA
ENDROOT
BRANCH  13  14
ATOM     14  C   UNL     1      -1.252  -0.461  25.135  0.00  0.00    +0.257 C 
ATOM     15  O   UNL     1      -1.161  -0.584  25.945  0.00  0.00    -0.272 OA
ATOM     16  N   UNL     1      -1.926  -0.739  24.747  0.00  0.00    -0.199 NA
BRANCH  16  17
ATOM     17  C   UNL     1      -2.508  -1.141  25.172  0.00  0.00    +0.142 C 
BRANCH  17  18
ATOM     18  C   UNL     1      -3.101  -1.552  24.772  0.00  0.00    -0.001 A 
ATOM     19  C   UNL     1      -3.092  -2.376  24.755  0.00  0.00    -0.002 A 
ATOM     20  C   UNL     1      -3.685  -2.787  24.356  0.00  0.00    +0.011 A 
ATOM     21  C   UNL     1      -4.287  -2.374  23.972  0.00  0.00    +0.058 A 
ATOM     22 CL   UNL     1      -4.880  -2.786  23.572  0.00  0.00    -0.082 Cl
ATOM     23  C   UNL     1      -4.297  -1.549  23.989  0.00  0.00    +0.011 A 
ATOM     24  C   UNL     1      -3.704  -1.138  24.389  0.00  0.00    -0.002 A 
ENDBRANCH  17  18
ENDBRANCH  16  17
ENDBRANCH  13  14
BRANCH   8   7
ATOM      7  C   UNL     1      -0.974   1.139  25.424  0.00  0.00    +0.138 C 
BRANCH   7   6
ATOM      3  C   UNL     1      -1.100   3.269  25.329  0.00  0.00    +0.156 A 
ATOM      4  C   UNL     1      -0.511   3.169  25.899  0.00  0.00    +0.038 A 
ATOM      5  C   UNL     1      -0.392   2.359  26.003  0.00  0.00    +0.037 A 
ATOM      6  C   UNL     1      -0.907   1.958  25.499  0.00  0.00    +0.139 A 
ATOM     28  O   UNL     1      -1.345   2.521  25.082  0.00  0.00    -0.458 OA
BRANCH   3   2
ATOM      1  O   UNL     1      -0.905   4.656  25.048  0.00  0.00    -0.212 OA
ATOM      2  C   UNL     1      -1.392   3.990  25.056  0.00  0.00    +0.246 C 
ENDBRANCH   3   2
ENDBRANCH   7   6
ENDBRANCH   8   7
TORSDOF 6
ENDMDL
MODEL 4
REMARK VINA RESULT:     -10.2      1.532      2.848
REMARK  Name = 
REMARK  6 active torsions:
REMARK  status: ('A' for Active; 'I' for Inactive)
REMARK    1  A    between atoms: C_2  and  C_3
REMARK    2  A    between atoms: C_6  and  C_7
REMARK    3  A    between atoms: C_7  and  N_8
REMARK    4  A    between atoms: C_13  and  C_14
REMARK    5  A    between atoms: N_16  and  C_17
REMARK    6  A    between atoms: C_17  and  C_18
REMARK                            x       y       z     vdW  Elec       q    Type
REMARK                         _______ _______ _______ _____ _____    ______ ____
ROOT
ATOM      8  N   UNL     1      -2.280   2.224  24.661  0.00  0.00    -0.255 NA
ATOM      9  C   UNL     1      -1.997   2.807  25.169  0.00  0.00    +0.121 C 
ATOM     10  C   UNL     1      -1.283   2.697  25.568  0.00  0.00    +0.090 A 
ATOM     11  C   UNL     1      -0.852   2.002  25.458  0.00  0.00    +0.077 A 
ATOM     12  C   UNL     1      -1.136   1.417  24.948  0.00  0.00    +0.072 C 
ATOM     13  C   UNL     1      -1.850   1.528  24.551  0.00  0.00    +0.143 C 
ATOM     25  N   UNL     1      -0.172   2.047  25.921  0.00  0.00    -0.227 NA
ATOM     26  C   UNL     1      -0.181   2.769  26.318  0.00  0.00    +0.198 A 
ATOM     27  N   UNL     1      -0.868   3.171  26.100  0.00  0.00    -0.226 NA
ENDROOT
BRANCH  13  14
ATOM     14  C   UNL     1      -2.133   0.944  24.042  0.00  0.00    +0.257 C 
ATOM     15  O   UNL     1      -2.148   1.076  23.228  0.00  0.00    -0.272 OA
ATOM     16  N   UNL     1      -2.402   0.226  24.349  0.00  0.00    -0.199 NA
BRANCH  16  17
ATOM     17  C   UNL     1      -2.685  -0.359  23.840  0.00  0.00    +0.142 C 
BRANCH  17  18
ATOM     18  C   UNL     1      -2.922  -1.089  24.142  0.00  0.00    -0.001 A 
ATOM     19  C   UNL     1      -3.725  -1.259  24.224  0.00  0.00    -0.002 A 
ATOM     20  C   UNL     1      -3.962  -1.989  24.526  0.00  0.00    +0.011 A 
ATOM     21  C   UNL     1      -3.398  -2.549  24.745  0.00  0.00    +0.058 A 
ATOM     22 CL   UNL     1      -3.636  -3.279  25.046  0.00  0.00    -0.082 Cl
ATOM     23  C   UNL     1      -2.594  -2.379  24.662  0.00  0.00    +0.011 A 
ATOM     24  C   UNL     1      -2.356  -1.648  24.360  0.00  0.00    -0.002 A 
ENDBRANCH  17  18
ENDBRANCH  16  17
ENDBRANCH  13  14
BRANCH   8   7
ATOM      7  C   UNL     1      -2.994   2.334  24.263  0.00  0.00    +0.138 C 
BRANCH   7   6
ATOM      3  C   UNL     1      -4.629   3.191  25.335  0.00  0.00    +0.156 A 
ATOM      4  C   UNL     1      -4.366   3.841  24.901  0.00  0.00    +0.038 A 
ATOM      5  C   UNL     1      -3.721   3.599  24.446  0.00  0.00    +0.037 A 
ATOM      6  C   UNL     1      -3.586   2.800  24.599  0.00  0.00    +0.139 A 
ATOM     28  O   UNL     1      -4.147   2.547  25.149  0.00  0.00    -0.458 OA
BRANCH   3   2
ATOM      1  O   UNL     1      -5.825   3.789  25.838  0.00  0.00    -0.212 OA
ATOM      2  C   UNL     1      -5.263   3.185  25.863  0.00  0.00    +0.246 C 
ENDBRANCH   3   2
ENDBRANCH   7   6
ENDBRANCH   8   7
TORSDOF 6
ENDMDL
MODEL 5
REMARK VINA RESULT:      -9.9      2.153      3.998
REMARK  Name = 
REMARK  6 active torsions:
REMARK  status: ('A' for Active; 'I' for Inactive)
REMARK    1  A    between atoms: C_2  and  C_3
REMARK    2  A    between atoms: C_6  and  C_7
REMARK    3  A    between atoms: C_7  and  N_8
REMARK    4  A    between atoms: C_13  and  C_14
REMARK    5  A    between atoms: N_16  and  C_17
REMARK    6  A    between atoms: C_17  and  C_18
REMARK                            x       y       z     vdW  Elec       q    Type
REMARK                         _______ _______ _______ _____ _____    ______ ____
ROOT
ATOM      8  N   UNL     1      -1.580   0.497  24.348  0.00  0.00    -0.255 NA
ATOM      9  C   UNL     1      -1.023  -0.028  24.654  0.00  0.00    +0.121 C 
ATOM     10  C   UNL     1      -1.235  -0.809  24.813  0.00  0.00    +0.090 A 
ATOM     11  C   UNL     1      -2.006  -1.065  24.667  0.00  0.00    +0.077 A 
ATOM     12  C   UNL     1      -2.564  -0.539  24.361  0.00  0.00    +0.072 C 
ATOM     13  C   UNL     1      -2.350   0.242  24.202  0.00  0.00    +0.143 C 
ATOM     25  N   UNL     1      -2.055  -1.860  24.877  0.00  0.00    -0.227 NA
ATOM     26  C   UNL     1      -1.315  -2.097  25.153  0.00  0.00    +0.198 A 
ATOM     27  N   UNL     1      -0.809  -1.447  25.114  0.00  0.00    -0.226 NA
ENDROOT
BRANCH  13  14
ATOM     14  C   UNL     1      -2.908   0.767  23.896  0.00  0.00    +0.257 C 
ATOM     15  O   UNL     1      -2.884   0.978  23.099  0.00  0.00    -0.272 OA
ATOM     16  N   UNL     1      -3.492   1.081  24.389  0.00  0.00    -0.199 NA
BRANCH  16  17
ATOM     17  C   UNL     1      -4.050   1.606  24.083  0.00  0.00    +0.142 C 
BRANCH  17  18
ATOM     18  C   UNL     1      -4.572   1.995  24.589  0.00  0.00    -0.001 A 
ATOM     19  C   UNL     1      -5.242   1.604  24.870  0.00  0.00    -0.002 A 
ATOM     20  C   UNL     1      -5.764   1.993  25.376  0.00  0.00    +0.011 A 
ATOM     21  C   UNL     1      -5.617   2.772  25.602  0.00  0.00    +0.058 A 
ATOM     22 CL   UNL     1      -6.139   3.161  26.109  0.00  0.00    -0.082 Cl
ATOM     23  C   UNL     1      -4.946   3.163  25.321  0.00  0.00    +0.011 A 
ATOM     24  C   UNL     1      -4.424   2.775  24.815  0.00  0.00    -0.002 A 
ENDBRANCH  17  18
ENDBRANCH  16  17
ENDBRANCH  13  14
BRANCH   8   7
ATOM      7  C   UNL     1      -1.367   1.278  24.188  0.00  0.00    +0.138 C 
BRANCH   7   6
ATOM      3  C   UNL     1      -0.157   2.252  25.654  0.00  0.00    +0.156 A 
ATOM      4  C   UNL     1       0.376   2.181  25.028  0.00  0.00    +0.038 A 
ATOM      5  C   UNL     1      -0.013   1.808  24.403  0.00  0.00    +0.037 A 
ATOM      6  C   UNL     1      -0.786   1.647  24.642  0.00  0.00    +0.139 A 
ATOM     28  O   UNL     1      -0.875   1.922  25.415  0.00  0.00    -0.458 OA
BRANCH   3   2
ATOM      1  O   UNL     1       0.769   2.592  26.687  0.00  0.00    -0.212 OA
ATOM      2  C   UNL     1      -0.001   2.593  26.388  0.00  0.00    +0.246 C 
ENDBRANCH   3   2
ENDBRANCH   7   6
ENDBRANCH   8   7
TORSDOF 6
ENDMDL
MODEL 6
REMARK VINA RESULT:      -9.9      2.934      5.713
REMARK  Name = 
REMARK  6 active torsions:
REMARK  status: ('A' for Active; 'I' for Inactive)
REMARK    1  A    between atoms: C_2  and  C_3
REMARK    2  A    between atoms: C_6  and  C_7
REMARK    3  A    between atoms: C_7  and  N_8
REMARK    4  A    between atoms: C_13  and  C_14
REMARK    5  A    between atoms: N_16  and  C_17
REMARK    6  A    between atoms: C_17  and  C_18
REMARK                            x       y       z     vdW  Elec       q    Type
REMARK                         _______ _______ _______ _____ _____    ______ ____
ROOT
ATOM      8  N   UNL     1      -0.980   0.232  24.879  0.00  0.00    -0.255 NA
ATOM      9  C   UNL     1      -0.817  -0.341  24.309  0.00  0.00    +0.121 C 
ATOM     10  C   UNL     1      -0.179  -0.241  23.794  0.00  0.00    +0.090 A 
ATOM     11  C   UNL     1       0.294   0.433  23.850  0.00  0.00    +0.077 A 
ATOM     12  C   UNL     1       0.130   1.006  24.421  0.00  0.00    +0.072 C 
ATOM     13  C   UNL     1      -0.507   0.905  24.935  0.00  0.00    +0.143 C 
ATOM     25  N   UNL     1       0.880   0.381  23.272  0.00  0.00    -0.227 NA
ATOM     26  C   UNL     1       0.769  -0.323  22.858  0.00  0.00    +0.198 A 
ATOM     27  N   UNL     1       0.114  -0.707  23.181  0.00  0.00    -0.226 NA
ENDROOT
BRANCH  13  14
ATOM     14  C   UNL     1      -0.670   1.478  25.506  0.00  0.00    +0.257 C 
ATOM     15  O   UNL     1      -0.582   1.301  26.307  0.00  0.00    -0.272 OA
ATOM     16  N   UNL     1      -0.922   2.229  25.275  0.00  0.00    -0.199 NA
BRANCH  16  17
ATOM     17  C   UNL     1      -1.085   2.802  25.845  0.00  0.00    +0.142 C 
BRANCH  17  18
ATOM     18  C   UNL     1      -1.281   3.570  25.615  0.00  0.00    -0.001 A 
ATOM     19  C   UNL     1      -2.037   3.864  25.763  0.00  0.00    -0.002 A 
ATOM     20  C   UNL     1      -2.233   4.632  25.533  0.00  0.00    +0.011 A 
ATOM     21  C   UNL     1      -1.673   5.105  25.155  0.00  0.00    +0.058 A 
ATOM     22 CL   UNL     1      -1.869   5.873  24.925  0.00  0.00    -0.082 Cl
ATOM     23  C   UNL     1      -0.916   4.811  25.007  0.00  0.00    +0.011 A 
ATOM     24  C   UNL     1      -0.720   4.043  25.237  0.00  0.00    -0.002 A 
ENDBRANCH  17  18
ENDBRANCH  16  17
ENDBRANCH  13  14
BRANCH   8   7
ATOM      7  C   UNL     1      -1.617   0.131  25.393  0.00  0.00    +0.138 C 
BRANCH   7   6
ATOM      3  C   UNL     1      -3.364  -0.821  24.619  0.00  0.00    +0.156 A 
ATOM      4  C   UNL     1      -3.054  -1.420  25.094  0.00  0.00    +0.038 A 
ATOM      5  C   UNL     1      -2.361  -1.136  25.441  0.00  0.00    +0.037 A 
ATOM      6  C   UNL     1      -2.244  -0.362  25.182  0.00  0.00    +0.139 A 
ATOM     28  O   UNL     1      -2.864  -0.167  24.673  0.00  0.00    -0.458 OA
BRANCH   3   2
ATOM      1  O   UNL     1      -4.309  -1.598  23.880  0.00  0.00    -0.212 OA
ATOM      2  C   UNL     1      -4.054  -0.868  24.168  0.00  0.00    +0.246 C 
ENDBRANCH   3   2
ENDBRANCH   7   6
ENDBRANCH   8   7
TORSDOF 6
ENDMDL
MODEL 7
REMARK VINA RESULT:      -9.6      2.312      4.364
REMARK  Name = 
REMARK  6 active torsions:
REMARK  status: ('A' for Active; 'I' for Inactive)
REMARK    1  A    between atoms: C_2  and  C_3
REMARK    2  A    between atoms: C_6  and  C_7
REMARK    3  A    between atoms: C_7  and  N_8
REMARK    4  A    between atoms: C_13  and  C_14
REMARK    5  A    between atoms: N_16  and  C_17
REMARK    6  A    between atoms: C_17  and  C_18
REMARK                            x       y       z     vdW  Elec       q    Type
REMARK                         _______ _______ _______ _____ _____    ______ ____
ROOT
ATOM      8  N   UNL     1      -1.048   1.512  24.560  0.00  0.00    -0.255 NA
ATOM      9  C   UNL     1      -0.351   1.473  24.999  0.00  0.00    +0.121 C 
ATOM     10  C   UNL     1      -0.152   2.085  25.515  0.00  0.00    +0.090 A 
ATOM     11  C   UNL     1      -0.651   2.738  25.592  0.00  0.00    +0.077 A 
ATOM     12  C   UNL     1      -1.349   2.778  25.152  0.00  0.00    +0.072 C 
ATOM     13  C   UNL     1      -1.547   2.165  24.637  0.00  0.00    +0.143 C 
ATOM     25  N   UNL     1      -0.314   3.254  26.139  0.00  0.00    -0.227 NA
ATOM     26  C   UNL     1       0.393   2.921  26.401  0.00  0.00    +0.198 A 
ATOM     27  N   UNL     1       0.493   2.199  26.015  0.00  0.00    -0.226 NA
ENDROOT
BRANCH  13  14
ATOM     14  C   UNL     1      -2.244   2.205  24.198  0.00  0.00    +0.257 C 
ATOM     15  O   UNL     1      -2.212   2.304  23.380  0.00  0.00    -0.272 OA
ATOM     16  N   UNL     1      -2.974   2.145  24.579  0.00  0.00    -0.199 NA
BRANCH  16  17
ATOM     17  C   UNL     1      -3.672   2.186  24.140  0.00  0.00    +0.142 C 
BRANCH  17  18
ATOM     18  C   UNL     1      -4.402   2.119  24.518  0.00  0.00    -0.001 A 
ATOM     19  C   UNL     1      -4.742   1.376  24.630  0.00  0.00    -0.002 A 
ATOM     20  C   UNL     1      -5.472   1.310  25.008  0.00  0.00    +0.011 A 
ATOM     21  C   UNL     1      -5.863   1.986  25.274  0.00  0.00    +0.058 A 
ATOM     22 CL   UNL     1      -6.593   1.920  25.652  0.00  0.00    -0.082 Cl
ATOM     23  C   UNL     1      -5.522   2.730  25.161  0.00  0.00    +0.011 A 
ATOM     24  C   UNL     1      -4.792   2.796  24.783  0.00  0.00    -0.002 A 
ENDBRANCH  17  18
ENDBRANCH  16  17
ENDBRANCH  13  14
BRANCH   8   7
ATOM      7  C   UNL     1      -1.246   0.900  24.045  0.00  0.00    +0.138 C 
BRANCH   7   6
ATOM      3  C   UNL     1      -0.883  -1.109  24.669  0.00  0.00    +0.156 A 
ATOM      4  C   UNL     1      -0.242  -0.981  24.167  0.00  0.00    +0.038 A 
ATOM      5  C   UNL     1      -0.300  -0.212  23.871  0.00  0.00    +0.037 A 
ATOM      6  C   UNL     1      -0.977   0.134  24.192  0.00  0.00    +0.139 A 
ATOM     28  O   UNL     1      -1.338  -0.420  24.685  0.00  0.00    -0.458 OA
BRANCH   3   2
ATOM      1  O   UNL     1      -1.519  -2.387  24.744  0.00  0.00    -0.212 OA
ATOM      2  C   UNL     1      -1.043  -1.804  25.084  0.00  0.00    +0.246 C 
ENDBRANCH   3   2
ENDBRANCH   7   6
ENDBRANCH   8   7
TORSDOF 6
ENDMDL
