MODEL 1
REMARK VINA RESULT:     -13.9      0.000      0.000
REMARK  Name = 
REMARK  6 active torsions:
REMARK  status: ('A' for Active; 'I' for Inactive)
REMARK    1  A    between atoms: C_2  and  C_3
REMARK    2  A    between atoms: C_11  and  C_12
REMARK    3  A    between atoms: C_12  and  C_13
REMARK    4  A    between atoms: N_15  and  C_16
REMARK    5  A    between atoms: C_16  and  C_17
REMARK    6  A    between atoms: C_29  and  C_31
REMARK                            x       y       z     vdW  Elec       q    Type
REMARK                         _______ _______ _______ _____ _____    ______ ____
ROOT
ATOM      1  C   UNL     1      -2.456  -2.957  24.528  0.00  0.00    +0.005 C 
ATOM      2  C   UNL     1      -2.717  -2.176  24.484  0.00  0.00    +0.059 C 
ATOM      5  C   UNL     1      -3.418  -2.572  24.306  0.00  0.00    +0.154 C 
ATOM      6  O   UNL     1      -3.433  -3.397  24.283  0.00  0.00    -0.223 OA
ATOM      7  C   UNL     1      -4.107  -2.143  24.151  0.00  0.00    +0.033 C 
ATOM      8  C   UNL     1      -4.093  -1.319  24.174  0.00  0.00    +0.003 C 
ATOM      9  C   UNL     1      -3.392  -0.923  24.352  0.00  0.00    +0.006 C 
ATOM     10  C   UNL     1      -4.079  -0.496  24.197  0.00  0.00    +0.000 C 
ATOM     11  C   UNL     1      -3.378  -0.099  24.375  0.00  0.00    +0.050 C 
ATOM     22  C   UNL     1      -2.677   0.297  24.552  0.00  0.00    +0.063 A 
ATOM     23  C   UNL     1      -1.988  -0.132  24.707  0.00  0.00    +0.023 A 
ATOM     24  C   UNL     1      -2.002  -0.955  24.685  0.00  0.00    +0.034 C 
ATOM     25  C   UNL     1      -2.704  -1.352  24.507  0.00  0.00    +0.010 C 
ATOM     26  S   UNL     1      -1.384   0.407  24.865  0.00  0.00    -0.054 S 
ATOM     27  C   UNL     1      -1.697   1.168  24.808  0.00  0.00    +0.185 A 
ATOM     28  N   UNL     1      -1.284   1.873  24.924  0.00  0.00    -0.154 NA
ATOM     29  C   UNL     1      -1.673   2.595  24.848  0.00  0.00    +0.247 C 
ATOM     30  O   UNL     1      -2.476   2.615  24.656  0.00  0.00    -0.273 OA
ATOM     35  N   UNL     1      -2.496   1.100  24.615  0.00  0.00    -0.227 NA
ENDROOT
BRANCH  29  31
ATOM     31  C   UNL     1      -1.261   3.300  24.963  0.00  0.00    +0.079 C 
ATOM     32  C   UNL     1      -0.587   3.644  24.632  0.00  0.00    +0.009 C 
ATOM     33  C   UNL     1      -0.677   4.297  25.127  0.00  0.00    +0.001 C 
ATOM     34  C   UNL     1      -1.349   3.954  25.459  0.00  0.00    +0.009 C 
ENDBRANCH  29  31
BRANCH   2   3
ATOM      3  C   UNL     1      -1.925  -2.052  24.677  0.00  0.00    +0.184 C 
ATOM      4  O   UNL     1      -1.417  -2.695  24.772  0.00  0.00    -0.220 OA
ENDBRANCH   2   3
BRANCH  11  12
ATOM     12  C   UNL     1      -4.066   0.330  24.220  0.00  0.00    +0.093 C 
BRANCH  12  13
ATOM     13  C   UNL     1      -4.497   0.657  24.843  0.00  0.00    +0.242 C 
ATOM     14  O   UNL     1      -4.523   0.274  25.572  0.00  0.00    -0.273 OA
ATOM     15  N   UNL     1      -4.902   1.367  24.735  0.00  0.00    -0.197 NA
BRANCH  15  16
ATOM     16  C   UNL     1      -5.333   1.695  25.357  0.00  0.00    +0.179 C 
BRANCH  16  17
ATOM     17  C   UNL     1      -5.427   2.513  25.409  0.00  0.00    +0.145 A 
ATOM     18  C   UNL     1      -5.498   2.950  26.105  0.00  0.00    +0.038 A 
ATOM     19  C   UNL     1      -5.581   3.744  25.900  0.00  0.00    +0.043 A 
ATOM     20  C   UNL     1      -5.563   3.798  25.077  0.00  0.00    +0.179 A 
ATOM     21  O   UNL     1      -5.468   3.037  24.774  0.00  0.00    -0.453 OA
ENDBRANCH  16  17
ENDBRANCH  15  16
ENDBRANCH  12  13
ENDBRANCH  11  12
TORSDOF 6
ENDMDL
MODEL 2
REMARK VINA RESULT:     -13.7      1.722      5.364
REMARK  Name = 
REMARK  6 active torsions:
REMARK  status: ('A' for Active; 'I' for Inactive)
REMARK    1  A    between atoms: C_2  and  C_3
REMARK    2  A    between atoms: C_11  and  C_12
REMARK    3  A    between atoms: C_12  and  C_13
REMARK    4  A    between atoms: N_15  and  C_16
REMARK    5  A    between atoms: C_16  and  C_17
REMARK    6  A    between atoms: C_29  and  C_31
REMARK                            x       y       z     vdW  Elec       q    Type
REMARK                         _______ _______ _______ _____ _____    ______ ____
ROOT
ATOM      1  C   UNL     1      -5.260   3.849  25.514  0.00  0.00    +0.005 C 
ATOM      2  C   UNL     1      -4.738   3.298  25.192  0.00  0.00    +0.059 C 
ATOM      5  C   UNL     1      -4.350   3.997  24.990  0.00  0.00    +0.154 C 
ATOM      6  O   UNL     1      -4.674   4.726  25.203  0.00  0.00    -0.223 OA
ATOM      7  C   UNL     1      -3.636   3.969  24.575  0.00  0.00    +0.033 C 
ATOM      8  C   UNL     1      -3.312   3.241  24.362  0.00  0.00    +0.003 C 
ATOM      9  C   UNL     1      -3.700   2.542  24.564  0.00  0.00    +0.006 C 
ATOM     10  C   UNL     1      -2.988   2.514  24.149  0.00  0.00    +0.000 C 
ATOM     11  C   UNL     1      -3.376   1.814  24.351  0.00  0.00    +0.050 C 
ATOM     22  C   UNL     1      -3.764   1.115  24.552  0.00  0.00    +0.063 A 
ATOM     23  C   UNL     1      -4.477   1.143  24.967  0.00  0.00    +0.023 A 
ATOM     24  C   UNL     1      -4.801   1.871  25.180  0.00  0.00    +0.034 C 
ATOM     25  C   UNL     1      -4.413   2.571  24.979  0.00  0.00    +0.010 C 
ATOM     26  S   UNL     1      -4.731   0.368  25.089  0.00  0.00    -0.054 S 
ATOM     27  C   UNL     1      -4.177  -0.140  24.749  0.00  0.00    +0.185 A 
ATOM     28  N   UNL     1      -4.214  -0.964  24.743  0.00  0.00    -0.154 NA
ATOM     29  C   UNL     1      -3.615  -1.400  24.381  0.00  0.00    +0.247 C 
ATOM     30  O   UNL     1      -2.979  -1.013  24.024  0.00  0.00    -0.273 OA
ATOM     35  N   UNL     1      -3.579   0.322  24.418  0.00  0.00    -0.227 NA
ENDROOT
BRANCH  29  31
ATOM     31  C   UNL     1      -3.652  -2.224  24.374  0.00  0.00    +0.079 C 
ATOM     32  C   UNL     1      -3.307  -2.828  24.820  0.00  0.00    +0.009 C 
ATOM     33  C   UNL     1      -3.704  -3.390  24.365  0.00  0.00    +0.001 C 
ATOM     34  C   UNL     1      -4.048  -2.788  23.919  0.00  0.00    +0.009 C 
ENDBRANCH  29  31
BRANCH   2   3
ATOM      3  C   UNL     1      -5.307   2.790  25.505  0.00  0.00    +0.184 C 
ATOM      4  O   UNL     1      -5.928   3.095  25.956  0.00  0.00    -0.220 OA
ENDBRANCH   2   3
BRANCH  11  12
ATOM     12  C   UNL     1      -2.663   1.785  23.936  0.00  0.00    +0.093 C 
BRANCH  12  13
ATOM     13  C   UNL     1      -1.967   1.571  24.325  0.00  0.00    +0.242 C 
ATOM     14  O   UNL     1      -1.908   1.662  25.142  0.00  0.00    -0.273 OA
ATOM     15  N   UNL     1      -1.333   1.265  23.896  0.00  0.00    -0.197 NA
BRANCH  15  16
ATOM     16  C   UNL     1      -0.638   1.050  24.285  0.00  0.00    +0.179 C 
BRANCH  16  17
ATOM     17  C   UNL     1      -0.021   0.700  23.863  0.00  0.00    +0.145 A 
ATOM     18  C   UNL     1       0.028  -0.095  23.645  0.00  0.00    +0.038 A 
ATOM     19  C   UNL     1       0.734  -0.202  23.234  0.00  0.00    +0.043 A 
ATOM     20  C   UNL     1       1.122   0.525  23.197  0.00  0.00    +0.179 A 
ATOM     21  O   UNL     1       0.655   1.082  23.586  0.00  0.00    -0.453 OA
ENDBRANCH  16  17
ENDBRANCH  15  16
ENDBRANCH  12  13
ENDBRANCH  11  12
TORSDOF 6
ENDMDL
MODEL 3
REMARK VINA RESULT:     -13.4      1.022      3.159
REMARK  Name = 
REMARK  6 active torsions:
REMARK  status: ('A' for Active; 'I' for Inactive)
REMARK    1  A    between atoms: C_2  and  C_3
REMARK    2  A    between atoms: C_11  and  C_12
REMARK    3  A    between atoms: C_12  and  C_13
REMARK    4  A    between atoms: N_15  and  C_16
REMARK    5  A    between atoms: C_16  and  C_17
REMARK    6  A    between atoms: C_29  and  C_31
REMARK                            x       y       z     vdW  Elec       q    Type
REMARK                         _______ _______ _______ _____ _____    ______ ____
ROOT
ATOM      1  C   UNL     1      -3.375  -2.956  24.120  0.00  0.00    +0.005 C 
ATOM      2  C   UNL     1      -3.167  -2.197  24.366  0.00  0.00    +0.059 C 
ATOM      5  C   UNL     1      -2.435  -2.571  24.423  0.00  0.00    +0.154 C 
ATOM      6  O   UNL     1      -2.363  -3.369  24.226  0.00  0.00    -0.223 OA
ATOM      7  C   UNL     1      -1.773  -2.147  24.676  0.00  0.00    +0.033 C 
ATOM      8  C   UNL     1      -1.845  -1.350  24.872  0.00  0.00    +0.003 C 
ATOM      9  C   UNL     1      -2.577  -0.975  24.816  0.00  0.00    +0.006 C 
ATOM     10  C   UNL     1      -1.916  -0.552  25.068  0.00  0.00    +0.000 C 
ATOM     11  C   UNL     1      -2.649  -0.177  25.012  0.00  0.00    +0.050 C 
ATOM     22  C   UNL     1      -3.381   0.197  24.955  0.00  0.00    +0.063 A 
ATOM     23  C   UNL     1      -4.043  -0.227  24.702  0.00  0.00    +0.023 A 
ATOM     24  C   UNL     1      -3.972  -1.024  24.506  0.00  0.00    +0.034 C 
ATOM     25  C   UNL     1      -3.239  -1.399  24.562  0.00  0.00    +0.010 C 
ATOM     26  S   UNL     1      -4.689   0.287  24.701  0.00  0.00    -0.054 S 
ATOM     27  C   UNL     1      -4.427   1.028  24.953  0.00  0.00    +0.185 A 
ATOM     28  N   UNL     1      -4.892   1.705  25.034  0.00  0.00    -0.154 NA
ATOM     29  C   UNL     1      -4.552   2.409  25.293  0.00  0.00    +0.247 C 
ATOM     30  O   UNL     1      -3.746   2.438  25.472  0.00  0.00    -0.273 OA
ATOM     35  N   UNL     1      -3.620   0.972  25.110  0.00  0.00    -0.227 NA
ENDROOT
BRANCH  29  31
ATOM     31  C   UNL     1      -5.016   3.086  25.374  0.00  0.00    +0.079 C 
ATOM     32  C   UNL     1      -4.920   3.886  25.190  0.00  0.00    +0.009 C 
ATOM     33  C   UNL     1      -5.673   4.044  25.488  0.00  0.00    +0.001 C 
ATOM     34  C   UNL     1      -5.769   3.246  25.671  0.00  0.00    +0.009 C 
ENDBRANCH  29  31
BRANCH   2   3
ATOM      3  C   UNL     1      -3.972  -2.086  24.224  0.00  0.00    +0.184 C 
ATOM      4  O   UNL     1      -4.418  -2.690  23.881  0.00  0.00    -0.220 OA
ENDBRANCH   2   3
BRANCH  11  12
ATOM     12  C   UNL     1      -1.988   0.246  25.265  0.00  0.00    +0.093 C 
BRANCH  12  13
ATOM     13  C   UNL     1      -1.609   0.768  24.749  0.00  0.00    +0.242 C 
ATOM     14  O   UNL     1      -1.624   0.626  23.936  0.00  0.00    -0.273 OA
ATOM     15  N   UNL     1      -1.217   1.429  25.045  0.00  0.00    -0.197 NA
BRANCH  15  16
ATOM     16  C   UNL     1      -0.838   1.950  24.530  0.00  0.00    +0.179 C 
BRANCH  16  17
ATOM     17  C   UNL     1      -0.715   2.735  24.753  0.00  0.00    +0.145 A 
ATOM     18  C   UNL     1      -0.384   2.991  25.464  0.00  0.00    +0.038 A 
ATOM     19  C   UNL     1      -0.366   3.815  25.454  0.00  0.00    +0.043 A 
ATOM     20  C   UNL     1      -0.687   4.069  24.737  0.00  0.00    +0.179 A 
ATOM     21  O   UNL     1      -0.903   3.401  24.304  0.00  0.00    -0.453 OA
ENDBRANCH  16  17
ENDBRANCH  15  16
ENDBRANCH  12  13
ENDBRANCH  11  12
TORSDOF 6
ENDMDL
MODEL 4
REMARK VINA RESULT:     -13.3      1.526      4.461
REMARK  Name = 
REMARK  6 active torsions:
REMARK  status: ('A' for Active; 'I' for Inactive)
REMARK    1  A    between atoms: C_2  and  C_3
REMARK    2  A    between atoms: C_11  and  C_12
REMARK    3  A    between atoms: C_12  and  C_13
REMARK    4  A    between atoms: N_15  and  C_16
REMARK    5  A    between atoms: C_16  and  C_17
REMARK    6  A    between atoms: C_29  and  C_31
REMARK                            x       y       z     vdW  Elec       q    Type
REMARK                         _______ _______ _______ _____ _____    ______ ____
ROOT
ATOM      1  C   UNL     1      -4.778   4.094  25.753  0.00  0.00    +0.005 C 
ATOM      2  C   UNL     1      -4.519   3.381  25.431  0.00  0.00    +0.059 C 
ATOM      5  C   UNL     1      -5.329   3.231  25.478  0.00  0.00    +0.154 C 
ATOM      6  O   UNL     1      -5.838   3.807  25.778  0.00  0.00    -0.223 OA
ATOM      7  C   UNL     1      -5.630   2.505  25.225  0.00  0.00    +0.033 C 
ATOM      8  C   UNL     1      -5.121   1.930  24.925  0.00  0.00    +0.003 C 
ATOM      9  C   UNL     1      -4.312   2.079  24.878  0.00  0.00    +0.006 C 
ATOM     10  C   UNL     1      -4.612   1.354  24.626  0.00  0.00    +0.000 C 
ATOM     11  C   UNL     1      -3.802   1.503  24.578  0.00  0.00    +0.050 C 
ATOM     22  C   UNL     1      -2.993   1.653  24.531  0.00  0.00    +0.063 A 
ATOM     23  C   UNL     1      -2.691   2.379  24.784  0.00  0.00    +0.023 A 
ATOM     24  C   UNL     1      -3.200   2.954  25.084  0.00  0.00    +0.034 C 
ATOM     25  C   UNL     1      -4.010   2.805  25.131  0.00  0.00    +0.010 C 
ATOM     26  S   UNL     1      -1.874   2.368  24.671  0.00  0.00    -0.054 S 
ATOM     27  C   UNL     1      -1.670   1.637  24.349  0.00  0.00    +0.185 A 
ATOM     28  N   UNL     1      -0.908   1.391  24.149  0.00  0.00    -0.154 NA
ATOM     29  C   UNL     1      -0.788   0.640  23.830  0.00  0.00    +0.247 C 
ATOM     30  O   UNL     1      -1.430   0.134  23.711  0.00  0.00    -0.273 OA
ATOM     35  N   UNL     1      -2.361   1.195  24.263  0.00  0.00    -0.227 NA
ENDROOT
BRANCH  29  31
ATOM     31  C   UNL     1      -0.027   0.394  23.630  0.00  0.00    +0.079 C 
ATOM     32  C   UNL     1       0.330  -0.335  23.478  0.00  0.00    +0.009 C 
ATOM     33  C   UNL     1       1.050   0.046  23.346  0.00  0.00    +0.001 C 
ATOM     34  C   UNL     1       0.694   0.773  23.498  0.00  0.00    +0.009 C 
ENDBRANCH  29  31
BRANCH   2   3
ATOM      3  C   UNL     1      -3.799   3.778  25.495  0.00  0.00    +0.184 C 
ATOM      4  O   UNL     1      -3.768   4.518  25.861  0.00  0.00    -0.220 OA
ENDBRANCH   2   3
BRANCH  11  12
ATOM     12  C   UNL     1      -4.103   0.778  24.326  0.00  0.00    +0.093 C 
BRANCH  12  13
ATOM     13  C   UNL     1      -4.024   0.109  24.804  0.00  0.00    +0.242 C 
ATOM     14  O   UNL     1      -3.942   0.194  25.620  0.00  0.00    -0.273 OA
ATOM     15  N   UNL     1      -4.028  -0.642  24.465  0.00  0.00    -0.197 NA
BRANCH  15  16
ATOM     16  C   UNL     1      -3.949  -1.310  24.942  0.00  0.00    +0.179 C 
BRANCH  16  17
ATOM     17  C   UNL     1      -3.817  -2.049  24.600  0.00  0.00    +0.145 A 
ATOM     18  C   UNL     1      -3.248  -2.599  24.836  0.00  0.00    +0.038 A 
ATOM     19  C   UNL     1      -3.311  -3.257  24.343  0.00  0.00    +0.043 A 
ATOM     20  C   UNL     1      -3.918  -3.115  23.803  0.00  0.00    +0.179 A 
ATOM     21  O   UNL     1      -4.231  -2.369  23.961  0.00  0.00    -0.453 OA
ENDBRANCH  16  17
ENDBRANCH  15  16
ENDBRANCH  12  13
ENDBRANCH  11  12
TORSDOF 6
ENDMDL
MODEL 5
REMARK VINA RESULT:     -12.9      2.233      4.139
REMARK  Name = 
REMARK  6 active torsions:
REMARK  status: ('A' for Active; 'I' for Inactive)
REMARK    1  A    between atoms: C_2  and  C_3
REMARK    2  A    between atoms: C_11  and  C_12
REMARK    3  A    between atoms: C_12  and  C_13
REMARK    4  A    between atoms: N_15  and  C_16
REMARK    5  A    between atoms: C_16  and  C_17
REMARK    6  A    between atoms: C_29  and  C_31
REMARK                            x       y       z     vdW  Elec       q    Type
REMARK                         _______ _______ _______ _____ _____    ______ ____
ROOT
ATOM      1  C   UNL     1      -3.617  -1.997  24.882  0.00  0.00    +0.005 C 
ATOM      2  C   UNL     1      -2.976  -1.480  24.828  0.00  0.00    +0.059 C 
ATOM      5  C   UNL     1      -2.590  -2.199  24.713  0.00  0.00    +0.154 C 
ATOM      6  O   UNL     1      -3.018  -2.905  24.720  0.00  0.00    -0.223 OA
ATOM      7  C   UNL     1      -1.773  -2.214  24.591  0.00  0.00    +0.033 C 
ATOM      8  C   UNL     1      -1.345  -1.510  24.584  0.00  0.00    +0.003 C 
ATOM      9  C   UNL     1      -1.731  -0.791  24.699  0.00  0.00    +0.006 C 
ATOM     10  C   UNL     1      -0.916  -0.805  24.577  0.00  0.00    +0.000 C 
ATOM     11  C   UNL     1      -1.303  -0.085  24.692  0.00  0.00    +0.050 C 
ATOM     22  C   UNL     1      -1.689   0.634  24.807  0.00  0.00    +0.063 A 
ATOM     23  C   UNL     1      -2.506   0.648  24.929  0.00  0.00    +0.023 A 
ATOM     24  C   UNL     1      -2.934  -0.056  24.936  0.00  0.00    +0.034 C 
ATOM     25  C   UNL     1      -2.548  -0.776  24.821  0.00  0.00    +0.010 C 
ATOM     26  S   UNL     1      -2.734   1.435  25.026  0.00  0.00    -0.054 S 
ATOM     27  C   UNL     1      -2.061   1.907  24.964  0.00  0.00    +0.185 A 
ATOM     28  N   UNL     1      -2.037   2.729  25.026  0.00  0.00    -0.154 NA
ATOM     29  C   UNL     1      -1.319   3.127  24.951  0.00  0.00    +0.247 C 
ATOM     30  O   UNL     1      -0.624   2.704  24.814  0.00  0.00    -0.273 OA
ATOM     35  N   UNL     1      -1.415   1.412  24.828  0.00  0.00    -0.227 NA
ENDROOT
BRANCH  29  31
ATOM     31  C   UNL     1      -1.294   3.949  25.014  0.00  0.00    +0.079 C 
ATOM     32  C   UNL     1      -0.790   4.542  24.736  0.00  0.00    +0.009 C 
ATOM     33  C   UNL     1      -1.260   5.113  25.102  0.00  0.00    +0.001 C 
ATOM     34  C   UNL     1      -1.764   4.522  25.378  0.00  0.00    +0.009 C 
ENDBRANCH  29  31
BRANCH   2   3
ATOM      3  C   UNL     1      -3.586  -0.941  24.962  0.00  0.00    +0.184 C 
ATOM      4  O   UNL     1      -4.371  -1.193  24.947  0.00  0.00    -0.220 OA
ENDBRANCH   2   3
BRANCH  11  12
ATOM     12  C   UNL     1      -0.487  -0.100  24.570  0.00  0.00    +0.093 C 
BRANCH  12  13
ATOM     13  C   UNL     1      -0.177   0.088  23.828  0.00  0.00    +0.242 C 
ATOM     14  O   UNL     1      -0.685   0.234  23.194  0.00  0.00    -0.273 OA
ATOM     15  N   UNL     1       0.639   0.129  23.720  0.00  0.00    -0.197 NA
BRANCH  15  16
ATOM     16  C   UNL     1       0.949   0.316  22.979  0.00  0.00    +0.179 C 
BRANCH  16  17
ATOM     17  C   UNL     1       1.765   0.377  22.877  0.00  0.00    +0.145 A 
ATOM     18  C   UNL     1       2.232  -0.110  22.401  0.00  0.00    +0.038 A 
ATOM     19  C   UNL     1       3.013   0.148  22.462  0.00  0.00    +0.043 A 
ATOM     20  C   UNL     1       3.029   0.794  22.974  0.00  0.00    +0.179 A 
ATOM     21  O   UNL     1       2.258   0.936  23.231  0.00  0.00    -0.453 OA
ENDBRANCH  16  17
ENDBRANCH  15  16
ENDBRANCH  12  13
ENDBRANCH  11  12
TORSDOF 6
ENDMDL
