MODEL 1
REMARK VINA RESULT:      -8.2      0.000      0.000
REMARK  Name = 
REMARK  7 active torsions:
REMARK  status: ('A' for Active; 'I' for Inactive)
REMARK    1  A    between atoms: N_6  and  C_7
REMARK    2  A    between atoms: C_7  and  C_8
REMARK    3  A    between atoms: C_18  and  C_19
REMARK    4  A    between atoms: C_19  and  C_20
REMARK    5  A    between atoms: C_20  and  C_21
REMARK    6  A    between atoms: N_23  and  C_24
REMARK    7  A    between atoms: C_24  and  C_25
REMARK                            x       y       z     vdW  Elec       q    Type
REMARK                         _______ _______ _______ _____ _____    ______ ____
ROOT
ATOM      1  C   UNL     1      -1.452  -0.239  24.612  0.00  0.00    +0.090 C 
ATOM      2  N   UNL     1      -1.608   0.513  24.312  0.00  0.00    -0.271 NA
ATOM      3  C   UNL     1      -2.350   0.825  24.494  0.00  0.00    +0.083 C 
ATOM      4  C   UNL     1      -2.913   0.424  24.946  0.00  0.00    +0.035 C 
ATOM      5  C   UNL     1      -3.579   0.906  25.010  0.00  0.00    +0.074 C 
ATOM      6  N   UNL     1      -3.429   1.605  24.598  0.00  0.00    -0.261 NA
ATOM     13  C   UNL     1      -2.669   1.555  24.279  0.00  0.00    +0.151 C 
ATOM     14  C   UNL     1      -2.325   2.153  23.829  0.00  0.00    +0.257 C 
ATOM     15  O   UNL     1      -2.790   2.824  23.709  0.00  0.00    -0.272 OA
ATOM     16  N   UNL     1      -1.577   2.171  23.482  0.00  0.00    -0.203 NA
ATOM     17  C   UNL     1      -0.988   1.593  23.500  0.00  0.00    +0.131 C 
ATOM     18  C   UNL     1      -1.002   0.856  23.869  0.00  0.00    +0.080 C 
ENDROOT
BRANCH   6   7
ATOM      7  C   UNL     1      -3.947   2.242  24.518  0.00  0.00    +0.106 C 
BRANCH   7   8
ATOM      8  C   UNL     1      -4.670   2.237  24.915  0.00  0.00    +0.023 A 
ATOM      9  C   UNL     1      -5.333   1.791  24.711  0.00  0.00    +0.004 A 
ATOM     10  C   UNL     1      -5.929   1.955  25.256  0.00  0.00    +0.007 A 
ATOM     11  C   UNL     1      -5.635   2.504  25.798  0.00  0.00    +0.035 A 
ATOM     12  S   UNL     1      -4.856   2.678  25.587  0.00  0.00    -0.089 S 
ENDBRANCH   7   8
ENDBRANCH   6   7
BRANCH  18  19
ATOM     19  C   UNL     1      -0.319   0.399  23.785  0.00  0.00    +0.027 C 
BRANCH  19  20
ATOM     20  C   UNL     1       0.358   0.728  23.450  0.00  0.00    +0.088 C 
BRANCH  20  21
ATOM     21  C   UNL     1       0.951   0.237  23.151  0.00  0.00    +0.242 C 
ATOM     22  O   UNL     1       0.762  -0.518  22.878  0.00  0.00    -0.273 OA
ATOM     23  N   UNL     1       1.732   0.501  23.126  0.00  0.00    -0.200 NA
BRANCH  23  24
ATOM     24  C   UNL     1       2.324   0.010  22.828  0.00  0.00    +0.148 C 
BRANCH  24  25
ATOM     25  C   UNL     1       3.111   0.256  22.846  0.00  0.00    +0.029 A 
ATOM     26  C   UNL     1       3.409   0.957  22.528  0.00  0.00    +0.004 A 
ATOM     27  C   UNL     1       4.221   0.977  22.670  0.00  0.00    +0.007 A 
ATOM     28  C   UNL     1       4.425   0.289  23.076  0.00  0.00    +0.035 A 
ATOM     29  S   UNL     1       3.740  -0.158  23.184  0.00  0.00    -0.089 S 
ENDBRANCH  24  25
ENDBRANCH  23  24
ENDBRANCH  20  21
ENDBRANCH  19  20
ENDBRANCH  18  19
TORSDOF 7
ENDMDL
MODEL 2
REMARK VINA RESULT:      -7.8      0.780      1.263
REMARK  Name = 
REMARK  7 active torsions:
REMARK  status: ('A' for Active; 'I' for Inactive)
REMARK    1  A    between atoms: N_6  and  C_7
REMARK    2  A    between atoms: C_7  and  C_8
REMARK    3  A    between atoms: C_18  and  C_19
REMARK    4  A    between atoms: C_19  and  C_20
REMARK    5  A    between atoms: C_20  and  C_21
REMARK    6  A    between atoms: N_23  and  C_24
REMARK    7  A    between atoms: C_24  and  C_25
REMARK                            x       y       z     vdW  Elec       q    Type
REMARK                         _______ _______ _______ _____ _____    ______ ____
ROOT
ATOM      1  C   UNL     1      -0.840   2.010  23.398  0.00  0.00    +0.090 C 
ATOM      2  N   UNL     1      -1.204   1.399  23.816  0.00  0.00    -0.271 NA
ATOM      3  C   UNL     1      -1.954   1.566  24.116  0.00  0.00    +0.083 C 
ATOM      4  C   UNL     1      -2.332   2.293  24.014  0.00  0.00    +0.035 C 
ATOM      5  C   UNL     1      -3.067   2.252  24.388  0.00  0.00    +0.074 C 
ATOM      6  N   UNL     1      -3.142   1.501  24.721  0.00  0.00    -0.261 NA
ATOM     13  C   UNL     1      -2.455   1.077  24.552  0.00  0.00    +0.151 C 
ATOM     14  C   UNL     1      -2.329   0.300  24.797  0.00  0.00    +0.257 C 
ATOM     15  O   UNL     1      -2.941  -0.043  25.231  0.00  0.00    -0.272 OA
ATOM     16  N   UNL     1      -1.671  -0.181  24.666  0.00  0.00    -0.203 NA
ATOM     17  C   UNL     1      -0.977  -0.002  24.257  0.00  0.00    +0.131 C 
ATOM     18  C   UNL     1      -0.769   0.701  23.879  0.00  0.00    +0.080 C 
ENDROOT
BRANCH   6   7
ATOM      7  C   UNL     1      -3.792   1.222  25.147  0.00  0.00    +0.106 C 
BRANCH   7   8
ATOM      8  C   UNL     1      -4.507   1.633  25.123  0.00  0.00    +0.023 A 
ATOM      9  C   UNL     1      -5.168   1.431  24.675  0.00  0.00    +0.004 A 
ATOM     10  C   UNL     1      -5.755   1.992  24.819  0.00  0.00    +0.007 A 
ATOM     11  C   UNL     1      -5.456   2.542  25.358  0.00  0.00    +0.035 A 
ATOM     12  S   UNL     1      -4.684   2.320  25.546  0.00  0.00    -0.089 S 
ENDBRANCH   7   8
ENDBRANCH   6   7
BRANCH  18  19
ATOM     19  C   UNL     1      -0.028   0.707  23.515  0.00  0.00    +0.027 C 
BRANCH  19  20
ATOM     20  C   UNL     1       0.403   0.008  23.443  0.00  0.00    +0.088 C 
BRANCH  20  21
ATOM     21  C   UNL     1       1.003  -0.052  22.881  0.00  0.00    +0.242 C 
ATOM     22  O   UNL     1       0.826  -0.296  22.113  0.00  0.00    -0.273 OA
ATOM     23  N   UNL     1       1.780   0.134  23.085  0.00  0.00    -0.200 NA
BRANCH  23  24
ATOM     24  C   UNL     1       2.381   0.074  22.523  0.00  0.00    +0.148 C 
BRANCH  24  25
ATOM     25  C   UNL     1       3.156   0.269  22.724  0.00  0.00    +0.029 A 
ATOM     26  C   UNL     1       3.519   1.001  22.607  0.00  0.00    +0.004 A 
ATOM     27  C   UNL     1       4.292   0.951  22.889  0.00  0.00    +0.007 A 
ATOM     28  C   UNL     1       4.408   0.188  23.181  0.00  0.00    +0.035 A 
ATOM     29  S   UNL     1       3.706  -0.234  23.079  0.00  0.00    -0.089 S 
ENDBRANCH  24  25
ENDBRANCH  23  24
ENDBRANCH  20  21
ENDBRANCH  19  20
ENDBRANCH  18  19
TORSDOF 7
ENDMDL
MODEL 3
REMARK VINA RESULT:      -7.4      3.348      4.722
REMARK  Name = 
REMARK  7 active torsions:
REMARK  status: ('A' for Active; 'I' for Inactive)
REMARK    1  A    between atoms: N_6  and  C_7
REMARK    2  A    between atoms: C_7  and  C_8
REMARK    3  A    between atoms: C_18  and  C_19
REMARK    4  A    between atoms: C_19  and  C_20
REMARK    5  A    between atoms: C_20  and  C_21
REMARK    6  A    between atoms: N_23  and  C_24
REMARK    7  A    between atoms: C_24  and  C_25
REMARK                            x       y       z     vdW  Elec       q    Type
REMARK                         _______ _______ _______ _____ _____    ______ ____
ROOT
ATOM      1  C   UNL     1      -0.802   0.726  23.604  0.00  0.00    +0.090 C 
ATOM      2  N   UNL     1      -0.736   1.015  24.374  0.00  0.00    -0.271 NA
ATOM      3  C   UNL     1      -0.745   1.836  24.451  0.00  0.00    +0.083 C 
ATOM      4  C   UNL     1      -0.815   2.352  23.811  0.00  0.00    +0.035 C 
ATOM      5  C   UNL     1      -0.804   3.123  24.103  0.00  0.00    +0.074 C 
ATOM      6  N   UNL     1      -0.726   3.085  24.923  0.00  0.00    -0.261 NA
ATOM     13  C   UNL     1      -0.690   2.289  25.139  0.00  0.00    +0.151 C 
ATOM     14  C   UNL     1      -0.612   2.032  25.918  0.00  0.00    +0.257 C 
ATOM     15  O   UNL     1      -0.570   2.627  26.489  0.00  0.00    -0.272 OA
ATOM     16  N   UNL     1      -0.569   1.259  26.204  0.00  0.00    -0.203 NA
ATOM     17  C   UNL     1      -0.595   0.552  25.779  0.00  0.00    +0.131 C 
ATOM     18  C   UNL     1      -0.669   0.443  24.965  0.00  0.00    +0.080 C 
ENDROOT
BRANCH   6   7
ATOM      7  C   UNL     1      -0.691   3.728  25.439  0.00  0.00    +0.106 C 
BRANCH   7   8
ATOM      8  C   UNL     1      -1.020   4.452  25.216  0.00  0.00    +0.023 A 
ATOM      9  C   UNL     1      -0.630   5.062  24.823  0.00  0.00    +0.004 A 
ATOM     10  C   UNL     1      -1.166   5.679  24.712  0.00  0.00    +0.007 A 
ATOM     11  C   UNL     1      -1.889   5.449  25.039  0.00  0.00    +0.035 A 
ATOM     12  S   UNL     1      -1.799   4.691  25.350  0.00  0.00    -0.089 S 
ENDBRANCH   7   8
ENDBRANCH   6   7
BRANCH  18  19
ATOM     19  C   UNL     1      -0.677  -0.341  24.707  0.00  0.00    +0.027 C 
BRANCH  19  20
ATOM     20  C   UNL     1      -0.886  -0.944  25.228  0.00  0.00    +0.088 C 
BRANCH  20  21
ATOM     21  C   UNL     1      -1.241  -1.632  24.943  0.00  0.00    +0.242 C 
ATOM     22  O   UNL     1      -0.777  -2.289  24.758  0.00  0.00    -0.273 OA
ATOM     23  N   UNL     1      -2.059  -1.664  24.842  0.00  0.00    -0.200 NA
BRANCH  23  24
ATOM     24  C   UNL     1      -2.414  -2.352  24.556  0.00  0.00    +0.148 C 
BRANCH  24  25
ATOM     25  C   UNL     1      -3.197  -2.336  24.300  0.00  0.00    +0.029 A 
ATOM     26  C   UNL     1      -3.659  -1.661  24.191  0.00  0.00    +0.004 A 
ATOM     27  C   UNL     1      -4.405  -1.901  23.931  0.00  0.00    +0.007 A 
ATOM     28  C   UNL     1      -4.403  -2.724  23.880  0.00  0.00    +0.035 A 
ATOM     29  S   UNL     1      -3.657  -2.994  24.107  0.00  0.00    -0.089 S 
ENDBRANCH  24  25
ENDBRANCH  23  24
ENDBRANCH  20  21
ENDBRANCH  19  20
ENDBRANCH  18  19
TORSDOF 7
ENDMDL
MODEL 4
REMARK VINA RESULT:      -6.8      3.726      4.973
REMARK  Name = 
REMARK  7 active torsions:
REMARK  status: ('A' for Active; 'I' for Inactive)
REMARK    1  A    between atoms: N_6  and  C_7
REMARK    2  A    between atoms: C_7  and  C_8
REMARK    3  A    between atoms: C_18  and  C_19
REMARK    4  A    between atoms: C_19  and  C_20
REMARK    5  A    between atoms: C_20  and  C_21
REMARK    6  A    between atoms: N_23  and  C_24
REMARK    7  A    between atoms: C_24  and  C_25
REMARK                            x       y       z     vdW  Elec       q    Type
REMARK                         _______ _______ _______ _____ _____    ______ ____
ROOT
ATOM      1  C   UNL     1      -3.341   1.815  23.307  0.00  0.00    +0.090 C 
ATOM      2  N   UNL     1      -3.760   1.481  23.934  0.00  0.00    -0.271 NA
ATOM      3  C   UNL     1      -3.717   0.659  23.997  0.00  0.00    +0.083 C 
ATOM      4  C   UNL     1      -3.289   0.185  23.474  0.00  0.00    +0.035 C 
ATOM      5  C   UNL     1      -3.377  -0.600  23.712  0.00  0.00    +0.074 C 
ATOM      6  N   UNL     1      -3.860  -0.611  24.381  0.00  0.00    -0.261 NA
ATOM     13  C   UNL     1      -4.070   0.167  24.557  0.00  0.00    +0.151 C 
ATOM     14  C   UNL     1      -4.552   0.374  25.193  0.00  0.00    +0.257 C 
ATOM     15  O   UNL     1      -4.821  -0.252  25.658  0.00  0.00    -0.272 OA
ATOM     16  N   UNL     1      -4.801   1.125  25.427  0.00  0.00    -0.203 NA
ATOM     17  C   UNL     1      -4.628   1.855  25.081  0.00  0.00    +0.131 C 
ATOM     18  C   UNL     1      -4.166   2.013  24.418  0.00  0.00    +0.080 C 
ENDROOT
BRANCH   6   7
ATOM      7  C   UNL     1      -4.091  -1.283  24.800  0.00  0.00    +0.106 C 
BRANCH   7   8
ATOM      8  C   UNL     1      -3.796  -2.024  24.587  0.00  0.00    +0.023 A 
ATOM      9  C   UNL     1      -4.091  -2.511  23.991  0.00  0.00    +0.004 A 
ATOM     10  C   UNL     1      -3.631  -3.195  23.969  0.00  0.00    +0.007 A 
ATOM     11  C   UNL     1      -3.050  -3.130  24.552  0.00  0.00    +0.035 A 
ATOM     12  S   UNL     1      -3.152  -2.406  24.934  0.00  0.00    -0.089 S 
ENDBRANCH   7   8
ENDBRANCH   6   7
BRANCH  18  19
ATOM     19  C   UNL     1      -4.099   2.808  24.208  0.00  0.00    +0.027 C 
BRANCH  19  20
ATOM     20  C   UNL     1      -4.176   3.394  24.782  0.00  0.00    +0.088 C 
BRANCH  20  21
ATOM     21  C   UNL     1      -3.721   4.082  24.735  0.00  0.00    +0.242 C 
ATOM     22  O   UNL     1      -4.022   4.749  24.354  0.00  0.00    -0.273 OA
ATOM     23  N   UNL     1      -2.967   4.102  25.067  0.00  0.00    -0.200 NA
BRANCH  23  24
ATOM     24  C   UNL     1      -2.513   4.790  25.020  0.00  0.00    +0.148 C 
BRANCH  24  25
ATOM     25  C   UNL     1      -1.690   4.743  25.038  0.00  0.00    +0.029 A 
ATOM     26  C   UNL     1      -1.165   5.334  24.801  0.00  0.00    +0.004 A 
ATOM     27  C   UNL     1      -0.398   5.053  24.913  0.00  0.00    +0.007 A 
ATOM     28  C   UNL     1      -0.449   4.289  25.218  0.00  0.00    +0.035 A 
ATOM     29  S   UNL     1      -1.247   4.096  25.296  0.00  0.00    -0.089 S 
ENDBRANCH  24  25
ENDBRANCH  23  24
ENDBRANCH  20  21
ENDBRANCH  19  20
ENDBRANCH  18  19
TORSDOF 7
ENDMDL
MODEL 5
REMARK VINA RESULT:      -6.4      3.237      4.544
REMARK  Name = 
REMARK  7 active torsions:
REMARK  status: ('A' for Active; 'I' for Inactive)
REMARK    1  A    between atoms: N_6  and  C_7
REMARK    2  A    between atoms: C_7  and  C_8
REMARK    3  A    between atoms: C_18  and  C_19
REMARK    4  A    between atoms: C_19  and  C_20
REMARK    5  A    between atoms: C_20  and  C_21
REMARK    6  A    between atoms: N_23  and  C_24
REMARK    7  A    between atoms: C_24  and  C_25
REMARK                            x       y       z     vdW  Elec       q    Type
REMARK                         _______ _______ _______ _____ _____    ______ ____
ROOT
ATOM      1  C   UNL     1      -0.163  -0.234  24.176  0.00  0.00    +0.090 C 
ATOM      2  N   UNL     1      -0.823  -0.212  24.670  0.00  0.00    -0.271 NA
ATOM      3  C   UNL     1      -1.327  -0.864  24.625  0.00  0.00    +0.083 C 
ATOM      4  C   UNL     1      -1.195  -1.506  24.124  0.00  0.00    +0.035 C 
ATOM      5  C   UNL     1      -1.811  -2.045  24.232  0.00  0.00    +0.074 C 
ATOM      6  N   UNL     1      -2.323  -1.735  24.800  0.00  0.00    -0.261 NA
ATOM     13  C   UNL     1      -2.024  -1.006  25.043  0.00  0.00    +0.151 C 
ATOM     14  C   UNL     1      -2.389  -0.531  25.609  0.00  0.00    +0.257 C 
ATOM     15  O   UNL     1      -3.089  -0.829  25.930  0.00  0.00    -0.272 OA
ATOM     16  N   UNL     1      -2.149   0.204  25.898  0.00  0.00    -0.203 NA
ATOM     17  C   UNL     1      -1.482   0.644  25.691  0.00  0.00    +0.131 C 
ATOM     18  C   UNL     1      -0.893   0.460  25.145  0.00  0.00    +0.080 C 
ENDROOT
BRANCH   6   7
ATOM      7  C   UNL     1      -3.013  -2.093  25.077  0.00  0.00    +0.106 C 
BRANCH   7   8
ATOM      8  C   UNL     1      -3.510  -2.491  24.552  0.00  0.00    +0.023 A 
ATOM      9  C   UNL     1      -4.077  -2.146  24.064  0.00  0.00    +0.004 A 
ATOM     10  C   UNL     1      -4.443  -2.747  23.633  0.00  0.00    +0.007 A 
ATOM     11  C   UNL     1      -4.101  -3.465  23.856  0.00  0.00    +0.035 A 
ATOM     12  S   UNL     1      -3.524  -3.307  24.424  0.00  0.00    -0.089 S 
ENDBRANCH   7   8
ENDBRANCH   6   7
BRANCH  18  19
ATOM     19  C   UNL     1      -0.293   1.020  25.061  0.00  0.00    +0.027 C 
BRANCH  19  20
ATOM     20  C   UNL     1      -0.273   1.680  25.554  0.00  0.00    +0.088 C 
BRANCH  20  21
ATOM     21  C   UNL     1      -0.065   2.418  25.248  0.00  0.00    +0.242 C 
ATOM     22  O   UNL     1       0.669   2.523  24.887  0.00  0.00    -0.273 OA
ATOM     23  N   UNL     1      -0.591   3.051  25.303  0.00  0.00    -0.200 NA
BRANCH  23  24
ATOM     24  C   UNL     1      -0.384   3.788  24.997  0.00  0.00    +0.148 C 
BRANCH  24  25
ATOM     25  C   UNL     1      -0.913   4.418  25.043  0.00  0.00    +0.029 A 
ATOM     26  C   UNL     1      -0.759   5.200  24.827  0.00  0.00    +0.004 A 
ATOM     27  C   UNL     1      -1.441   5.642  24.963  0.00  0.00    +0.007 A 
ATOM     28  C   UNL     1      -2.018   5.134  25.263  0.00  0.00    +0.035 A 
ATOM     29  S   UNL     1      -1.693   4.378  25.312  0.00  0.00    -0.089 S 
ENDBRANCH  24  25
ENDBRANCH  23  24
ENDBRANCH  20  21
ENDBRANCH  19  20
ENDBRANCH  18  19
TORSDOF 7
ENDMDL
MODEL 6
REMARK VINA RESULT:      -6.4     14.554     14.999
REMARK  Name = 
REMARK  7 active torsions:
REMARK  status: ('A' for Active; 'I' for Inactive)
REMARK    1  A    between atoms: N_6  and  C_7
REMARK    2  A    between atoms: C_7  and  C_8
REMARK    3  A    between atoms: C_18  and  C_19
REMARK    4  A    between atoms: C_19  and  C_20
REMARK    5  A    between atoms: C_20  and  C_21
REMARK    6  A    between atoms: N_23  and  C_24
REMARK    7  A    between atoms: C_24  and  C_25
REMARK                            x       y       z     vdW  Elec       q    Type
REMARK                         _______ _______ _______ _____ _____    ______ ____
ROOT
ATOM      1  C   UNL     1      -5.654  -9.659  16.691  0.00  0.00    +0.090 C 
ATOM      2  N   UNL     1      -6.267  -9.783  16.153  0.00  0.00    -0.271 NA
ATOM      3  C   UNL     1      -7.024  -9.597  16.423  0.00  0.00    +0.083 C 
ATOM      4  C   UNL     1      -7.178  -9.305  17.180  0.00  0.00    +0.035 C 
ATOM      5  C   UNL     1      -7.991  -9.187  17.247  0.00  0.00    +0.074 C 
ATOM      6  N   UNL     1      -8.341  -9.406  16.532  0.00  0.00    -0.261 NA
ATOM     13  C   UNL     1      -7.743  -9.659  16.023  0.00  0.00    +0.151 C 
ATOM     14  C   UNL     1      -7.882  -9.922  15.254  0.00  0.00    +0.257 C 
ATOM     15  O   UNL     1      -8.671  -9.919  15.011  0.00  0.00    -0.272 OA
ATOM     16  N   UNL     1      -7.337 -10.188  14.695  0.00  0.00    -0.203 NA
ATOM     17  C   UNL     1      -6.518 -10.256  14.767  0.00  0.00    +0.131 C 
ATOM     18  C   UNL     1      -6.042 -10.076  15.415  0.00  0.00    +0.080 C 
ENDROOT
BRANCH   6   7
ATOM      7  C   UNL     1      -9.147  -9.376  16.357  0.00  0.00    +0.106 C 
BRANCH   7   8
ATOM      8  C   UNL     1      -9.671  -9.027  16.889  0.00  0.00    +0.023 A 
ATOM      9  C   UNL     1      -9.864  -8.226  16.928  0.00  0.00    +0.004 A 
ATOM     10  C   UNL     1     -10.407  -8.123  17.540  0.00  0.00    +0.007 A 
ATOM     11  C   UNL     1     -10.550  -8.861  17.880  0.00  0.00    +0.035 A 
ATOM     12  S   UNL     1     -10.096  -9.420  17.479  0.00  0.00    -0.089 S 
ENDBRANCH   7   8
ENDBRANCH   6   7
BRANCH  18  19
ATOM     19  C   UNL     1      -5.233 -10.207  15.314  0.00  0.00    +0.027 C 
BRANCH  19  20
ATOM     20  C   UNL     1      -4.949 -10.500  14.598  0.00  0.00    +0.088 C 
BRANCH  20  21
ATOM     21  C   UNL     1      -4.137 -10.592  14.483  0.00  0.00    +0.242 C 
ATOM     22  O   UNL     1      -3.649 -10.781  15.121  0.00  0.00    -0.273 OA
ATOM     23  N   UNL     1      -3.813 -10.494  13.731  0.00  0.00    -0.200 NA
BRANCH  23  24
ATOM     24  C   UNL     1      -3.001 -10.586  13.616  0.00  0.00    +0.148 C 
BRANCH  24  25
ATOM     25  C   UNL     1      -2.682 -10.519  12.859  0.00  0.00    +0.029 A 
ATOM     26  C   UNL     1      -3.106 -10.511  12.151  0.00  0.00    +0.004 A 
ATOM     27  C   UNL     1      -2.568 -10.436  11.531  0.00  0.00    +0.007 A 
ATOM     28  C   UNL     1      -1.810 -10.397  11.855  0.00  0.00    +0.035 A 
ATOM     29  S   UNL     1      -1.880 -10.448  12.676  0.00  0.00    -0.089 S 
ENDBRANCH  24  25
ENDBRANCH  23  24
ENDBRANCH  20  21
ENDBRANCH  19  20
ENDBRANCH  18  19
TORSDOF 7
ENDMDL
MODEL 7
REMARK VINA RESULT:      -6.3      3.594      4.530
REMARK  Name = 
REMARK  7 active torsions:
REMARK  status: ('A' for Active; 'I' for Inactive)
REMARK    1  A    between atoms: N_6  and  C_7
REMARK    2  A    between atoms: C_7  and  C_8
REMARK    3  A    between atoms: C_18  and  C_19
REMARK    4  A    between atoms: C_19  and  C_20
REMARK    5  A    between atoms: C_20  and  C_21
REMARK    6  A    between atoms: N_23  and  C_24
REMARK    7  A    between atoms: C_24  and  C_25
REMARK                            x       y       z     vdW  Elec       q    Type
REMARK                         _______ _______ _______ _____ _____    ______ ____
ROOT
ATOM      1  C   UNL     1      -3.096   1.039  23.267  0.00  0.00    +0.090 C 
ATOM      2  N   UNL     1      -3.384   1.449  23.922  0.00  0.00    -0.271 NA
ATOM      3  C   UNL     1      -3.029   2.178  24.073  0.00  0.00    +0.083 C 
ATOM      4  C   UNL     1      -2.424   2.494  23.609  0.00  0.00    +0.035 C 
ATOM      5  C   UNL     1      -2.213   3.224  23.928  0.00  0.00    +0.074 C 
ATOM      6  N   UNL     1      -2.687   3.361  24.590  0.00  0.00    -0.261 NA
ATOM     13  C   UNL     1      -3.192   2.714  24.679  0.00  0.00    +0.151 C 
ATOM     14  C   UNL     1      -3.749   2.653  25.283  0.00  0.00    +0.257 C 
ATOM     15  O   UNL     1      -3.778   3.288  25.810  0.00  0.00    -0.272 OA
ATOM     16  N   UNL     1      -4.282   2.041  25.432  0.00  0.00    -0.203 NA
ATOM     17  C   UNL     1      -4.388   1.338  25.012  0.00  0.00    +0.131 C 
ATOM     18  C   UNL     1      -3.989   1.075  24.341  0.00  0.00    +0.080 C 
ENDROOT
BRANCH   6   7
ATOM      7  C   UNL     1      -2.661   4.027  25.076  0.00  0.00    +0.106 C 
BRANCH   7   8
ATOM      8  C   UNL     1      -2.007   4.528  25.053  0.00  0.00    +0.023 A 
ATOM      9  C   UNL     1      -2.010   5.321  24.826  0.00  0.00    +0.004 A 
ATOM     10  C   UNL     1      -1.239   5.607  24.886  0.00  0.00    +0.007 A 
ATOM     11  C   UNL     1      -0.758   4.990  25.150  0.00  0.00    +0.035 A 
ATOM     12  S   UNL     1      -1.232   4.323  25.253  0.00  0.00    -0.089 S 
ENDBRANCH   7   8
ENDBRANCH   6   7
BRANCH  18  19
ATOM     19  C   UNL     1      -4.226   0.341  24.048  0.00  0.00    +0.027 C 
BRANCH  19  20
ATOM     20  C   UNL     1      -4.441  -0.262  24.568  0.00  0.00    +0.088 C 
BRANCH  20  21
ATOM     21  C   UNL     1      -4.218  -1.041  24.413  0.00  0.00    +0.242 C 
ATOM     22  O   UNL     1      -4.695  -1.519  23.939  0.00  0.00    -0.273 OA
ATOM     23  N   UNL     1      -3.519  -1.342  24.731  0.00  0.00    -0.200 NA
BRANCH  23  24
ATOM     24  C   UNL     1      -3.297  -2.121  24.576  0.00  0.00    +0.148 C 
BRANCH  24  25
ATOM     25  C   UNL     1      -2.501  -2.336  24.604  0.00  0.00    +0.029 A 
ATOM     26  C   UNL     1      -2.103  -2.799  24.048  0.00  0.00    +0.004 A 
ATOM     27  C   UNL     1      -1.320  -2.876  24.294  0.00  0.00    +0.007 A 
ATOM     28  C   UNL     1      -1.233  -2.460  25.002  0.00  0.00    +0.035 A 
ATOM     29  S   UNL     1      -1.963  -2.127  25.194  0.00  0.00    -0.089 S 
ENDBRANCH  24  25
ENDBRANCH  23  24
ENDBRANCH  20  21
ENDBRANCH  19  20
ENDBRANCH  18  19
TORSDOF 7
ENDMDL
MODEL 8
REMARK VINA RESULT:      -6.2      1.158      6.454
REMARK  Name = 
REMARK  7 active torsions:
REMARK  status: ('A' for Active; 'I' for Inactive)
REMARK    1  A    between atoms: N_6  and  C_7
REMARK    2  A    between atoms: C_7  and  C_8
REMARK    3  A    between atoms: C_18  and  C_19
REMARK    4  A    between atoms: C_19  and  C_20
REMARK    5  A    between atoms: C_20  and  C_21
REMARK    6  A    between atoms: N_23  and  C_24
REMARK    7  A    between atoms: C_24  and  C_25
REMARK                            x       y       z     vdW  Elec       q    Type
REMARK                         _______ _______ _______ _____ _____    ______ ____
ROOT
ATOM      1  C   UNL     1      -1.743   1.594  23.984  0.00  0.00    +0.090 C 
ATOM      2  N   UNL     1      -1.418   0.845  24.099  0.00  0.00    -0.271 NA
ATOM      3  C   UNL     1      -0.642   0.747  23.836  0.00  0.00    +0.083 C 
ATOM      4  C   UNL     1      -0.203   1.347  23.479  0.00  0.00    +0.035 C 
ATOM      5  C   UNL     1       0.541   1.044  23.293  0.00  0.00    +0.074 C 
ATOM      6  N   UNL     1       0.563   0.256  23.536  0.00  0.00    -0.261 NA
ATOM     13  C   UNL     1      -0.168   0.072  23.871  0.00  0.00    +0.151 C 
ATOM     14  C   UNL     1      -0.353  -0.671  24.178  0.00  0.00    +0.257 C 
ATOM     15  O   UNL     1       0.245  -1.237  24.131  0.00  0.00    -0.272 OA
ATOM     16  N   UNL     1      -1.058  -0.923  24.525  0.00  0.00    -0.203 NA
ATOM     17  C   UNL     1      -1.752  -0.494  24.651  0.00  0.00    +0.131 C 
ATOM     18  C   UNL     1      -1.912   0.292  24.462  0.00  0.00    +0.080 C 
ENDROOT
BRANCH   6   7
ATOM      7  C   UNL     1       1.203  -0.259  23.457  0.00  0.00    +0.106 C 
BRANCH   7   8
ATOM      8  C   UNL     1       1.865  -0.028  23.020  0.00  0.00    +0.023 A 
ATOM      9  C   UNL     1       2.479   0.452  23.288  0.00  0.00    +0.004 A 
ATOM     10  C   UNL     1       3.022   0.539  22.672  0.00  0.00    +0.007 A 
ATOM     11  C   UNL     1       2.742   0.111  22.024  0.00  0.00    +0.035 A 
ATOM     12  S   UNL     1       2.027  -0.239  22.239  0.00  0.00    -0.089 S 
ENDBRANCH   7   8
ENDBRANCH   6   7
BRANCH  18  19
ATOM     19  C   UNL     1      -2.665   0.563  24.661  0.00  0.00    +0.027 C 
BRANCH  19  20
ATOM     20  C   UNL     1      -3.256   0.026  24.865  0.00  0.00    +0.088 C 
BRANCH  20  21
ATOM     21  C   UNL     1      -4.051   0.237  24.787  0.00  0.00    +0.242 C 
ATOM     22  O   UNL     1      -4.566  -0.251  24.366  0.00  0.00    -0.273 OA
ATOM     23  N   UNL     1      -4.329   0.933  25.129  0.00  0.00    -0.200 NA
BRANCH  23  24
ATOM     24  C   UNL     1      -5.123   1.143  25.051  0.00  0.00    +0.148 C 
BRANCH  24  25
ATOM     25  C   UNL     1      -5.394   1.857  25.362  0.00  0.00    +0.029 A 
ATOM     26  C   UNL     1      -5.857   1.948  26.039  0.00  0.00    +0.004 A 
ATOM     27  C   UNL     1      -5.998   2.753  26.146  0.00  0.00    +0.007 A 
ATOM     28  C   UNL     1      -5.622   3.161  25.535  0.00  0.00    +0.035 A 
ATOM     29  S   UNL     1      -5.249   2.607  25.050  0.00  0.00    -0.089 S 
ENDBRANCH  24  25
ENDBRANCH  23  24
ENDBRANCH  20  21
ENDBRANCH  19  20
ENDBRANCH  18  19
TORSDOF 7
ENDMDL
MODEL 9
REMARK VINA RESULT:      -6.0      2.238      2.994
REMARK  Name = 
REMARK  7 active torsions:
REMARK  status: ('A' for Active; 'I' for Inactive)
REMARK    1  A    between atoms: N_6  and  C_7
REMARK    2  A    between atoms: C_7  and  C_8
REMARK    3  A    between atoms: C_18  and  C_19
REMARK    4  A    between atoms: C_19  and  C_20
REMARK    5  A    between atoms: C_20  and  C_21
REMARK    6  A    between atoms: N_23  and  C_24
REMARK    7  A    between atoms: C_24  and  C_25
REMARK                            x       y       z     vdW  Elec       q    Type
REMARK                         _______ _______ _______ _____ _____    ______ ____
ROOT
ATOM      1  C   UNL     1      -2.110   1.867  23.053  0.00  0.00    +0.090 C 
ATOM      2  N   UNL     1      -2.051   2.237  23.787  0.00  0.00    -0.271 NA
ATOM      3  C   UNL     1      -2.734   2.614  24.055  0.00  0.00    +0.083 C 
ATOM      4  C   UNL     1      -3.441   2.631  23.629  0.00  0.00    +0.035 C 
ATOM      5  C   UNL     1      -3.994   3.055  24.070  0.00  0.00    +0.074 C 
ATOM      6  N   UNL     1      -3.629   3.302  24.768  0.00  0.00    -0.261 NA
ATOM     13  C   UNL     1      -2.850   3.029  24.759  0.00  0.00    +0.151 C 
ATOM     14  C   UNL     1      -2.313   3.168  25.368  0.00  0.00    +0.257 C 
ATOM     15  O   UNL     1      -2.600   3.606  26.006  0.00  0.00    -0.272 OA
ATOM     16  N   UNL     1      -1.526   2.928  25.425  0.00  0.00    -0.203 NA
ATOM     17  C   UNL     1      -1.082   2.489  24.886  0.00  0.00    +0.131 C 
ATOM     18  C   UNL     1      -1.315   2.181  24.158  0.00  0.00    +0.080 C 
ENDROOT
BRANCH   6   7
ATOM      7  C   UNL     1      -3.981   3.743  25.370  0.00  0.00    +0.106 C 
BRANCH   7   8
ATOM      8  C   UNL     1      -4.797   3.704  25.485  0.00  0.00    +0.023 A 
ATOM      9  C   UNL     1      -5.337   4.310  25.344  0.00  0.00    +0.004 A 
ATOM     10  C   UNL     1      -6.090   4.032  25.534  0.00  0.00    +0.007 A 
ATOM     11  C   UNL     1      -6.015   3.251  25.793  0.00  0.00    +0.035 A 
ATOM     12  S   UNL     1      -5.216   3.049  25.764  0.00  0.00    -0.089 S 
ENDBRANCH   7   8
ENDBRANCH   6   7
BRANCH  18  19
ATOM     19  C   UNL     1      -0.738   1.762  23.743  0.00  0.00    +0.027 C 
BRANCH  19  20
ATOM     20  C   UNL     1      -0.159   1.341  24.153  0.00  0.00    +0.088 C 
BRANCH  20  21
ATOM     21  C   UNL     1      -0.000   0.556  23.954  0.00  0.00    +0.242 C 
ATOM     22  O   UNL     1       0.531   0.385  23.347  0.00  0.00    -0.273 OA
ATOM     23  N   UNL     1      -0.372  -0.056  24.362  0.00  0.00    -0.200 NA
BRANCH  23  24
ATOM     24  C   UNL     1      -0.213  -0.841  24.164  0.00  0.00    +0.148 C 
BRANCH  24  25
ATOM     25  C   UNL     1      -0.686  -1.447  24.463  0.00  0.00    +0.029 A 
ATOM     26  C   UNL     1      -1.354  -1.766  24.100  0.00  0.00    +0.004 A 
ATOM     27  C   UNL     1      -1.654  -2.357  24.591  0.00  0.00    +0.007 A 
ATOM     28  C   UNL     1      -1.172  -2.402  25.259  0.00  0.00    +0.035 A 
ATOM     29  S   UNL     1      -0.573  -1.840  25.180  0.00  0.00    -0.089 S 
ENDBRANCH  24  25
ENDBRANCH  23  24
ENDBRANCH  20  21
ENDBRANCH  19  20
ENDBRANCH  18  19
TORSDOF 7
ENDMDL
MODEL 10
REMARK VINA RESULT:      -6.0     15.459     16.647
REMARK  Name = 
REMARK  7 active torsions:
REMARK  status: ('A' for Active; 'I' for Inactive)
REMARK    1  A    between atoms: N_6  and  C_7
REMARK    2  A    between atoms: C_7  and  C_8
REMARK    3  A    between atoms: C_18  and  C_19
REMARK    4  A    between atoms: C_19  and  C_20
REMARK    5  A    between atoms: C_20  and  C_21
REMARK    6  A    between atoms: N_23  and  C_24
REMARK    7  A    between atoms: C_24  and  C_25
REMARK                            x       y       z     vdW  Elec       q    Type
REMARK                         _______ _______ _______ _____ _____    ______ ____
ROOT
ATOM      1  C   UNL     1      -6.887  -9.418  13.346  0.00  0.00    +0.090 C 
ATOM      2  N   UNL     1      -6.131  -9.744  13.295  0.00  0.00    -0.271 NA
ATOM      3  C   UNL     1      -5.757  -9.671  12.562  0.00  0.00    +0.083 C 
ATOM      4  C   UNL     1      -6.102  -9.299  11.912  0.00  0.00    +0.035 C 
ATOM      5  C   UNL     1      -5.567  -9.333  11.285  0.00  0.00    +0.074 C 
ATOM      6  N   UNL     1      -4.891  -9.727  11.548  0.00  0.00    -0.261 NA
ATOM     13  C   UNL     1      -5.009  -9.935  12.337  0.00  0.00    +0.151 C 
ATOM     14  C   UNL     1      -4.449 -10.339  12.789  0.00  0.00    +0.257 C 
ATOM     15  O   UNL     1      -3.746 -10.529  12.402  0.00  0.00    -0.272 OA
ATOM     16  N   UNL     1      -4.499 -10.577  13.577  0.00  0.00    -0.203 NA
ATOM     17  C   UNL     1      -5.122 -10.471  14.108  0.00  0.00    +0.131 C 
ATOM     18  C   UNL     1      -5.847 -10.101  13.983  0.00  0.00    +0.080 C 
ENDROOT
BRANCH   6   7
ATOM      7  C   UNL     1      -4.217  -9.885  11.100  0.00  0.00    +0.106 C 
BRANCH   7   8
ATOM      8  C   UNL     1      -4.188  -9.660  10.306  0.00  0.00    +0.023 A 
ATOM      9  C   UNL     1      -4.498 -10.083   9.671  0.00  0.00    +0.004 A 
ATOM     10  C   UNL     1      -4.345  -9.657   8.981  0.00  0.00    +0.007 A 
ATOM     11  C   UNL     1      -3.939  -8.970   9.191  0.00  0.00    +0.035 A 
ATOM     12  S   UNL     1      -3.842  -8.972  10.010  0.00  0.00    -0.089 S 
ENDBRANCH   7   8
ENDBRANCH   6   7
BRANCH  18  19
ATOM     19  C   UNL     1      -6.358 -10.084  14.630  0.00  0.00    +0.027 C 
BRANCH  19  20
ATOM     20  C   UNL     1      -6.171 -10.502  15.315  0.00  0.00    +0.088 C 
BRANCH  20  21
ATOM     21  C   UNL     1      -6.641 -10.424  15.989  0.00  0.00    +0.242 C 
ATOM     22  O   UNL     1      -7.452 -10.295  15.913  0.00  0.00    -0.273 OA
ATOM     23  N   UNL     1      -6.300 -10.476  16.738  0.00  0.00    -0.200 NA
BRANCH  23  24
ATOM     24  C   UNL     1      -6.771 -10.398  17.412  0.00  0.00    +0.148 C 
BRANCH  24  25
ATOM     25  C   UNL     1      -6.443 -10.512  18.160  0.00  0.00    +0.029 A 
ATOM     26  C   UNL     1      -5.646 -10.429  18.359  0.00  0.00    +0.004 A 
ATOM     27  C   UNL     1      -5.565 -10.595  19.163  0.00  0.00    +0.007 A 
ATOM     28  C   UNL     1      -6.312 -10.781  19.460  0.00  0.00    +0.035 A 
ATOM     29  S   UNL     1      -6.854 -10.730  18.841  0.00  0.00    -0.089 S 
ENDBRANCH  24  25
ENDBRANCH  23  24
ENDBRANCH  20  21
ENDBRANCH  19  20
ENDBRANCH  18  19
TORSDOF 7
ENDMDL
