MODEL 1
REMARK VINA RESULT:      -8.7      0.000      0.000
REMARK  Name = 
REMARK  9 active torsions:
REMARK  status: ('A' for Active; 'I' for Inactive)
REMARK    1  A    between atoms: O_2  and  C_3
REMARK    2  A    between atoms: C_5  and  N_6
REMARK    3  A    between atoms: N_9  and  C_10
REMARK    4  A    between atoms: C_10  and  C_11
REMARK    5  A    between atoms: C_15  and  C_16
REMARK    6  A    between atoms: C_16  and  C_17
REMARK    7  A    between atoms: N_19  and  C_21
REMARK    8  A    between atoms: C_21  and  C_22
REMARK    9  A    between atoms: C_29  and  C_30
REMARK                            x       y       z     vdW  Elec       q    Type
REMARK                         _______ _______ _______ _____ _____    ______ ____
ROOT
ATOM     11  C   UNL     1      -0.293   0.809  24.088  0.00  0.00    +0.043 C 
ATOM     12  C   UNL     1      -0.533   0.024  24.006  0.00  0.00    -0.033 C 
ATOM     13  C   UNL     1      -1.306  -0.193  24.197  0.00  0.00    -0.048 C 
ATOM     14  C   UNL     1      -1.547  -0.978  24.115  0.00  0.00    +0.026 C 
ATOM     15  C   UNL     1      -1.838   0.375  24.470  0.00  0.00    +0.027 C 
ATOM     28  C   UNL     1      -1.598   1.160  24.552  0.00  0.00    +0.005 C 
ATOM     29  C   UNL     1      -0.825   1.377  24.361  0.00  0.00    +0.006 C 
ENDROOT
BRANCH  29  30
ATOM     30  C   UNL     1      -0.585   2.162  24.443  0.00  0.00    +0.000 C 
ATOM     31  C   UNL     1      -0.279   2.426  25.163  0.00  0.00    +0.000 C 
ATOM     32  C   UNL     1      -0.651   2.682  23.807  0.00  0.00    +0.000 C 
ENDBRANCH  29  30
BRANCH  11  10
ATOM     10  C   UNL     1       0.479   1.025  23.897  0.00  0.00    +0.121 C 
BRANCH  10   9
ATOM      6  N   UNL     1       2.224   0.149  22.919  0.00  0.00    -0.161 NA
ATOM      7  C   UNL     1       1.759   0.644  23.389  0.00  0.00    +0.344 C 
ATOM      8  O   UNL     1       2.112   1.254  23.820  0.00  0.00    -0.249 OA
ATOM      9  N   UNL     1       0.944   0.531  23.428  0.00  0.00    -0.187 NA
BRANCH   6   5
ATOM      3  C   UNL     1       4.364  -0.148  23.226  0.00  0.00    +0.140 A 
ATOM      4  C   UNL     1       3.548  -0.262  23.265  0.00  0.00    +0.054 A 
ATOM      5  C   UNL     1       3.039   0.263  22.880  0.00  0.00    +0.078 A 
ATOM     33  C   UNL     1       3.348   0.901  22.458  0.00  0.00    +0.017 A 
ATOM     34  C   UNL     1       4.164   1.014  22.419  0.00  0.00    +0.004 A 
ATOM     35  C   UNL     1       4.672   0.489  22.803  0.00  0.00    +0.037 A 
BRANCH   3   2
ATOM      1  C   UNL     1       5.449  -0.387  24.125  0.00  0.00    +0.252 C 
ATOM      2  O   UNL     1       4.872  -0.673  23.610  0.00  0.00    -0.471 OA
ENDBRANCH   3   2
ENDBRANCH   6   5
ENDBRANCH  10   9
ENDBRANCH  11  10
BRANCH  15  16
ATOM     16  C   UNL     1      -2.612   0.158  24.661  0.00  0.00    +0.089 C 
BRANCH  16  17
ATOM     17  C   UNL     1      -3.247   0.567  24.331  0.00  0.00    +0.226 C 
ATOM     18  O   UNL     1      -3.218   0.809  23.543  0.00  0.00    -0.275 OA
ATOM     19  N   UNL     1      -3.912   0.733  24.790  0.00  0.00    -0.274 N 
ATOM     20  C   UNL     1      -3.942   0.491  25.577  0.00  0.00    +0.115 C 
BRANCH  19  21
ATOM     21  C   UNL     1      -4.549   1.142  24.460  0.00  0.00    +0.122 C 
BRANCH  21  22
ATOM     22  C   UNL     1      -4.942   1.717  24.901  0.00  0.00    +0.017 A 
ATOM     23  C   UNL     1      -4.708   2.508  24.850  0.00  0.00    +0.001 A 
ATOM     24  C   UNL     1      -5.101   3.083  25.291  0.00  0.00    +0.020 A 
ATOM     25  C   UNL     1      -5.727   2.870  25.783  0.00  0.00    +0.099 A 
ATOM     26  N   UNL     1      -5.961   2.080  25.835  0.00  0.00    -0.243 NA
ATOM     27  C   UNL     1      -5.568   1.504  25.393  0.00  0.00    +0.096 A 
ENDBRANCH  21  22
ENDBRANCH  19  21
ENDBRANCH  16  17
ENDBRANCH  15  16
TORSDOF 9
ENDMDL
MODEL 2
REMARK VINA RESULT:      -8.5      1.206      2.036
REMARK  Name = 
REMARK  9 active torsions:
REMARK  status: ('A' for Active; 'I' for Inactive)
REMARK    1  A    between atoms: O_2  and  C_3
REMARK    2  A    between atoms: C_5  and  N_6
REMARK    3  A    between atoms: N_9  and  C_10
REMARK    4  A    between atoms: C_10  and  C_11
REMARK    5  A    between atoms: C_15  and  C_16
REMARK    6  A    between atoms: C_16  and  C_17
REMARK    7  A    between atoms: N_19  and  C_21
REMARK    8  A    between atoms: C_21  and  C_22
REMARK    9  A    between atoms: C_29  and  C_30
REMARK                            x       y       z     vdW  Elec       q    Type
REMARK                         _______ _______ _______ _____ _____    ______ ____
ROOT
ATOM     11  C   UNL     1      -0.296   1.886  24.502  0.00  0.00    +0.043 C 
ATOM     12  C   UNL     1      -0.188   2.703  24.481  0.00  0.00    -0.033 C 
ATOM     13  C   UNL     1      -0.793   3.206  24.729  0.00  0.00    -0.048 C 
ATOM     14  C   UNL     1      -0.685   4.024  24.709  0.00  0.00    +0.026 C 
ATOM     15  C   UNL     1      -1.507   2.891  24.998  0.00  0.00    +0.027 C 
ATOM     28  C   UNL     1      -1.615   2.073  25.019  0.00  0.00    +0.005 C 
ATOM     29  C   UNL     1      -1.010   1.571  24.770  0.00  0.00    +0.006 C 
ENDROOT
BRANCH  29  30
ATOM     30  C   UNL     1      -1.118   0.753  24.791  0.00  0.00    +0.000 C 
ATOM     31  C   UNL     1      -1.395   0.357  24.122  0.00  0.00    +0.000 C 
ATOM     32  C   UNL     1      -0.951   0.332  25.480  0.00  0.00    +0.000 C 
ENDBRANCH  29  30
BRANCH  11  10
ATOM     10  C   UNL     1       0.309   1.383  24.254  0.00  0.00    +0.121 C 
BRANCH  10   9
ATOM      6  N   UNL     1       2.278   1.511  23.319  0.00  0.00    -0.161 NA
ATOM      7  C   UNL     1       1.579   1.197  23.627  0.00  0.00    +0.344 C 
ATOM      8  O   UNL     1       1.453   0.381  23.613  0.00  0.00    -0.249 OA
ATOM      9  N   UNL     1       1.007   1.697  23.947  0.00  0.00    -0.187 NA
BRANCH   6   5
ATOM      3  C   UNL     1       4.202   0.552  22.946  0.00  0.00    +0.140 A 
ATOM      4  C   UNL     1       3.630   1.052  23.266  0.00  0.00    +0.054 A 
ATOM      5  C   UNL     1       2.850   1.011  22.999  0.00  0.00    +0.078 A 
ATOM     33  C   UNL     1       2.643   0.469  22.412  0.00  0.00    +0.017 A 
ATOM     34  C   UNL     1       3.215  -0.031  22.092  0.00  0.00    +0.004 A 
ATOM     35  C   UNL     1       3.996   0.011  22.359  0.00  0.00    +0.037 A 
BRANCH   3   2
ATOM      1  C   UNL     1       5.351  -0.080  23.516  0.00  0.00    +0.252 C 
ATOM      2  O   UNL     1       4.982   0.593  23.213  0.00  0.00    -0.471 OA
ENDBRANCH   3   2
ENDBRANCH   6   5
ENDBRANCH  10   9
ENDBRANCH  11  10
BRANCH  15  16
ATOM     16  C   UNL     1      -2.113   3.394  25.246  0.00  0.00    +0.089 C 
BRANCH  16  17
ATOM     17  C   UNL     1      -2.838   3.390  24.853  0.00  0.00    +0.226 C 
ATOM     18  O   UNL     1      -2.864   3.298  24.034  0.00  0.00    -0.275 OA
ATOM     19  N   UNL     1      -3.538   3.477  25.281  0.00  0.00    -0.274 N 
ATOM     20  C   UNL     1      -3.512   3.568  26.100  0.00  0.00    +0.115 C 
BRANCH  19  21
ATOM     21  C   UNL     1      -4.264   3.473  24.889  0.00  0.00    +0.122 C 
BRANCH  21  22
ATOM     22  C   UNL     1      -4.887   3.018  25.181  0.00  0.00    +0.017 A 
ATOM     23  C   UNL     1      -5.077   2.299  24.821  0.00  0.00    +0.001 A 
ATOM     24  C   UNL     1      -5.700   1.844  25.112  0.00  0.00    +0.020 A 
ATOM     25  C   UNL     1      -6.133   2.106  25.763  0.00  0.00    +0.099 A 
ATOM     26  N   UNL     1      -5.944   2.824  26.123  0.00  0.00    -0.243 NA
ATOM     27  C   UNL     1      -5.320   3.280  25.831  0.00  0.00    +0.096 A 
ENDBRANCH  21  22
ENDBRANCH  19  21
ENDBRANCH  16  17
ENDBRANCH  15  16
TORSDOF 9
ENDMDL
MODEL 3
REMARK VINA RESULT:      -7.2      1.311      7.079
REMARK  Name = 
REMARK  9 active torsions:
REMARK  status: ('A' for Active; 'I' for Inactive)
REMARK    1  A    between atoms: O_2  and  C_3
REMARK    2  A    between atoms: C_5  and  N_6
REMARK    3  A    between atoms: N_9  and  C_10
REMARK    4  A    between atoms: C_10  and  C_11
REMARK    5  A    between atoms: C_15  and  C_16
REMARK    6  A    between atoms: C_16  and  C_17
REMARK    7  A    between atoms: N_19  and  C_21
REMARK    8  A    between atoms: C_21  and  C_22
REMARK    9  A    between atoms: C_29  and  C_30
REMARK                            x       y       z     vdW  Elec       q    Type
REMARK                         _______ _______ _______ _____ _____    ______ ____
ROOT
ATOM     11  C   UNL     1      -1.158   1.272  24.502  0.00  0.00    +0.043 C 
ATOM     12  C   UNL     1      -1.374   0.519  24.247  0.00  0.00    -0.033 C 
ATOM     13  C   UNL     1      -0.801  -0.001  23.960  0.00  0.00    -0.048 C 
ATOM     14  C   UNL     1      -1.017  -0.755  23.705  0.00  0.00    +0.026 C 
ATOM     15  C   UNL     1      -0.011   0.234  23.928  0.00  0.00    +0.027 C 
ATOM     28  C   UNL     1       0.206   0.989  24.184  0.00  0.00    +0.005 C 
ATOM     29  C   UNL     1      -0.368   1.507  24.470  0.00  0.00    +0.006 C 
ENDROOT
BRANCH  29  30
ATOM     30  C   UNL     1      -0.151   2.261  24.725  0.00  0.00    +0.000 C 
ATOM     31  C   UNL     1       0.092   2.378  25.506  0.00  0.00    +0.000 C 
ATOM     32  C   UNL     1      -0.177   2.897  24.202  0.00  0.00    +0.000 C 
ENDBRANCH  29  30
BRANCH  11  10
ATOM     10  C   UNL     1      -1.731   1.791  24.789  0.00  0.00    +0.121 C 
BRANCH  10   9
ATOM      6  N   UNL     1      -3.844   2.218  24.442  0.00  0.00    -0.161 NA
ATOM      7  C   UNL     1      -3.110   2.165  24.816  0.00  0.00    +0.344 C 
ATOM      8  O   UNL     1      -3.022   2.435  25.592  0.00  0.00    -0.249 OA
ATOM      9  N   UNL     1      -2.465   1.844  24.416  0.00  0.00    -0.187 NA
BRANCH   6   5
ATOM      3  C   UNL     1      -5.729   2.367  25.533  0.00  0.00    +0.140 A 
ATOM      4  C   UNL     1      -5.084   2.045  25.132  0.00  0.00    +0.054 A 
ATOM      5  C   UNL     1      -4.489   2.539  24.843  0.00  0.00    +0.078 A 
ATOM     33  C   UNL     1      -4.541   3.355  24.955  0.00  0.00    +0.017 A 
ATOM     34  C   UNL     1      -5.186   3.677  25.355  0.00  0.00    +0.004 A 
ATOM     35  C   UNL     1      -5.781   3.182  25.644  0.00  0.00    +0.037 A 
BRANCH   3   2
ATOM      1  C   UNL     1      -6.400   1.751  26.634  0.00  0.00    +0.252 C 
ATOM      2  O   UNL     1      -6.323   1.873  25.822  0.00  0.00    -0.471 OA
ENDBRANCH   3   2
ENDBRANCH   6   5
ENDBRANCH  10   9
ENDBRANCH  11  10
BRANCH  15  16
ATOM     16  C   UNL     1       0.563  -0.285  23.641  0.00  0.00    +0.089 C 
BRANCH  16  17
ATOM     17  C   UNL     1       1.081  -0.039  23.048  0.00  0.00    +0.226 C 
ATOM     18  O   UNL     1       0.798   0.395  22.406  0.00  0.00    -0.275 OA
ATOM     19  N   UNL     1       1.883  -0.228  23.097  0.00  0.00    -0.274 N 
ATOM     20  C   UNL     1       2.165  -0.661  23.738  0.00  0.00    +0.115 C 
BRANCH  19  21
ATOM     21  C   UNL     1       2.401   0.018  22.504  0.00  0.00    +0.122 C 
BRANCH  21  22
ATOM     22  C   UNL     1       3.186   0.192  22.689  0.00  0.00    +0.017 A 
ATOM     23  C   UNL     1       3.457   0.971  22.646  0.00  0.00    +0.001 A 
ATOM     24  C   UNL     1       4.242   1.144  22.832  0.00  0.00    +0.020 A 
ATOM     25  C   UNL     1       4.755   0.541  23.059  0.00  0.00    +0.099 A 
ATOM     26  N   UNL     1       4.485  -0.237  23.102  0.00  0.00    -0.243 NA
ATOM     27  C   UNL     1       3.699  -0.411  22.917  0.00  0.00    +0.096 A 
ENDBRANCH  21  22
ENDBRANCH  19  21
ENDBRANCH  16  17
ENDBRANCH  15  16
TORSDOF 9
ENDMDL
MODEL 4
REMARK VINA RESULT:      -5.6     14.590     15.782
REMARK  Name = 
REMARK  9 active torsions:
REMARK  status: ('A' for Active; 'I' for Inactive)
REMARK    1  A    between atoms: O_2  and  C_3
REMARK    2  A    between atoms: C_5  and  N_6
REMARK    3  A    between atoms: N_9  and  C_10
REMARK    4  A    between atoms: C_10  and  C_11
REMARK    5  A    between atoms: C_15  and  C_16
REMARK    6  A    between atoms: C_16  and  C_17
REMARK    7  A    between atoms: N_19  and  C_21
REMARK    8  A    between atoms: C_21  and  C_22
REMARK    9  A    between atoms: C_29  and  C_30
REMARK                            x       y       z     vdW  Elec       q    Type
REMARK                         _______ _______ _______ _____ _____    ______ ____
ROOT
ATOM     11  C   UNL     1      -5.965 -10.113  13.998  0.00  0.00    +0.043 C 
ATOM     12  C   UNL     1      -5.393 -10.162  14.589  0.00  0.00    -0.033 C 
ATOM     13  C   UNL     1      -5.620 -10.237  15.379  0.00  0.00    -0.048 C 
ATOM     14  C   UNL     1      -5.047 -10.286  15.971  0.00  0.00    +0.026 C 
ATOM     15  C   UNL     1      -6.420 -10.264  15.577  0.00  0.00    +0.027 C 
ATOM     28  C   UNL     1      -6.994 -10.215  14.985  0.00  0.00    +0.005 C 
ATOM     29  C   UNL     1      -6.766 -10.140  14.196  0.00  0.00    +0.006 C 
ENDROOT
BRANCH  29  30
ATOM     30  C   UNL     1      -7.339 -10.091  13.605  0.00  0.00    +0.000 C 
ATOM     31  C   UNL     1      -7.661 -10.781  13.285  0.00  0.00    +0.000 C 
ATOM     32  C   UNL     1      -7.591  -9.355  13.334  0.00  0.00    +0.000 C 
ENDBRANCH  29  30
BRANCH  11  10
ATOM     10  C   UNL     1      -5.738 -10.038  13.209  0.00  0.00    +0.121 C 
BRANCH  10   9
ATOM      6  N   UNL     1      -3.917 -10.293  12.032  0.00  0.00    -0.161 NA
ATOM      7  C   UNL     1      -4.654 -10.015  12.278  0.00  0.00    +0.344 C 
ATOM      8  O   UNL     1      -5.044  -9.435  11.839  0.00  0.00    -0.249 OA
ATOM      9  N   UNL     1      -5.001 -10.316  12.963  0.00  0.00    -0.187 NA
BRANCH   6   5
ATOM      3  C   UNL     1      -2.475  -9.342  10.698  0.00  0.00    +0.140 A 
ATOM      4  C   UNL     1      -2.822  -9.643  11.383  0.00  0.00    +0.054 A 
ATOM      5  C   UNL     1      -3.570  -9.992  11.348  0.00  0.00    +0.078 A 
ATOM     33  C   UNL     1      -3.969 -10.039  10.627  0.00  0.00    +0.017 A 
ATOM     34  C   UNL     1      -3.622  -9.738   9.942  0.00  0.00    +0.004 A 
ATOM     35  C   UNL     1      -2.874  -9.390   9.978  0.00  0.00    +0.037 A 
BRANCH   3   2
ATOM      1  C   UNL     1      -1.128  -9.348  11.174  0.00  0.00    +0.252 C 
ATOM      2  O   UNL     1      -1.728  -8.994  10.733  0.00  0.00    -0.471 OA
ENDBRANCH   3   2
ENDBRANCH   6   5
ENDBRANCH  10   9
ENDBRANCH  11  10
BRANCH  15  16
ATOM     16  C   UNL     1      -6.648 -10.339  16.367  0.00  0.00    +0.089 C 
BRANCH  16  17
ATOM     17  C   UNL     1      -7.099  -9.747  16.724  0.00  0.00    +0.226 C 
ATOM     18  O   UNL     1      -6.932  -8.954  16.572  0.00  0.00    -0.275 OA
ATOM     19  N   UNL     1      -7.716  -9.950  17.232  0.00  0.00    -0.274 N 
ATOM     20  C   UNL     1      -7.882 -10.743  17.384  0.00  0.00    +0.115 C 
BRANCH  19  21
ATOM     21  C   UNL     1      -8.167  -9.358  17.590  0.00  0.00    +0.122 C 
BRANCH  21  22
ATOM     22  C   UNL     1      -8.963  -9.492  17.756  0.00  0.00    +0.017 A 
ATOM     23  C   UNL     1      -9.547  -9.106  17.317  0.00  0.00    +0.001 A 
ATOM     24  C   UNL     1     -10.343  -9.240  17.484  0.00  0.00    +0.020 A 
ATOM     25  C   UNL     1     -10.557  -9.757  18.088  0.00  0.00    +0.099 A 
ATOM     26  N   UNL     1      -9.975 -10.142  18.527  0.00  0.00    -0.243 NA
ATOM     27  C   UNL     1      -9.177 -10.009  18.361  0.00  0.00    +0.096 A 
ENDBRANCH  21  22
ENDBRANCH  19  21
ENDBRANCH  16  17
ENDBRANCH  15  16
TORSDOF 9
ENDMDL
MODEL 5
REMARK VINA RESULT:      -4.9     14.712     17.163
REMARK  Name = 
REMARK  9 active torsions:
REMARK  status: ('A' for Active; 'I' for Inactive)
REMARK    1  A    between atoms: O_2  and  C_3
REMARK    2  A    between atoms: C_5  and  N_6
REMARK    3  A    between atoms: N_9  and  C_10
REMARK    4  A    between atoms: C_10  and  C_11
REMARK    5  A    between atoms: C_15  and  C_16
REMARK    6  A    between atoms: C_16  and  C_17
REMARK    7  A    between atoms: N_19  and  C_21
REMARK    8  A    between atoms: C_21  and  C_22
REMARK    9  A    between atoms: C_29  and  C_30
REMARK                            x       y       z     vdW  Elec       q    Type
REMARK                         _______ _______ _______ _____ _____    ______ ____
ROOT
ATOM     11  C   UNL     1      -6.922 -10.328  15.337  0.00  0.00    +0.043 C 
ATOM     12  C   UNL     1      -7.365 -10.474  14.658  0.00  0.00    -0.033 C 
ATOM     13  C   UNL     1      -6.988 -10.560  13.929  0.00  0.00    -0.048 C 
ATOM     14  C   UNL     1      -7.431 -10.707  13.248  0.00  0.00    +0.026 C 
ATOM     15  C   UNL     1      -6.166 -10.500  13.881  0.00  0.00    +0.027 C 
ATOM     28  C   UNL     1      -5.722 -10.354  14.561  0.00  0.00    +0.005 C 
ATOM     29  C   UNL     1      -6.101 -10.267  15.289  0.00  0.00    +0.006 C 
ENDROOT
BRANCH  29  30
ATOM     30  C   UNL     1      -5.657 -10.121  15.969  0.00  0.00    +0.000 C 
ATOM     31  C   UNL     1      -5.279 -10.745  16.357  0.00  0.00    +0.000 C 
ATOM     32  C   UNL     1      -5.590  -9.353  16.260  0.00  0.00    +0.000 C 
ENDBRANCH  29  30
BRANCH  11  10
ATOM     10  C   UNL     1      -7.300 -10.242  16.065  0.00  0.00    +0.121 C 
BRANCH  10   9
ATOM      6  N   UNL     1      -9.320 -10.424  16.872  0.00  0.00    -0.161 NA
ATOM      7  C   UNL     1      -8.533 -10.190  16.784  0.00  0.00    +0.344 C 
ATOM      8  O   UNL     1      -8.194  -9.670  17.329  0.00  0.00    -0.249 OA
ATOM      9  N   UNL     1      -8.086 -10.475  16.153  0.00  0.00    -0.187 NA
BRANCH   6   5
ATOM      3  C   UNL     1     -10.319 -10.317  18.810  0.00  0.00    +0.140 A 
ATOM      4  C   UNL     1      -9.871 -10.603  18.178  0.00  0.00    +0.054 A 
ATOM      5  C   UNL     1      -9.767 -10.139  17.503  0.00  0.00    +0.078 A 
ATOM     33  C   UNL     1     -10.112  -9.390  17.461  0.00  0.00    +0.017 A 
ATOM     34  C   UNL     1     -10.559  -9.105  18.092  0.00  0.00    +0.004 A 
ATOM     35  C   UNL     1     -10.663  -9.569  18.767  0.00  0.00    +0.037 A 
BRANCH   3   2
ATOM      1  C   UNL     1     -10.484 -10.424  20.225  0.00  0.00    +0.252 C 
ATOM      2  O   UNL     1     -10.422 -10.781  19.484  0.00  0.00    -0.471 OA
ENDBRANCH   3   2
ENDBRANCH   6   5
ENDBRANCH  10   9
ENDBRANCH  11  10
BRANCH  15  16
ATOM     16  C   UNL     1      -5.788 -10.586  13.152  0.00  0.00    +0.089 C 
BRANCH  16  17
ATOM     17  C   UNL     1      -5.576  -9.918  12.717  0.00  0.00    +0.226 C 
ATOM     18  O   UNL     1      -5.835  -9.172  12.953  0.00  0.00    -0.275 OA
ATOM     19  N   UNL     1      -5.104  -9.998  12.044  0.00  0.00    -0.274 N 
ATOM     20  C   UNL     1      -4.846 -10.744  11.808  0.00  0.00    +0.115 C 
BRANCH  19  21
ATOM     21  C   UNL     1      -4.892  -9.330  11.608  0.00  0.00    +0.122 C 
BRANCH  21  22
ATOM     22  C   UNL     1      -4.500  -9.416  10.888  0.00  0.00    +0.017 A 
ATOM     23  C   UNL     1      -4.901  -9.272  10.181  0.00  0.00    +0.001 A 
ATOM     24  C   UNL     1      -4.509  -9.358   9.460  0.00  0.00    +0.020 A 
ATOM     25  C   UNL     1      -3.718  -9.588   9.446  0.00  0.00    +0.099 A 
ATOM     26  N   UNL     1      -3.317  -9.733  10.152  0.00  0.00    -0.243 NA
ATOM     27  C   UNL     1      -3.709  -9.647  10.873  0.00  0.00    +0.096 A 
ENDBRANCH  21  22
ENDBRANCH  19  21
ENDBRANCH  16  17
ENDBRANCH  15  16
TORSDOF 9
ENDMDL
