REMARK  Name = 
REMARK  6 active torsions:
REMARK  status: ('A' for Active; 'I' for Inactive)
REMARK    1  A    between atoms: C_5  and  C_6
REMARK    2  A    between atoms: C_6  and  C_7
REMARK    3  A    between atoms: N_12  and  C_15
REMARK    4  A    between atoms: C_23  and  C_24
REMARK    5  A    between atoms: C_24  and  N_25
REMARK    6  A    between atoms: C_26  and  C_28
REMARK                            x       y       z     vdW  Elec       q    Type
REMARK                         _______ _______ _______ _____ _____    ______ ____
ROOT
ATOM      1  O   UNL     1       1.429  -4.125   0.000  0.00  0.00    -0.218 OA
ATOM      2  C   UNL     1       1.429  -4.950   0.000  0.00  0.00    +0.213 C 
ATOM      3  C   UNL     1       2.096  -5.435   0.000  0.00  0.00    +0.212 C 
ATOM      4  O   UNL     1       2.881  -5.180   0.000  0.00  0.00    -0.218 OA
ATOM      5  C   UNL     1       1.841  -6.220   0.000  0.00  0.00    +0.157 C 
ATOM     22  O   UNL     1       1.016  -6.220   0.000  0.00  0.00    -0.351 OA
ATOM     23  C   UNL     1       0.761  -5.435   0.000  0.00  0.00    +0.170 C 
ENDROOT
BRANCH   5   6
ATOM      6  C   UNL     1       2.326  -6.887   0.000  0.00  0.00    +0.117 C 
BRANCH   6   7
ATOM      7  C   UNL     1       3.147  -6.801   0.000  0.00  0.00    +0.228 C 
ATOM      8  O   UNL     1       3.482  -6.047   0.000  0.00  0.00    -0.275 OA
ATOM      9  N   UNL     1       3.632  -7.468   0.000  0.00  0.00    -0.276 N 
ATOM     10  C   UNL     1       4.452  -7.382   0.000  0.00  0.00    +0.115 C 
ATOM     11  C   UNL     1       4.937  -8.049   0.000  0.00  0.00    +0.112 C 
ATOM     12  N   UNL     1       4.602  -8.803   0.000  0.00  0.00    -0.304 N 
ATOM     13  C   UNL     1       3.781  -8.889   0.000  0.00  0.00    +0.112 C 
ATOM     14  C   UNL     1       3.296  -8.222   0.000  0.00  0.00    +0.115 C 
BRANCH  12  15
ATOM     15  C   UNL     1       5.087  -9.470   0.000  0.00  0.00    +0.048 A 
ATOM     16  C   UNL     1       5.907  -9.384   0.000  0.00  0.00    +0.017 A 
ATOM     17  C   UNL     1       6.392 -10.052   0.000  0.00  0.00    +0.031 A 
ATOM     18  C   UNL     1       6.056 -10.805   0.000  0.00  0.00    +0.140 A 
ATOM     19  F   UNL     1       6.541 -11.473   0.000  0.00  0.00    -0.204 F 
ATOM     20  C   UNL     1       5.236 -10.892   0.000  0.00  0.00    +0.031 A 
ATOM     21  C   UNL     1       4.751 -10.224   0.000  0.00  0.00    +0.017 A 
ENDBRANCH  12  15
ENDBRANCH   6   7
ENDBRANCH   5   6
BRANCH  23  24
ATOM     24  C   UNL     1      -0.023  -5.180   0.000  0.00  0.00    +0.148 C 
BRANCH  24  25
ATOM     25  N   UNL     1      -0.195  -4.373   0.000  0.00  0.00    -0.196 NA
ATOM     26  C   UNL     1      -0.979  -4.118   0.000  0.00  0.00    +0.300 C 
ATOM     27  O   UNL     1      -1.592  -4.670   0.000  0.00  0.00    -0.265 OA
BRANCH  26  28
ATOM     28  C   UNL     1      -1.151  -3.311   0.000  0.00  0.00    +0.200 A 
ATOM     29  C   UNL     1      -1.905  -2.975   0.000  0.00  0.00    +0.046 A 
ATOM     30  C   UNL     1      -1.818  -2.155   0.000  0.00  0.00    +0.044 A 
ATOM     31  C   UNL     1      -1.011  -1.984   0.000  0.00  0.00    +0.180 A 
ATOM     32  O   UNL     1      -0.599  -2.698   0.000  0.00  0.00    -0.446 OA
ENDBRANCH  26  28
ENDBRANCH  24  25
ENDBRANCH  23  24
TORSDOF 6
