MODEL 1
REMARK VINA RESULT:     -13.5      0.000      0.000
REMARK  Name = 
REMARK  4 active torsions:
REMARK  status: ('A' for Active; 'I' for Inactive)
REMARK    1  A    between atoms: C_5  and  C_8
REMARK    2  A    between atoms: C_11  and  C_13
REMARK    3  A    between atoms: N_16  and  C_17
REMARK    4  A    between atoms: C_17  and  C_18
REMARK                            x       y       z     vdW  Elec       q    Type
REMARK                         _______ _______ _______ _____ _____    ______ ____
ROOT
ATOM     13  C   UNL     1      -3.905   2.360  24.820  0.00  0.00    +0.096 C 
ATOM     14  C   UNL     1      -4.074   2.920  24.238  0.00  0.00    +0.028 C 
ATOM     15  C   UNL     1      -3.659   3.610  24.421  0.00  0.00    +0.073 C 
ATOM     16  N   UNL     1      -3.234   3.476  25.114  0.00  0.00    -0.268 NA
ATOM     25  C   UNL     1      -3.386   2.703  25.361  0.00  0.00    +0.082 C 
ENDROOT
BRANCH  13  11
ATOM      8  C   UNL     1      -4.285   0.259  24.817  0.00  0.00    +0.250 A 
ATOM      9  N   UNL     1      -5.034   0.557  24.992  0.00  0.00    -0.107 NA
ATOM     10  N   UNL     1      -4.983   1.380  25.014  0.00  0.00    -0.111 NA
ATOM     11  C   UNL     1      -4.202   1.591  24.853  0.00  0.00    +0.227 A 
ATOM     12  O   UNL     1      -3.771   0.898  24.731  0.00  0.00    -0.419 OA
BRANCH   8   5
ATOM      1  C   UNL     1      -3.486  -2.928  24.514  0.00  0.00    +0.031 C 
ATOM      2  C   UNL     1      -3.685  -2.131  24.590  0.00  0.00    -0.022 A 
ATOM      3  C   UNL     1      -3.479  -1.717  25.273  0.00  0.00    -0.004 A 
ATOM      4  C   UNL     1      -3.678  -0.920  25.349  0.00  0.00    +0.004 A 
ATOM      5  C   UNL     1      -4.085  -0.538  24.741  0.00  0.00    +0.055 A 
ATOM      6  C   UNL     1      -4.292  -0.951  24.059  0.00  0.00    +0.004 A 
ATOM      7  C   UNL     1      -4.092  -1.748  23.983  0.00  0.00    -0.004 A 
ENDBRANCH   8   5
ENDBRANCH  13  11
BRANCH  16  17
ATOM     17  C   UNL     1      -2.743   4.019  25.495  0.00  0.00    +0.102 C 
BRANCH  17  18
ATOM     18  C   UNL     1      -1.955   4.095  25.264  0.00  0.00    +0.033 A 
ATOM     19  C   UNL     1      -1.621   4.845  25.176  0.00  0.00    +0.193 A 
ATOM     20  O   UNL     1      -2.077   5.518  25.318  0.00  0.00    -0.287 OA
ATOM     21  C   UNL     1      -0.833   4.921  24.945  0.00  0.00    +0.042 A 
ATOM     22  C   UNL     1      -0.378   4.248  24.803  0.00  0.00    +0.003 A 
ATOM     23  C   UNL     1      -0.711   3.498  24.891  0.00  0.00    -0.000 A 
ATOM     24  C   UNL     1      -1.500   3.422  25.122  0.00  0.00    +0.000 A 
ENDBRANCH  17  18
ENDBRANCH  16  17
TORSDOF 4
ENDMDL
MODEL 2
REMARK VINA RESULT:     -12.8      1.975      5.779
REMARK  Name = 
REMARK  4 active torsions:
REMARK  status: ('A' for Active; 'I' for Inactive)
REMARK    1  A    between atoms: C_5  and  C_8
REMARK    2  A    between atoms: C_11  and  C_13
REMARK    3  A    between atoms: N_16  and  C_17
REMARK    4  A    between atoms: C_17  and  C_18
REMARK                            x       y       z     vdW  Elec       q    Type
REMARK                         _______ _______ _______ _____ _____    ______ ____
ROOT
ATOM     13  C   UNL     1      -1.226   0.359  25.240  0.00  0.00    +0.096 C 
ATOM     14  C   UNL     1      -0.859  -0.096  24.657  0.00  0.00    +0.028 C 
ATOM     15  C   UNL     1      -1.243  -0.826  24.624  0.00  0.00    +0.073 C 
ATOM     16  N   UNL     1      -1.847  -0.821  25.186  0.00  0.00    -0.268 NA
ATOM     25  C   UNL     1      -1.837  -0.089  25.566  0.00  0.00    +0.082 C 
ENDROOT
BRANCH  13  11
ATOM      8  C   UNL     1      -0.994   2.459  25.543  0.00  0.00    +0.250 A 
ATOM      9  N   UNL     1      -0.407   2.160  26.040  0.00  0.00    -0.107 NA
ATOM     10  N   UNL     1      -0.422   1.337  25.987  0.00  0.00    -0.111 NA
ATOM     11  C   UNL     1      -1.019   1.127  25.458  0.00  0.00    +0.227 A 
ATOM     12  O   UNL     1      -1.372   1.821  25.183  0.00  0.00    -0.419 OA
BRANCH   8   5
ATOM      1  C   UNL     1      -1.702   5.649  25.079  0.00  0.00    +0.031 C 
ATOM      2  C   UNL     1      -1.525   4.851  25.195  0.00  0.00    -0.022 A 
ATOM      3  C   UNL     1      -2.061   4.362  25.590  0.00  0.00    -0.004 A 
ATOM      4  C   UNL     1      -1.884   3.565  25.706  0.00  0.00    +0.004 A 
ATOM      5  C   UNL     1      -1.171   3.257  25.427  0.00  0.00    +0.055 A 
ATOM      6  C   UNL     1      -0.636   3.744  25.033  0.00  0.00    +0.004 A 
ATOM      7  C   UNL     1      -0.813   4.542  24.917  0.00  0.00    -0.004 A 
ENDBRANCH   8   5
ENDBRANCH  13  11
BRANCH  16  17
ATOM     17  C   UNL     1      -2.371  -1.441  25.340  0.00  0.00    +0.102 C 
BRANCH  17  18
ATOM     18  C   UNL     1      -3.026  -1.558  24.853  0.00  0.00    +0.033 A 
ATOM     19  C   UNL     1      -3.214  -2.317  24.589  0.00  0.00    +0.193 A 
ATOM     20  O   UNL     1      -2.747  -2.959  24.813  0.00  0.00    -0.287 OA
ATOM     21  C   UNL     1      -3.870  -2.434  24.103  0.00  0.00    +0.042 A 
ATOM     22  C   UNL     1      -4.337  -1.792  23.879  0.00  0.00    +0.003 A 
ATOM     23  C   UNL     1      -4.149  -1.033  24.142  0.00  0.00    -0.000 A 
ATOM     24  C   UNL     1      -3.493  -0.916  24.629  0.00  0.00    +0.000 A 
ENDBRANCH  17  18
ENDBRANCH  16  17
TORSDOF 4
ENDMDL
MODEL 3
REMARK VINA RESULT:     -12.2      0.965      5.315
REMARK  Name = 
REMARK  4 active torsions:
REMARK  status: ('A' for Active; 'I' for Inactive)
REMARK    1  A    between atoms: C_5  and  C_8
REMARK    2  A    between atoms: C_11  and  C_13
REMARK    3  A    between atoms: N_16  and  C_17
REMARK    4  A    between atoms: C_17  and  C_18
REMARK                            x       y       z     vdW  Elec       q    Type
REMARK                         _______ _______ _______ _____ _____    ______ ____
ROOT
ATOM     13  C   UNL     1      -4.263   1.448  24.841  0.00  0.00    +0.096 C 
ATOM     14  C   UNL     1      -4.936   1.148  25.214  0.00  0.00    +0.028 C 
ATOM     15  C   UNL     1      -5.024   0.359  24.985  0.00  0.00    +0.073 C 
ATOM     16  N   UNL     1      -4.406   0.173  24.471  0.00  0.00    -0.268 NA
ATOM     25  C   UNL     1      -3.936   0.845  24.382  0.00  0.00    +0.082 C 
ENDROOT
BRANCH  13  11
ATOM      8  C   UNL     1      -3.133   3.254  24.976  0.00  0.00    +0.250 A 
ATOM      9  N   UNL     1      -3.901   3.537  25.078  0.00  0.00    -0.107 NA
ATOM     10  N   UNL     1      -4.419   2.896  25.040  0.00  0.00    -0.111 NA
ATOM     11  C   UNL     1      -3.970   2.215  24.914  0.00  0.00    +0.227 A 
ATOM     12  O   UNL     1      -3.176   2.436  24.875  0.00  0.00    -0.419 OA
BRANCH   8   5
ATOM      1  C   UNL     1      -0.378   5.069  24.974  0.00  0.00    +0.031 C 
ATOM      2  C   UNL     1      -1.067   4.616  24.974  0.00  0.00    -0.022 A 
ATOM      3  C   UNL     1      -1.063   3.859  24.643  0.00  0.00    -0.004 A 
ATOM      4  C   UNL     1      -1.752   3.405  24.644  0.00  0.00    +0.004 A 
ATOM      5  C   UNL     1      -2.445   3.708  24.975  0.00  0.00    +0.055 A 
ATOM      6  C   UNL     1      -2.449   4.463  25.306  0.00  0.00    +0.004 A 
ATOM      7  C   UNL     1      -1.760   4.917  25.305  0.00  0.00    -0.004 A 
ENDBRANCH   8   5
ENDBRANCH  13  11
BRANCH  16  17
ATOM     17  C   UNL     1      -4.281  -0.559  24.110  0.00  0.00    +0.102 C 
BRANCH  17  18
ATOM     18  C   UNL     1      -3.944  -1.178  24.538  0.00  0.00    +0.033 A 
ATOM     19  C   UNL     1      -3.926  -1.939  24.219  0.00  0.00    +0.193 A 
ATOM     20  O   UNL     1      -4.245  -2.080  23.471  0.00  0.00    -0.287 OA
ATOM     21  C   UNL     1      -3.589  -2.558  24.647  0.00  0.00    +0.042 A 
ATOM     22  C   UNL     1      -3.269  -2.416  25.394  0.00  0.00    +0.003 A 
ATOM     23  C   UNL     1      -3.287  -1.657  25.713  0.00  0.00    -0.000 A 
ATOM     24  C   UNL     1      -3.624  -1.036  25.285  0.00  0.00    +0.000 A 
ENDBRANCH  17  18
ENDBRANCH  16  17
TORSDOF 4
ENDMDL
MODEL 4
REMARK VINA RESULT:     -12.0      1.806      2.329
REMARK  Name = 
REMARK  4 active torsions:
REMARK  status: ('A' for Active; 'I' for Inactive)
REMARK    1  A    between atoms: C_5  and  C_8
REMARK    2  A    between atoms: C_11  and  C_13
REMARK    3  A    between atoms: N_16  and  C_17
REMARK    4  A    between atoms: C_17  and  C_18
REMARK                            x       y       z     vdW  Elec       q    Type
REMARK                         _______ _______ _______ _____ _____    ______ ____
ROOT
ATOM     13  C   UNL     1      -1.017   1.184  25.011  0.00  0.00    +0.096 C 
ATOM     14  C   UNL     1      -0.647   1.414  24.311  0.00  0.00    +0.028 C 
ATOM     15  C   UNL     1      -0.415   2.202  24.392  0.00  0.00    +0.073 C 
ATOM     16  N   UNL     1      -0.642   2.459  25.142  0.00  0.00    -0.268 NA
ATOM     25  C   UNL     1      -1.014   1.830  25.525  0.00  0.00    +0.082 C 
ENDROOT
BRANCH  13  11
ATOM      8  C   UNL     1      -2.067  -0.673  25.080  0.00  0.00    +0.250 A 
ATOM      9  N   UNL     1      -1.583  -0.738  25.745  0.00  0.00    -0.107 NA
ATOM     10  N   UNL     1      -1.130  -0.051  25.801  0.00  0.00    -0.111 NA
ATOM     11  C   UNL     1      -1.335   0.440  25.170  0.00  0.00    +0.227 A 
ATOM     12  O   UNL     1      -1.914   0.055  24.725  0.00  0.00    -0.419 OA
BRANCH   8   5
ATOM      1  C   UNL     1      -4.234  -2.929  24.029  0.00  0.00    +0.031 C 
ATOM      2  C   UNL     1      -3.692  -2.365  24.291  0.00  0.00    -0.022 A 
ATOM      3  C   UNL     1      -3.940  -1.591  24.437  0.00  0.00    -0.004 A 
ATOM      4  C   UNL     1      -3.398  -1.027  24.700  0.00  0.00    +0.004 A 
ATOM      5  C   UNL     1      -2.608  -1.237  24.817  0.00  0.00    +0.055 A 
ATOM      6  C   UNL     1      -2.361  -2.010  24.672  0.00  0.00    +0.004 A 
ATOM      7  C   UNL     1      -2.902  -2.574  24.409  0.00  0.00    -0.004 A 
ENDBRANCH   8   5
ENDBRANCH  13  11
BRANCH  16  17
ATOM     17  C   UNL     1      -0.518   3.212  25.455  0.00  0.00    +0.102 C 
BRANCH  17  18
ATOM     18  C   UNL     1      -1.127   3.768  25.445  0.00  0.00    +0.033 A 
ATOM     19  C   UNL     1      -0.999   4.516  25.119  0.00  0.00    +0.193 A 
ATOM     20  O   UNL     1      -0.262   4.706  24.803  0.00  0.00    -0.287 OA
ATOM     21  C   UNL     1      -1.609   5.071  25.110  0.00  0.00    +0.042 A 
ATOM     22  C   UNL     1      -2.347   4.880  25.426  0.00  0.00    +0.003 A 
ATOM     23  C   UNL     1      -2.475   4.133  25.752  0.00  0.00    -0.000 A 
ATOM     24  C   UNL     1      -1.865   3.576  25.762  0.00  0.00    +0.000 A 
ENDBRANCH  17  18
ENDBRANCH  16  17
TORSDOF 4
ENDMDL
