MODEL 1
REMARK VINA RESULT:     -14.4      0.000      0.000
REMARK  Name = 
REMARK  8 active torsions:
REMARK  status: ('A' for Active; 'I' for Inactive)
REMARK    1  A    between atoms: C_2  and  C_3
REMARK    2  A    between atoms: C_3  and  C_4
REMARK    3  A    between atoms: C_9  and  C_10
REMARK    4  A    between atoms: C_10  and  C_11
REMARK    5  A    between atoms: C_14  and  C_15
REMARK    6  A    between atoms: C_15  and  C_16
REMARK    7  A    between atoms: C_26  and  C_27
REMARK    8  A    between atoms: C_27  and  C_28
REMARK                            x       y       z     vdW  Elec       q    Type
REMARK                         _______ _______ _______ _____ _____    ______ ____
ROOT
ATOM      4  C   UNL     1      -0.742   2.335  25.017  0.00  0.00    +0.012 C 
ATOM      5  C   UNL     1      -0.192   2.316  24.403  0.00  0.00    +0.019 C 
ATOM      6  C   UNL     1       0.027   3.016  24.025  0.00  0.00    +0.089 C 
ATOM      7  N   UNL     1      -0.305   3.733  24.260  0.00  0.00    -0.218 NA
ATOM      8  C   UNL     1      -0.855   3.752  24.874  0.00  0.00    +0.089 C 
ATOM      9  C   UNL     1      -1.074   3.051  25.253  0.00  0.00    +0.024 C 
ENDROOT
BRANCH   4   3
ATOM      3  C   UNL     1      -0.961   1.635  25.395  0.00  0.00    +0.085 C 
BRANCH   3   2
ATOM      1  O   UNL     1      -0.010   0.844  24.679  0.00  0.00    -0.275 OA
ATOM      2  C   UNL     1      -0.725   0.907  25.084  0.00  0.00    +0.226 C 
ATOM     23  N   UNL     1      -1.206   0.244  25.178  0.00  0.00    -0.280 N 
ATOM     24  C   UNL     1      -0.970  -0.484  24.867  0.00  0.00    +0.093 C 
ATOM     25  C   UNL     1      -1.451  -1.147  24.961  0.00  0.00    +0.022 C 
ATOM     26  C   UNL     1      -2.167  -1.084  25.367  0.00  0.00    +0.008 C 
ATOM     34  C   UNL     1      -2.402  -0.358  25.678  0.00  0.00    +0.022 C 
ATOM     35  C   UNL     1      -1.922   0.306  25.584  0.00  0.00    +0.093 C 
BRANCH  26  27
ATOM     27  C   UNL     1      -2.647  -1.748  25.461  0.00  0.00    +0.026 C 
BRANCH  27  28
ATOM     28  C   UNL     1      -3.201  -1.942  24.881  0.00  0.00    -0.022 A 
ATOM     29  C   UNL     1      -3.143  -2.661  24.479  0.00  0.00    -0.004 A 
ATOM     30  C   UNL     1      -3.697  -2.855  23.899  0.00  0.00    -0.000 A 
ATOM     31  C   UNL     1      -4.309  -2.330  23.721  0.00  0.00    -0.000 A 
ATOM     32  C   UNL     1      -4.366  -1.612  24.123  0.00  0.00    -0.000 A 
ATOM     33  C   UNL     1      -3.812  -1.418  24.703  0.00  0.00    -0.004 A 
ENDBRANCH  27  28
ENDBRANCH  26  27
ENDBRANCH   3   2
ENDBRANCH   4   3
BRANCH   9  10
ATOM     10  C   UNL     1      -1.624   3.070  25.867  0.00  0.00    +0.051 C 
BRANCH  10  11
ATOM     11  C   UNL     1      -2.343   3.461  25.766  0.00  0.00    +0.100 A 
ATOM     12  N   UNL     1      -2.561   4.175  26.116  0.00  0.00    -0.082 NA
ATOM     13  O   UNL     1      -3.324   4.362  25.862  0.00  0.00    -0.358 OA
ATOM     14  C   UNL     1      -3.578   3.762  25.356  0.00  0.00    +0.154 A 
ATOM     22  C   UNL     1      -2.972   3.205  25.296  0.00  0.00    +0.054 A 
BRANCH  14  15
ATOM     15  C   UNL     1      -4.309   3.726  24.975  0.00  0.00    +0.067 C 
BRANCH  15  16
ATOM     16  C   UNL     1      -4.815   3.089  25.115  0.00  0.00    +0.008 C 
ATOM     17  C   UNL     1      -4.827   2.450  24.594  0.00  0.00    +0.000 C 
ATOM     18  C   UNL     1      -5.333   1.813  24.734  0.00  0.00    +0.000 C 
ATOM     19  C   UNL     1      -5.827   1.816  25.395  0.00  0.00    +0.000 C 
ATOM     20  C   UNL     1      -5.814   2.455  25.916  0.00  0.00    +0.000 C 
ATOM     21  C   UNL     1      -5.308   3.092  25.776  0.00  0.00    +0.000 C 
ENDBRANCH  15  16
ENDBRANCH  14  15
ENDBRANCH  10  11
ENDBRANCH   9  10
TORSDOF 8
ENDMDL
MODEL 2
REMARK VINA RESULT:     -13.4      1.411      3.755
REMARK  Name = 
REMARK  8 active torsions:
REMARK  status: ('A' for Active; 'I' for Inactive)
REMARK    1  A    between atoms: C_2  and  C_3
REMARK    2  A    between atoms: C_3  and  C_4
REMARK    3  A    between atoms: C_9  and  C_10
REMARK    4  A    between atoms: C_10  and  C_11
REMARK    5  A    between atoms: C_14  and  C_15
REMARK    6  A    between atoms: C_15  and  C_16
REMARK    7  A    between atoms: C_26  and  C_27
REMARK    8  A    between atoms: C_27  and  C_28
REMARK                            x       y       z     vdW  Elec       q    Type
REMARK                         _______ _______ _______ _____ _____    ______ ____
ROOT
ATOM      4  C   UNL     1      -4.938   2.473  25.051  0.00  0.00    +0.012 C 
ATOM      5  C   UNL     1      -5.603   2.305  25.510  0.00  0.00    +0.019 C 
ATOM      6  C   UNL     1      -5.982   2.910  25.924  0.00  0.00    +0.089 C 
ATOM      7  N   UNL     1      -5.696   3.681  25.880  0.00  0.00    -0.218 NA
ATOM      8  C   UNL     1      -5.032   3.850  25.421  0.00  0.00    +0.089 C 
ATOM      9  C   UNL     1      -4.652   3.245  25.007  0.00  0.00    +0.024 C 
ENDROOT
BRANCH   4   3
ATOM      3  C   UNL     1      -4.559   1.868  24.637  0.00  0.00    +0.085 C 
BRANCH   3   2
ATOM      1  O   UNL     1      -5.563   0.915  24.992  0.00  0.00    -0.275 OA
ATOM      2  C   UNL     1      -4.795   1.084  24.746  0.00  0.00    +0.226 C 
ATOM     23  N   UNL     1      -4.261   0.471  24.609  0.00  0.00    -0.280 N 
ATOM     24  C   UNL     1      -4.496  -0.313  24.718  0.00  0.00    +0.093 C 
ATOM     25  C   UNL     1      -3.962  -0.926  24.580  0.00  0.00    +0.022 C 
ATOM     26  C   UNL     1      -3.193  -0.756  24.334  0.00  0.00    +0.008 C 
ATOM     34  C   UNL     1      -2.958   0.026  24.225  0.00  0.00    +0.022 C 
ATOM     35  C   UNL     1      -3.492   0.641  24.362  0.00  0.00    +0.093 C 
BRANCH  26  27
ATOM     27  C   UNL     1      -2.659  -1.370  24.197  0.00  0.00    +0.026 C 
BRANCH  27  28
ATOM     28  C   UNL     1      -1.936  -1.384  24.594  0.00  0.00    -0.022 A 
ATOM     29  C   UNL     1      -1.917  -1.491  25.412  0.00  0.00    -0.004 A 
ATOM     30  C   UNL     1      -1.194  -1.506  25.809  0.00  0.00    -0.000 A 
ATOM     31  C   UNL     1      -0.490  -1.413  25.388  0.00  0.00    -0.000 A 
ATOM     32  C   UNL     1      -0.510  -1.306  24.571  0.00  0.00    -0.000 A 
ATOM     33  C   UNL     1      -1.233  -1.291  24.174  0.00  0.00    -0.004 A 
ENDBRANCH  27  28
ENDBRANCH  26  27
ENDBRANCH   3   2
ENDBRANCH   4   3
BRANCH   9  10
ATOM     10  C   UNL     1      -3.988   3.413  24.549  0.00  0.00    +0.051 C 
BRANCH  10  11
ATOM     11  C   UNL     1      -3.313   3.732  24.901  0.00  0.00    +0.100 A 
ATOM     12  N   UNL     1      -3.298   4.224  25.562  0.00  0.00    -0.082 NA
ATOM     13  O   UNL     1      -2.510   4.411  25.724  0.00  0.00    -0.358 OA
ATOM     14  C   UNL     1      -2.038   4.033  25.162  0.00  0.00    +0.154 A 
ATOM     22  C   UNL     1      -2.534   3.613  24.654  0.00  0.00    +0.054 A 
BRANCH  14  15
ATOM     15  C   UNL     1      -1.216   4.068  25.117  0.00  0.00    +0.067 C 
BRANCH  15  16
ATOM     16  C   UNL     1      -0.766   3.389  25.252  0.00  0.00    +0.008 C 
ATOM     17  C   UNL     1      -0.646   3.120  26.022  0.00  0.00    +0.000 C 
ATOM     18  C   UNL     1      -0.196   2.441  26.156  0.00  0.00    +0.000 C 
ATOM     19  C   UNL     1       0.133   2.032  25.520  0.00  0.00    +0.000 C 
ATOM     20  C   UNL     1       0.013   2.302  24.750  0.00  0.00    +0.000 C 
ATOM     21  C   UNL     1      -0.437   2.981  24.615  0.00  0.00    +0.000 C 
ENDBRANCH  15  16
ENDBRANCH  14  15
ENDBRANCH  10  11
ENDBRANCH   9  10
TORSDOF 8
ENDMDL
MODEL 3
REMARK VINA RESULT:     -13.4      1.513      4.399
REMARK  Name = 
REMARK  8 active torsions:
REMARK  status: ('A' for Active; 'I' for Inactive)
REMARK    1  A    between atoms: C_2  and  C_3
REMARK    2  A    between atoms: C_3  and  C_4
REMARK    3  A    between atoms: C_9  and  C_10
REMARK    4  A    between atoms: C_10  and  C_11
REMARK    5  A    between atoms: C_14  and  C_15
REMARK    6  A    between atoms: C_15  and  C_16
REMARK    7  A    between atoms: C_26  and  C_27
REMARK    8  A    between atoms: C_27  and  C_28
REMARK                            x       y       z     vdW  Elec       q    Type
REMARK                         _______ _______ _______ _____ _____    ______ ____
ROOT
ATOM      4  C   UNL     1      -1.864  -1.217  24.989  0.00  0.00    +0.012 C 
ATOM      5  C   UNL     1      -1.385  -1.738  24.564  0.00  0.00    +0.019 C 
ATOM      6  C   UNL     1      -1.699  -2.443  24.275  0.00  0.00    +0.089 C 
ATOM      7  N   UNL     1      -2.491  -2.629  24.411  0.00  0.00    -0.218 NA
ATOM      8  C   UNL     1      -2.970  -2.109  24.836  0.00  0.00    +0.089 C 
ATOM      9  C   UNL     1      -2.655  -1.402  25.125  0.00  0.00    +0.024 C 
ENDROOT
BRANCH   4   3
ATOM      3  C   UNL     1      -1.550  -0.511  25.278  0.00  0.00    +0.085 C 
BRANCH   3   2
ATOM      1  O   UNL     1      -0.602  -0.481  24.209  0.00  0.00    -0.275 OA
ATOM      2  C   UNL     1      -0.970  -0.111  24.847  0.00  0.00    +0.226 C 
ATOM     23  N   UNL     1      -0.758   0.658  25.057  0.00  0.00    -0.280 N 
ATOM     24  C   UNL     1      -0.178   1.057  24.626  0.00  0.00    +0.093 C 
ATOM     25  C   UNL     1       0.034   1.827  24.835  0.00  0.00    +0.022 C 
ATOM     26  C   UNL     1      -0.334   2.197  25.474  0.00  0.00    +0.008 C 
ATOM     34  C   UNL     1      -0.913   1.798  25.904  0.00  0.00    +0.022 C 
ATOM     35  C   UNL     1      -1.126   1.028  25.696  0.00  0.00    +0.093 C 
BRANCH  26  27
ATOM     27  C   UNL     1      -0.122   2.966  25.682  0.00  0.00    +0.026 C 
BRANCH  27  28
ATOM     28  C   UNL     1      -0.597   3.602  25.452  0.00  0.00    -0.022 A 
ATOM     29  C   UNL     1      -0.409   4.031  24.774  0.00  0.00    -0.004 A 
ATOM     30  C   UNL     1      -0.883   4.666  24.544  0.00  0.00    -0.000 A 
ATOM     31  C   UNL     1      -1.545   4.872  24.993  0.00  0.00    -0.000 A 
ATOM     32  C   UNL     1      -1.731   4.441  25.671  0.00  0.00    -0.000 A 
ATOM     33  C   UNL     1      -1.257   3.806  25.901  0.00  0.00    -0.004 A 
ENDBRANCH  27  28
ENDBRANCH  26  27
ENDBRANCH   3   2
ENDBRANCH   4   3
BRANCH   9  10
ATOM     10  C   UNL     1      -3.134  -0.882  25.550  0.00  0.00    +0.051 C 
BRANCH  10  11
ATOM     11  C   UNL     1      -3.781  -0.523  25.184  0.00  0.00    +0.100 A 
ATOM     12  N   UNL     1      -4.108  -0.737  24.458  0.00  0.00    -0.082 NA
ATOM     13  O   UNL     1      -4.743  -0.233  24.305  0.00  0.00    -0.358 OA
ATOM     14  C   UNL     1      -4.808   0.293  24.937  0.00  0.00    +0.154 A 
ATOM     22  C   UNL     1      -4.214   0.114  25.480  0.00  0.00    +0.054 A 
BRANCH  14  15
ATOM     15  C   UNL     1      -5.370   0.893  25.012  0.00  0.00    +0.067 C 
BRANCH  15  16
ATOM     16  C   UNL     1      -5.136   1.684  24.969  0.00  0.00    +0.008 C 
ATOM     17  C   UNL     1      -4.782   1.972  24.283  0.00  0.00    +0.000 C 
ATOM     18  C   UNL     1      -4.549   2.763  24.240  0.00  0.00    +0.000 C 
ATOM     19  C   UNL     1      -4.670   3.264  24.884  0.00  0.00    +0.000 C 
ATOM     20  C   UNL     1      -5.024   2.975  25.570  0.00  0.00    +0.000 C 
ATOM     21  C   UNL     1      -5.257   2.184  25.613  0.00  0.00    +0.000 C 
ENDBRANCH  15  16
ENDBRANCH  14  15
ENDBRANCH  10  11
ENDBRANCH   9  10
TORSDOF 8
ENDMDL
MODEL 4
REMARK VINA RESULT:     -13.4      1.688      4.268
REMARK  Name = 
REMARK  8 active torsions:
REMARK  status: ('A' for Active; 'I' for Inactive)
REMARK    1  A    between atoms: C_2  and  C_3
REMARK    2  A    between atoms: C_3  and  C_4
REMARK    3  A    between atoms: C_9  and  C_10
REMARK    4  A    between atoms: C_10  and  C_11
REMARK    5  A    between atoms: C_14  and  C_15
REMARK    6  A    between atoms: C_15  and  C_16
REMARK    7  A    between atoms: C_26  and  C_27
REMARK    8  A    between atoms: C_27  and  C_28
REMARK                            x       y       z     vdW  Elec       q    Type
REMARK                         _______ _______ _______ _____ _____    ______ ____
ROOT
ATOM      4  C   UNL     1      -1.444  -0.825  24.587  0.00  0.00    +0.012 C 
ATOM      5  C   UNL     1      -1.422  -1.546  24.989  0.00  0.00    +0.019 C 
ATOM      6  C   UNL     1      -0.697  -1.887  25.183  0.00  0.00    +0.089 C 
ATOM      7  N   UNL     1       0.006  -1.509  24.975  0.00  0.00    -0.218 NA
ATOM      8  C   UNL     1      -0.016  -0.790  24.573  0.00  0.00    +0.089 C 
ATOM      9  C   UNL     1      -0.742  -0.447  24.379  0.00  0.00    +0.024 C 
ENDROOT
BRANCH   4   3
ATOM      3  C   UNL     1      -2.170  -0.484  24.393  0.00  0.00    +0.085 C 
BRANCH   3   2
ATOM      1  O   UNL     1      -2.833  -1.243  25.406  0.00  0.00    -0.275 OA
ATOM      2  C   UNL     1      -2.827  -0.612  24.876  0.00  0.00    +0.226 C 
ATOM     23  N   UNL     1      -3.479  -0.108  24.826  0.00  0.00    -0.280 N 
ATOM     24  C   UNL     1      -4.136  -0.236  25.309  0.00  0.00    +0.093 C 
ATOM     25  C   UNL     1      -4.787   0.268  25.260  0.00  0.00    +0.022 C 
ATOM     26  C   UNL     1      -4.782   0.900  24.729  0.00  0.00    +0.008 C 
ATOM     34  C   UNL     1      -4.125   1.027  24.247  0.00  0.00    +0.022 C 
ATOM     35  C   UNL     1      -3.473   0.524  24.296  0.00  0.00    +0.093 C 
BRANCH  26  27
ATOM     27  C   UNL     1      -5.433   1.403  24.680  0.00  0.00    +0.026 C 
BRANCH  27  28
ATOM     28  C   UNL     1      -5.403   2.152  25.027  0.00  0.00    -0.022 A 
ATOM     29  C   UNL     1      -5.680   2.261  25.797  0.00  0.00    -0.004 A 
ATOM     30  C   UNL     1      -5.650   3.009  26.144  0.00  0.00    -0.000 A 
ATOM     31  C   UNL     1      -5.342   3.648  25.721  0.00  0.00    -0.000 A 
ATOM     32  C   UNL     1      -5.065   3.537  24.952  0.00  0.00    -0.000 A 
ATOM     33  C   UNL     1      -5.095   2.789  24.605  0.00  0.00    -0.004 A 
ENDBRANCH  27  28
ENDBRANCH  26  27
ENDBRANCH   3   2
ENDBRANCH   4   3
BRANCH   9  10
ATOM     10  C   UNL     1      -0.763   0.272  23.977  0.00  0.00    +0.051 C 
BRANCH  10  11
ATOM     11  C   UNL     1      -0.340   0.919  24.264  0.00  0.00    +0.100 A 
ATOM     12  N   UNL     1       0.388   1.186  23.983  0.00  0.00    -0.082 NA
ATOM     13  O   UNL     1       0.608   1.845  24.429  0.00  0.00    -0.358 OA
ATOM     14  C   UNL     1       0.016   1.985  24.987  0.00  0.00    +0.154 A 
ATOM     22  C   UNL     1      -0.570   1.413  24.885  0.00  0.00    +0.054 A 
BRANCH  14  15
ATOM     15  C   UNL     1       0.010   2.590  25.547  0.00  0.00    +0.067 C 
BRANCH  15  16
ATOM     16  C   UNL     1      -0.553   3.192  25.498  0.00  0.00    +0.008 C 
ATOM     17  C   UNL     1      -0.425   3.836  25.000  0.00  0.00    +0.000 C 
ATOM     18  C   UNL     1      -0.988   4.438  24.951  0.00  0.00    +0.000 C 
ATOM     19  C   UNL     1      -1.678   4.394  25.401  0.00  0.00    +0.000 C 
ATOM     20  C   UNL     1      -1.805   3.750  25.899  0.00  0.00    +0.000 C 
ATOM     21  C   UNL     1      -1.243   3.148  25.948  0.00  0.00    +0.000 C 
ENDBRANCH  15  16
ENDBRANCH  14  15
ENDBRANCH  10  11
ENDBRANCH   9  10
TORSDOF 8
ENDMDL
MODEL 5
REMARK VINA RESULT:     -13.3      1.400      4.446
REMARK  Name = 
REMARK  8 active torsions:
REMARK  status: ('A' for Active; 'I' for Inactive)
REMARK    1  A    between atoms: C_2  and  C_3
REMARK    2  A    between atoms: C_3  and  C_4
REMARK    3  A    between atoms: C_9  and  C_10
REMARK    4  A    between atoms: C_10  and  C_11
REMARK    5  A    between atoms: C_14  and  C_15
REMARK    6  A    between atoms: C_15  and  C_16
REMARK    7  A    between atoms: C_26  and  C_27
REMARK    8  A    between atoms: C_27  and  C_28
REMARK                            x       y       z     vdW  Elec       q    Type
REMARK                         _______ _______ _______ _____ _____    ______ ____
ROOT
ATOM      4  C   UNL     1       0.021   0.505  24.265  0.00  0.00    +0.012 C 
ATOM      5  C   UNL     1       0.383   0.783  23.577  0.00  0.00    +0.019 C 
ATOM      6  C   UNL     1       0.656   0.249  23.011  0.00  0.00    +0.089 C 
ATOM      7  N   UNL     1       0.567  -0.561  23.131  0.00  0.00    -0.218 NA
ATOM      8  C   UNL     1       0.205  -0.840  23.818  0.00  0.00    +0.089 C 
ATOM      9  C   UNL     1      -0.068  -0.305  24.386  0.00  0.00    +0.024 C 
ENDROOT
BRANCH   4   3
ATOM      3  C   UNL     1      -0.251   1.039  24.832  0.00  0.00    +0.085 C 
BRANCH   3   2
ATOM      1  O   UNL     1       0.558   2.124  24.374  0.00  0.00    -0.275 OA
ATOM      2  C   UNL     1      -0.136   1.849  24.723  0.00  0.00    +0.226 C 
ATOM     23  N   UNL     1      -0.716   2.384  24.965  0.00  0.00    -0.280 N 
ATOM     24  C   UNL     1      -0.601   3.194  24.857  0.00  0.00    +0.093 C 
ATOM     25  C   UNL     1      -1.180   3.729  25.098  0.00  0.00    +0.022 C 
ATOM     26  C   UNL     1      -1.875   3.454  25.448  0.00  0.00    +0.008 C 
ATOM     34  C   UNL     1      -1.990   2.645  25.556  0.00  0.00    +0.022 C 
ATOM     35  C   UNL     1      -1.411   2.109  25.315  0.00  0.00    +0.093 C 
BRANCH  26  27
ATOM     27  C   UNL     1      -2.454   3.989  25.689  0.00  0.00    +0.026 C 
BRANCH  27  28
ATOM     28  C   UNL     1      -3.240   3.880  25.457  0.00  0.00    -0.022 A 
ATOM     29  C   UNL     1      -3.812   3.683  26.018  0.00  0.00    -0.004 A 
ATOM     30  C   UNL     1      -4.596   3.574  25.786  0.00  0.00    -0.000 A 
ATOM     31  C   UNL     1      -4.808   3.662  24.992  0.00  0.00    -0.000 A 
ATOM     32  C   UNL     1      -4.235   3.859  24.433  0.00  0.00    -0.000 A 
ATOM     33  C   UNL     1      -3.451   3.968  24.665  0.00  0.00    -0.004 A 
ENDBRANCH  27  28
ENDBRANCH  26  27
ENDBRANCH   3   2
ENDBRANCH   4   3
BRANCH   9  10
ATOM     10  C   UNL     1      -0.429  -0.584  25.073  0.00  0.00    +0.051 C 
BRANCH  10  11
ATOM     11  C   UNL     1      -1.065  -1.107  25.022  0.00  0.00    +0.100 A 
ATOM     12  N   UNL     1      -1.040  -1.873  24.717  0.00  0.00    -0.082 NA
ATOM     13  O   UNL     1      -1.797  -2.196  24.774  0.00  0.00    -0.358 OA
ATOM     14  C   UNL     1      -2.291  -1.629  25.115  0.00  0.00    +0.154 A 
ATOM     22  C   UNL     1      -1.838  -0.956  25.269  0.00  0.00    +0.054 A 
BRANCH  14  15
ATOM     15  C   UNL     1      -3.095  -1.719  25.275  0.00  0.00    +0.067 C 
BRANCH  15  16
ATOM     16  C   UNL     1      -3.635  -1.159  24.999  0.00  0.00    +0.008 C 
ATOM     17  C   UNL     1      -3.906  -0.565  25.502  0.00  0.00    +0.000 C 
ATOM     18  C   UNL     1      -4.447  -0.005  25.226  0.00  0.00    +0.000 C 
ATOM     19  C   UNL     1      -4.715  -0.041  24.446  0.00  0.00    +0.000 C 
ATOM     20  C   UNL     1      -4.443  -0.635  23.943  0.00  0.00    +0.000 C 
ATOM     21  C   UNL     1      -3.903  -1.195  24.219  0.00  0.00    +0.000 C 
ENDBRANCH  15  16
ENDBRANCH  14  15
ENDBRANCH  10  11
ENDBRANCH   9  10
TORSDOF 8
ENDMDL
MODEL 6
REMARK VINA RESULT:     -13.2      1.037      4.253
REMARK  Name = 
REMARK  8 active torsions:
REMARK  status: ('A' for Active; 'I' for Inactive)
REMARK    1  A    between atoms: C_2  and  C_3
REMARK    2  A    between atoms: C_3  and  C_4
REMARK    3  A    between atoms: C_9  and  C_10
REMARK    4  A    between atoms: C_10  and  C_11
REMARK    5  A    between atoms: C_14  and  C_15
REMARK    6  A    between atoms: C_15  and  C_16
REMARK    7  A    between atoms: C_26  and  C_27
REMARK    8  A    between atoms: C_27  and  C_28
REMARK                            x       y       z     vdW  Elec       q    Type
REMARK                         _______ _______ _______ _____ _____    ______ ____
ROOT
ATOM      4  C   UNL     1      -0.722   2.512  24.813  0.00  0.00    +0.012 C 
ATOM      5  C   UNL     1      -0.461   3.048  25.385  0.00  0.00    +0.019 C 
ATOM      6  C   UNL     1       0.222   2.888  25.817  0.00  0.00    +0.089 C 
ATOM      7  N   UNL     1       0.645   2.194  25.680  0.00  0.00    -0.218 NA
ATOM      8  C   UNL     1       0.384   1.659  25.109  0.00  0.00    +0.089 C 
ATOM      9  C   UNL     1      -0.300   1.818  24.676  0.00  0.00    +0.024 C 
ENDROOT
BRANCH   4   3
ATOM      3  C   UNL     1      -1.406   2.673  24.380  0.00  0.00    +0.085 C 
BRANCH   3   2
ATOM      1  O   UNL     1      -1.545   4.025  24.819  0.00  0.00    -0.275 OA
ATOM      2  C   UNL     1      -1.886   3.311  24.589  0.00  0.00    +0.226 C 
ATOM     23  N   UNL     1      -2.707   3.233  24.568  0.00  0.00    -0.280 N 
ATOM     24  C   UNL     1      -3.187   3.872  24.777  0.00  0.00    +0.093 C 
ATOM     25  C   UNL     1      -4.008   3.794  24.755  0.00  0.00    +0.022 C 
ATOM     26  C   UNL     1      -4.349   3.079  24.525  0.00  0.00    +0.008 C 
ATOM     34  C   UNL     1      -3.869   2.442  24.316  0.00  0.00    +0.022 C 
ATOM     35  C   UNL     1      -3.048   2.518  24.337  0.00  0.00    +0.093 C 
BRANCH  26  27
ATOM     27  C   UNL     1      -5.169   3.002  24.504  0.00  0.00    +0.026 C 
BRANCH  27  28
ATOM     28  C   UNL     1      -5.554   2.522  25.055  0.00  0.00    -0.022 A 
ATOM     29  C   UNL     1      -5.687   2.800  25.821  0.00  0.00    -0.004 A 
ATOM     30  C   UNL     1      -6.071   2.320  26.372  0.00  0.00    -0.000 A 
ATOM     31  C   UNL     1      -6.321   1.563  26.157  0.00  0.00    -0.000 A 
ATOM     32  C   UNL     1      -6.187   1.287  25.392  0.00  0.00    -0.000 A 
ATOM     33  C   UNL     1      -5.803   1.766  24.841  0.00  0.00    -0.004 A 
ENDBRANCH  27  28
ENDBRANCH  26  27
ENDBRANCH   3   2
ENDBRANCH   4   3
BRANCH   9  10
ATOM     10  C   UNL     1      -0.560   1.283  24.105  0.00  0.00    +0.051 C 
BRANCH  10  11
ATOM     11  C   UNL     1      -0.588   0.477  24.277  0.00  0.00    +0.100 A 
ATOM     12  N   UNL     1      -0.106  -0.107  23.949  0.00  0.00    -0.082 NA
ATOM     13  O   UNL     1      -0.323  -0.832  24.277  0.00  0.00    -0.358 OA
ATOM     14  C   UNL     1      -0.940  -0.697  24.809  0.00  0.00    +0.154 A 
ATOM     22  C   UNL     1      -1.104   0.112  24.809  0.00  0.00    +0.054 A 
BRANCH  14  15
ATOM     15  C   UNL     1      -1.325  -1.269  25.260  0.00  0.00    +0.067 C 
BRANCH  15  16
ATOM     16  C   UNL     1      -2.121  -1.438  25.121  0.00  0.00    +0.008 C 
ATOM     17  C   UNL     1      -2.331  -1.999  24.555  0.00  0.00    +0.000 C 
ATOM     18  C   UNL     1      -3.127  -2.168  24.416  0.00  0.00    +0.000 C 
ATOM     19  C   UNL     1      -3.712  -1.774  24.843  0.00  0.00    +0.000 C 
ATOM     20  C   UNL     1      -3.502  -1.212  25.409  0.00  0.00    +0.000 C 
ATOM     21  C   UNL     1      -2.706  -1.044  25.548  0.00  0.00    +0.000 C 
ENDBRANCH  15  16
ENDBRANCH  14  15
ENDBRANCH  10  11
ENDBRANCH   9  10
TORSDOF 8
ENDMDL
