MODEL 1
REMARK VINA RESULT:      -9.8      0.000      0.000
REMARK  Name = 
REMARK  7 active torsions:
REMARK  status: ('A' for Active; 'I' for Inactive)
REMARK    1  A    between atoms: C_2  and  C_3
REMARK    2  A    between atoms: C_3  and  S_4
REMARK    3  A    between atoms: S_4  and  N_7
REMARK    4  A    between atoms: N_7  and  C_8
REMARK    5  A    between atoms: C_8  and  C_9
REMARK    6  A    between atoms: C_16  and  C_17
REMARK    7  A    between atoms: C_19  and  C_24
REMARK                            x       y       z     vdW  Elec       q    Type
REMARK                         _______ _______ _______ _____ _____    ______ ____
ROOT
ATOM      9  C   UNL     1       0.947   0.204  23.237  0.00  0.00    +0.077 C 
ATOM     10  C   UNL     1       0.320   0.617  23.443  0.00  0.00    +0.018 C 
ATOM     11  C   UNL     1      -0.291   0.349  23.901  0.00  0.00    +0.010 C 
ATOM     12  C   UNL     1      -0.918   0.979  24.023  0.00  0.00    +0.018 C 
ATOM     13  C   UNL     1      -0.358   0.733  23.792  0.00  0.00    +0.072 C 
ATOM     14  N   UNL     1       0.320  -0.061  23.704  0.00  0.00    -0.272 NA
ATOM     15  C   UNL     1       0.157  -0.863  24.108  0.00  0.00    +0.078 C 
ATOM     16  C   UNL     1      -0.442  -0.425  24.287  0.00  0.00    +0.056 C 
ENDROOT
BRANCH  16  17
ATOM     17  C   UNL     1      -1.094  -0.634  24.747  0.00  0.00    +0.063 A 
ATOM     18  C   UNL     1      -1.775  -0.930  24.386  0.00  0.00    +0.034 A 
ATOM     19  C   UNL     1      -2.426  -1.139  24.846  0.00  0.00    +0.084 A 
ATOM     20  N   UNL     1      -2.398  -1.054  25.666  0.00  0.00    -0.231 NA
ATOM     21  C   UNL     1      -1.717  -0.758  26.026  0.00  0.00    +0.139 A 
ATOM     22  C   UNL     1      -1.688  -0.672  26.846  0.00  0.00    +0.074 C 
ATOM     23  N   UNL     1      -1.065  -0.549  25.566  0.00  0.00    -0.235 NA
BRANCH  19  24
ATOM     24  C   UNL     1      -3.108  -1.435  24.486  0.00  0.00    +0.024 A 
ATOM     25  C   UNL     1      -3.204  -2.249  24.392  0.00  0.00    +0.036 A 
ATOM     26 BR   UNL     1      -2.619  -2.767  24.657  0.00  0.00    -0.049 Br
ATOM     27  C   UNL     1      -3.884  -2.545  24.033  0.00  0.00    +0.007 A 
ATOM     28  C   UNL     1      -4.470  -2.027  23.767  0.00  0.00    +0.001 A 
ATOM     29  C   UNL     1      -4.373  -1.214  23.862  0.00  0.00    +0.000 A 
ATOM     30  C   UNL     1      -3.692  -0.917  24.221  0.00  0.00    +0.002 A 
ENDBRANCH  19  24
ENDBRANCH  16  17
BRANCH   9   8
ATOM      8  C   UNL     1       1.671   0.107  22.854  0.00  0.00    +0.131 C 
BRANCH   8   7
ATOM      7  N   UNL     1       2.219   0.723  22.845  0.00  0.00    -0.081 NA
BRANCH   7   4
ATOM      4  S   UNL     1       3.016   0.564  22.700  0.00  0.00    +0.057 S 
ATOM      5  O   UNL     1       3.230   1.216  23.158  0.00  0.00    -0.156 OA
ATOM      6  O   UNL     1       2.802  -0.087  22.242  0.00  0.00    -0.156 OA
BRANCH   4   3
ATOM      3  C   UNL     1       3.812   0.405  22.555  0.00  0.00    +0.171 C 
BRANCH   3   2
ATOM      1  C   UNL     1       5.124   0.240  23.095  0.00  0.00    +0.002 C 
ATOM      2  C   UNL     1       4.381   0.597  23.120  0.00  0.00    +0.027 C 
ENDBRANCH   3   2
ENDBRANCH   4   3
ENDBRANCH   7   4
ENDBRANCH   8   7
ENDBRANCH   9   8
TORSDOF 7
ENDMDL
MODEL 2
REMARK VINA RESULT:      -9.5      2.390      3.094
REMARK  Name = 
REMARK  7 active torsions:
REMARK  status: ('A' for Active; 'I' for Inactive)
REMARK    1  A    between atoms: C_2  and  C_3
REMARK    2  A    between atoms: C_3  and  S_4
REMARK    3  A    between atoms: S_4  and  N_7
REMARK    4  A    between atoms: N_7  and  C_8
REMARK    5  A    between atoms: C_8  and  C_9
REMARK    6  A    between atoms: C_16  and  C_17
REMARK    7  A    between atoms: C_19  and  C_24
REMARK                            x       y       z     vdW  Elec       q    Type
REMARK                         _______ _______ _______ _____ _____    ______ ____
ROOT
ATOM      9  C   UNL     1       0.140   0.379  23.681  0.00  0.00    +0.077 C 
ATOM     10  C   UNL     1      -0.218   0.303  24.368  0.00  0.00    +0.018 C 
ATOM     11  C   UNL     1      -1.000   0.457  24.512  0.00  0.00    +0.010 C 
ATOM     12  C   UNL     1      -1.217   0.307  25.369  0.00  0.00    +0.018 C 
ATOM     13  C   UNL     1      -0.819   0.333  24.852  0.00  0.00    +0.072 C 
ATOM     14  N   UNL     1      -0.657   0.533  23.836  0.00  0.00    -0.272 NA
ATOM     15  C   UNL     1      -1.337   0.822  23.301  0.00  0.00    +0.078 C 
ATOM     16  C   UNL     1      -1.650   0.734  23.992  0.00  0.00    +0.056 C 
ENDROOT
BRANCH  16  17
ATOM     17  C   UNL     1      -2.436   0.872  24.205  0.00  0.00    +0.063 A 
ATOM     18  C   UNL     1      -2.683   1.636  24.395  0.00  0.00    +0.034 A 
ATOM     19  C   UNL     1      -3.468   1.773  24.608  0.00  0.00    +0.084 A 
ATOM     20  N   UNL     1      -4.006   1.148  24.631  0.00  0.00    -0.231 NA
ATOM     21  C   UNL     1      -3.758   0.384  24.441  0.00  0.00    +0.139 A 
ATOM     22  C   UNL     1      -4.295  -0.242  24.463  0.00  0.00    +0.074 C 
ATOM     23  N   UNL     1      -2.972   0.247  24.228  0.00  0.00    -0.235 NA
BRANCH  19  24
ATOM     24  C   UNL     1      -3.717   2.537  24.799  0.00  0.00    +0.024 A 
ATOM     25  C   UNL     1      -3.973   3.047  24.203  0.00  0.00    +0.036 A 
ATOM     26 BR   UNL     1      -3.980   2.795  23.418  0.00  0.00    -0.049 Br
ATOM     27  C   UNL     1      -4.221   3.810  24.393  0.00  0.00    +0.007 A 
ATOM     28  C   UNL     1      -4.214   4.063  25.178  0.00  0.00    +0.001 A 
ATOM     29  C   UNL     1      -3.958   3.553  25.773  0.00  0.00    +0.000 A 
ATOM     30  C   UNL     1      -3.709   2.789  25.584  0.00  0.00    +0.002 A 
ENDBRANCH  19  24
ENDBRANCH  16  17
BRANCH   9   8
ATOM      8  C   UNL     1       0.798   0.338  23.186  0.00  0.00    +0.131 C 
BRANCH   8   7
ATOM      7  N   UNL     1       1.557   0.380  23.505  0.00  0.00    -0.081 NA
BRANCH   7   4
ATOM      4  S   UNL     1       2.213   0.419  23.005  0.00  0.00    +0.057 S 
ATOM      5  O   UNL     1       1.986  -0.290  22.651  0.00  0.00    -0.156 OA
ATOM      6  O   UNL     1       2.439   1.129  23.359  0.00  0.00    -0.156 OA
BRANCH   4   3
ATOM      3  C   UNL     1       2.868   0.459  22.506  0.00  0.00    +0.171 C 
BRANCH   3   2
ATOM      1  C   UNL     1       4.282   0.622  22.388  0.00  0.00    +0.002 C 
ATOM      2  C   UNL     1       3.574   0.788  22.777  0.00  0.00    +0.027 C 
ENDBRANCH   3   2
ENDBRANCH   4   3
ENDBRANCH   7   4
ENDBRANCH   8   7
ENDBRANCH   9   8
TORSDOF 7
ENDMDL
MODEL 3
REMARK VINA RESULT:      -8.9      2.575      3.546
REMARK  Name = 
REMARK  7 active torsions:
REMARK  status: ('A' for Active; 'I' for Inactive)
REMARK    1  A    between atoms: C_2  and  C_3
REMARK    2  A    between atoms: C_3  and  S_4
REMARK    3  A    between atoms: S_4  and  N_7
REMARK    4  A    between atoms: N_7  and  C_8
REMARK    5  A    between atoms: C_8  and  C_9
REMARK    6  A    between atoms: C_16  and  C_17
REMARK    7  A    between atoms: C_19  and  C_24
REMARK                            x       y       z     vdW  Elec       q    Type
REMARK                         _______ _______ _______ _____ _____    ______ ____
ROOT
ATOM      9  C   UNL     1      -0.414   1.949  24.632  0.00  0.00    +0.077 C 
ATOM     10  C   UNL     1      -0.279   1.372  24.128  0.00  0.00    +0.018 C 
ATOM     11  C   UNL     1      -0.454   0.591  24.248  0.00  0.00    +0.010 C 
ATOM     12  C   UNL     1      -0.220   0.084  23.546  0.00  0.00    +0.018 C 
ATOM     13  C   UNL     1      -0.285   0.640  23.884  0.00  0.00    +0.072 C 
ATOM     14  N   UNL     1      -0.589   1.151  24.747  0.00  0.00    -0.272 NA
ATOM     15  C   UNL     1      -0.969   0.704  25.447  0.00  0.00    +0.078 C 
ATOM     16  C   UNL     1      -0.820   0.167  24.924  0.00  0.00    +0.056 C 
ENDROOT
BRANCH  16  17
ATOM     17  C   UNL     1      -0.972  -0.642  24.984  0.00  0.00    +0.063 A 
ATOM     18  C   UNL     1      -1.717  -0.937  24.787  0.00  0.00    +0.034 A 
ATOM     19  C   UNL     1      -1.868  -1.745  24.846  0.00  0.00    +0.084 A 
ATOM     20  N   UNL     1      -1.275  -2.259  25.102  0.00  0.00    -0.231 NA
ATOM     21  C   UNL     1      -0.531  -1.964  25.298  0.00  0.00    +0.139 A 
ATOM     22  C   UNL     1       0.063  -2.477  25.553  0.00  0.00    +0.074 C 
ATOM     23  N   UNL     1      -0.379  -1.154  25.239  0.00  0.00    -0.235 NA
BRANCH  19  24
ATOM     24  C   UNL     1      -2.613  -2.041  24.650  0.00  0.00    +0.024 A 
ATOM     25  C   UNL     1      -3.246  -1.940  25.170  0.00  0.00    +0.036 A 
ATOM     26 BR   UNL     1      -3.135  -1.544  25.884  0.00  0.00    -0.049 Br
ATOM     27  C   UNL     1      -3.991  -2.236  24.974  0.00  0.00    +0.007 A 
ATOM     28  C   UNL     1      -4.103  -2.633  24.259  0.00  0.00    +0.001 A 
ATOM     29  C   UNL     1      -3.470  -2.734  23.741  0.00  0.00    +0.000 A 
ATOM     30  C   UNL     1      -2.725  -2.438  23.936  0.00  0.00    +0.002 A 
ENDBRANCH  19  24
ENDBRANCH  16  17
BRANCH   9   8
ATOM      8  C   UNL     1      -0.396   2.740  24.867  0.00  0.00    +0.131 C 
BRANCH   8   7
ATOM      7  N   UNL     1      -0.875   3.294  24.489  0.00  0.00    -0.081 NA
BRANCH   7   4
ATOM      4  S   UNL     1      -0.922   4.065  24.779  0.00  0.00    +0.057 S 
ATOM      5  O   UNL     1      -0.222   4.256  24.386  0.00  0.00    -0.156 OA
ATOM      6  O   UNL     1      -1.621   3.874  25.171  0.00  0.00    -0.156 OA
BRANCH   4   3
ATOM      3  C   UNL     1      -0.969   4.836  25.069  0.00  0.00    +0.171 C 
BRANCH   3   2
ATOM      1  C   UNL     1      -1.713   6.055  25.085  0.00  0.00    +0.002 C 
ATOM      2  C   UNL     1      -1.693   5.230  25.076  0.00  0.00    +0.027 C 
ENDBRANCH   3   2
ENDBRANCH   4   3
ENDBRANCH   7   4
ENDBRANCH   8   7
ENDBRANCH   9   8
TORSDOF 7
ENDMDL
MODEL 4
REMARK VINA RESULT:      -8.6      3.395      5.239
REMARK  Name = 
REMARK  7 active torsions:
REMARK  status: ('A' for Active; 'I' for Inactive)
REMARK    1  A    between atoms: C_2  and  C_3
REMARK    2  A    between atoms: C_3  and  S_4
REMARK    3  A    between atoms: S_4  and  N_7
REMARK    4  A    between atoms: N_7  and  C_8
REMARK    5  A    between atoms: C_8  and  C_9
REMARK    6  A    between atoms: C_16  and  C_17
REMARK    7  A    between atoms: C_19  and  C_24
REMARK                            x       y       z     vdW  Elec       q    Type
REMARK                         _______ _______ _______ _____ _____    ______ ____
ROOT
ATOM      9  C   UNL     1      -1.207  -0.536  24.804  0.00  0.00    +0.077 C 
ATOM     10  C   UNL     1      -0.916  -0.019  25.307  0.00  0.00    +0.018 C 
ATOM     11  C   UNL     1      -1.009   0.785  25.264  0.00  0.00    +0.010 C 
ATOM     12  C   UNL     1      -0.595   1.205  25.939  0.00  0.00    +0.018 C 
ATOM     13  C   UNL     1      -0.787   0.689  25.588  0.00  0.00    +0.072 C 
ATOM     14  N   UNL     1      -1.297   0.284  24.767  0.00  0.00    -0.272 NA
ATOM     15  C   UNL     1      -1.732   0.824  24.174  0.00  0.00    +0.078 C 
ATOM     16  C   UNL     1      -1.429   1.298  24.689  0.00  0.00    +0.056 C 
ENDROOT
BRANCH  16  17
ATOM     17  C   UNL     1      -1.485   2.121  24.704  0.00  0.00    +0.063 A 
ATOM     18  C   UNL     1      -2.151   2.483  25.032  0.00  0.00    +0.034 A 
ATOM     19  C   UNL     1      -2.206   3.306  25.046  0.00  0.00    +0.084 A 
ATOM     20  N   UNL     1      -1.598   3.767  24.733  0.00  0.00    -0.231 NA
ATOM     21  C   UNL     1      -0.933   3.405  24.405  0.00  0.00    +0.139 A 
ATOM     22  C   UNL     1      -0.324   3.865  24.092  0.00  0.00    +0.074 C 
ATOM     23  N   UNL     1      -0.877   2.581  24.391  0.00  0.00    -0.235 NA
BRANCH  19  24
ATOM     24  C   UNL     1      -2.871   3.669  25.374  0.00  0.00    +0.024 A 
ATOM     25  C   UNL     1      -3.561   3.745  24.927  0.00  0.00    +0.036 A 
ATOM     26 BR   UNL     1      -3.586   3.459  24.154  0.00  0.00    -0.049 Br
ATOM     27  C   UNL     1      -4.225   4.108  25.254  0.00  0.00    +0.007 A 
ATOM     28  C   UNL     1      -4.200   4.395  26.028  0.00  0.00    +0.001 A 
ATOM     29  C   UNL     1      -3.511   4.318  26.473  0.00  0.00    +0.000 A 
ATOM     30  C   UNL     1      -2.846   3.956  26.147  0.00  0.00    +0.002 A 
ENDBRANCH  19  24
ENDBRANCH  16  17
BRANCH   9   8
ATOM      8  C   UNL     1      -1.330  -1.303  24.525  0.00  0.00    +0.131 C 
BRANCH   8   7
ATOM      7  N   UNL     1      -1.736  -1.850  24.990  0.00  0.00    -0.081 NA
BRANCH   7   4
ATOM      4  S   UNL     1      -2.270  -2.373  24.640  0.00  0.00    +0.057 S 
ATOM      5  O   UNL     1      -1.702  -2.578  24.078  0.00  0.00    -0.156 OA
ATOM      6  O   UNL     1      -2.838  -2.167  25.202  0.00  0.00    -0.156 OA
BRANCH   4   3
ATOM      3  C   UNL     1      -2.805  -2.895  24.291  0.00  0.00    +0.171 C 
BRANCH   3   2
ATOM      1  C   UNL     1      -4.153  -3.087  23.859  0.00  0.00    +0.002 C 
ATOM      2  C   UNL     1      -3.615  -2.800  24.415  0.00  0.00    +0.027 C 
ENDBRANCH   3   2
ENDBRANCH   4   3
ENDBRANCH   7   4
ENDBRANCH   8   7
ENDBRANCH   9   8
TORSDOF 7
ENDMDL
MODEL 5
REMARK VINA RESULT:      -8.6      4.226      5.952
REMARK  Name = 
REMARK  7 active torsions:
REMARK  status: ('A' for Active; 'I' for Inactive)
REMARK    1  A    between atoms: C_2  and  C_3
REMARK    2  A    between atoms: C_3  and  S_4
REMARK    3  A    between atoms: S_4  and  N_7
REMARK    4  A    between atoms: N_7  and  C_8
REMARK    5  A    between atoms: C_8  and  C_9
REMARK    6  A    between atoms: C_16  and  C_17
REMARK    7  A    between atoms: C_19  and  C_24
REMARK                            x       y       z     vdW  Elec       q    Type
REMARK                         _______ _______ _______ _____ _____    ______ ____
ROOT
ATOM      9  C   UNL     1      -4.325  -0.315  24.443  0.00  0.00    +0.077 C 
ATOM     10  C   UNL     1      -4.627   0.275  24.851  0.00  0.00    +0.018 C 
ATOM     11  C   UNL     1      -4.412   1.053  24.786  0.00  0.00    +0.010 C 
ATOM     12  C   UNL     1      -4.880   1.576  25.344  0.00  0.00    +0.018 C 
ATOM     13  C   UNL     1      -4.703   1.013  25.064  0.00  0.00    +0.072 C 
ATOM     14  N   UNL     1      -4.111   0.480  24.382  0.00  0.00    -0.272 NA
ATOM     15  C   UNL     1      -3.497   0.909  23.860  0.00  0.00    +0.078 C 
ATOM     16  C   UNL     1      -3.820   1.459  24.281  0.00  0.00    +0.056 C 
ENDROOT
BRANCH  16  17
ATOM     17  C   UNL     1      -3.648   2.266  24.264  0.00  0.00    +0.063 A 
ATOM     18  C   UNL     1      -2.919   2.538  24.539  0.00  0.00    +0.034 A 
ATOM     19  C   UNL     1      -2.747   3.344  24.522  0.00  0.00    +0.084 A 
ATOM     20  N   UNL     1      -3.304   3.879  24.230  0.00  0.00    -0.231 NA
ATOM     21  C   UNL     1      -4.032   3.607  23.956  0.00  0.00    +0.139 A 
ATOM     22  C   UNL     1      -4.590   4.141  23.664  0.00  0.00    +0.074 C 
ATOM     23  N   UNL     1      -4.204   2.800  23.973  0.00  0.00    -0.235 NA
BRANCH  19  24
ATOM     24  C   UNL     1      -2.018   3.617  24.796  0.00  0.00    +0.024 A 
ATOM     25  C   UNL     1      -1.968   3.989  25.532  0.00  0.00    +0.036 A 
ATOM     26 BR   UNL     1      -2.645   4.087  25.992  0.00  0.00    -0.049 Br
ATOM     27  C   UNL     1      -1.240   4.261  25.806  0.00  0.00    +0.007 A 
ATOM     28  C   UNL     1      -0.562   4.163  25.346  0.00  0.00    +0.001 A 
ATOM     29  C   UNL     1      -0.613   3.792  24.612  0.00  0.00    +0.000 A 
ATOM     30  C   UNL     1      -1.341   3.519  24.336  0.00  0.00    +0.002 A 
ENDBRANCH  19  24
ENDBRANCH  16  17
BRANCH   9   8
ATOM      8  C   UNL     1      -4.265  -1.110  24.234  0.00  0.00    +0.131 C 
BRANCH   8   7
ATOM      7  N   UNL     1      -4.062  -1.672  24.803  0.00  0.00    -0.081 NA
BRANCH   7   4
ATOM      4  S   UNL     1      -3.541  -2.283  24.611  0.00  0.00    +0.057 S 
ATOM      5  O   UNL     1      -3.948  -2.409  23.905  0.00  0.00    -0.156 OA
ATOM      6  O   UNL     1      -3.134  -2.156  25.317  0.00  0.00    -0.156 OA
BRANCH   4   3
ATOM      3  C   UNL     1      -3.021  -2.893  24.420  0.00  0.00    +0.171 C 
BRANCH   3   2
ATOM      1  C   UNL     1      -1.655  -3.148  24.085  0.00  0.00    +0.002 C 
ATOM      2  C   UNL     1      -2.217  -2.820  24.592  0.00  0.00    +0.027 C 
ENDBRANCH   3   2
ENDBRANCH   4   3
ENDBRANCH   7   4
ENDBRANCH   8   7
ENDBRANCH   9   8
TORSDOF 7
ENDMDL
