MODEL 1
REMARK VINA RESULT:     -14.5      0.000      0.000
REMARK  Name = 
REMARK  3 active torsions:
REMARK  status: ('A' for Active; 'I' for Inactive)
REMARK    1  A    between atoms: C_5  and  C_6
REMARK    2  A    between atoms: N_16  and  C_17
REMARK    3  A    between atoms: C_17  and  C_18
REMARK                            x       y       z     vdW  Elec       q    Type
REMARK                         _______ _______ _______ _____ _____    ______ ____
ROOT
ATOM      1  O   UNL     1      -1.404   1.311  25.480  0.00  0.00    -0.267 OA
ATOM      2  C   UNL     1      -1.740   0.569  25.349  0.00  0.00    +0.261 A 
ATOM      3  C   UNL     1      -1.402  -0.102  25.689  0.00  0.00    +0.061 A 
ATOM      4  C   UNL     1      -1.737  -0.845  25.559  0.00  0.00    +0.006 A 
ATOM      5  C   UNL     1      -2.411  -0.916  25.088  0.00  0.00    +0.018 A 
ATOM     11  C   UNL     1      -2.749  -0.245  24.748  0.00  0.00    +0.041 A 
ATOM     12  C   UNL     1      -3.451   0.006  24.210  0.00  0.00    +0.055 C 
ATOM     13  C   UNL     1      -3.997  -0.259  23.858  0.00  0.00    +0.011 C 
ATOM     14  C   UNL     1      -3.663   0.472  23.990  0.00  0.00    +0.039 C 
ATOM     15  C   UNL     1      -3.412   1.427  24.029  0.00  0.00    +0.074 C 
ATOM     16  N   UNL     1      -2.737   1.374  24.519  0.00  0.00    -0.266 NA
ATOM     27  C   UNL     1      -3.221   0.933  24.238  0.00  0.00    +0.078 C 
ATOM     28  C   UNL     1      -2.928   0.219  24.552  0.00  0.00    +0.110 C 
ATOM     29  N   UNL     1      -2.414   0.497  24.879  0.00  0.00    -0.299 N 
ENDROOT
BRANCH   5   6
ATOM      6  C   UNL     1      -2.747  -1.659  24.957  0.00  0.00    +0.031 A 
ATOM      7  C   UNL     1      -3.395  -1.976  25.357  0.00  0.00    +0.007 A 
ATOM      8  C   UNL     1      -3.541  -2.726  25.051  0.00  0.00    +0.007 A 
ATOM      9  C   UNL     1      -2.984  -2.874  24.461  0.00  0.00    +0.035 A 
ATOM     10  S   UNL     1      -2.493  -2.214  24.403  0.00  0.00    -0.086 S 
ENDBRANCH   5   6
BRANCH  16  17
ATOM     17  C   UNL     1      -2.080   1.620  24.953  0.00  0.00    +0.138 C 
BRANCH  17  18
ATOM     18  C   UNL     1      -1.887   2.421  24.990  0.00  0.00    +0.139 A 
ATOM     19  C   UNL     1      -1.209   2.773  24.677  0.00  0.00    +0.037 A 
ATOM     20  C   UNL     1      -1.241   3.581  24.840  0.00  0.00    +0.037 A 
ATOM     21  C   UNL     1      -1.939   3.729  25.254  0.00  0.00    +0.145 A 
ATOM     22  O   UNL     1      -2.339   3.013  25.347  0.00  0.00    -0.456 OA
ATOM     23  C   UNL     1      -2.121   4.497  25.494  0.00  0.00    +0.037 A 
ATOM     24  C   UNL     1      -1.605   5.116  25.319  0.00  0.00    +0.003 A 
ATOM     25  C   UNL     1      -0.908   4.968  24.905  0.00  0.00    +0.000 A 
ATOM     26  C   UNL     1      -0.725   4.201  24.665  0.00  0.00    +0.003 A 
ENDBRANCH  17  18
ENDBRANCH  16  17
TORSDOF 3
ENDMDL
MODEL 2
REMARK VINA RESULT:     -14.1      1.587      4.725
REMARK  Name = 
REMARK  3 active torsions:
REMARK  status: ('A' for Active; 'I' for Inactive)
REMARK    1  A    between atoms: C_5  and  C_6
REMARK    2  A    between atoms: N_16  and  C_17
REMARK    3  A    between atoms: C_17  and  C_18
REMARK                            x       y       z     vdW  Elec       q    Type
REMARK                         _______ _______ _______ _____ _____    ______ ____
ROOT
ATOM      1  O   UNL     1      -1.976   0.528  25.153  0.00  0.00    -0.267 OA
ATOM      2  C   UNL     1      -1.883   1.347  25.155  0.00  0.00    +0.261 A 
ATOM      3  C   UNL     1      -1.171   1.681  25.405  0.00  0.00    +0.061 A 
ATOM      4  C   UNL     1      -1.078   2.501  25.407  0.00  0.00    +0.006 A 
ATOM      5  C   UNL     1      -1.696   2.987  25.158  0.00  0.00    +0.018 A 
ATOM     11  C   UNL     1      -2.408   2.653  24.907  0.00  0.00    +0.041 A 
ATOM     12  C   UNL     1      -3.236   2.894  24.590  0.00  0.00    +0.055 C 
ATOM     13  C   UNL     1      -3.620   3.457  24.424  0.00  0.00    +0.011 C 
ATOM     14  C   UNL     1      -3.708   2.648  24.424  0.00  0.00    +0.039 C 
ATOM     15  C   UNL     1      -4.004   1.708  24.352  0.00  0.00    +0.074 C 
ATOM     16  N   UNL     1      -3.315   1.323  24.624  0.00  0.00    -0.266 NA
ATOM     27  C   UNL     1      -3.537   1.990  24.514  0.00  0.00    +0.078 C 
ATOM     28  C   UNL     1      -2.846   2.387  24.755  0.00  0.00    +0.110 C 
ATOM     29  N   UNL     1      -2.501   1.833  24.905  0.00  0.00    -0.299 N 
ENDROOT
BRANCH   5   6
ATOM      6  C   UNL     1      -1.603   3.807  25.159  0.00  0.00    +0.031 A 
ATOM      7  C   UNL     1      -1.963   4.335  25.681  0.00  0.00    +0.007 A 
ATOM      8  C   UNL     1      -1.716   5.097  25.483  0.00  0.00    +0.007 A 
ATOM      9  C   UNL     1      -1.203   5.039  24.839  0.00  0.00    +0.035 A 
ATOM     10  S   UNL     1      -1.134   4.242  24.639  0.00  0.00    -0.086 S 
ENDBRANCH   5   6
BRANCH  16  17
ATOM     17  C   UNL     1      -2.812   0.703  24.836  0.00  0.00    +0.138 C 
BRANCH  17  18
ATOM     18  C   UNL     1      -3.061  -0.078  24.750  0.00  0.00    +0.139 A 
ATOM     19  C   UNL     1      -3.028  -0.665  25.331  0.00  0.00    +0.037 A 
ATOM     20  C   UNL     1      -3.333  -1.359  25.009  0.00  0.00    +0.037 A 
ATOM     21  C   UNL     1      -3.555  -1.203  24.230  0.00  0.00    +0.145 A 
ATOM     22  O   UNL     1      -3.387  -0.411  24.070  0.00  0.00    -0.456 OA
ATOM     23  C   UNL     1      -3.882  -1.803  23.766  0.00  0.00    +0.037 A 
ATOM     24  C   UNL     1      -3.987  -2.557  24.082  0.00  0.00    +0.003 A 
ATOM     25  C   UNL     1      -3.765  -2.713  24.861  0.00  0.00    +0.000 A 
ATOM     26  C   UNL     1      -3.438  -2.115  25.324  0.00  0.00    +0.003 A 
ENDBRANCH  17  18
ENDBRANCH  16  17
TORSDOF 3
ENDMDL
