MODEL 1
REMARK VINA RESULT:     -12.7      0.000      0.000
REMARK  Name = 
REMARK  7 active torsions:
REMARK  status: ('A' for Active; 'I' for Inactive)
REMARK    1  A    between atoms: O_2  and  C_3
REMARK    2  A    between atoms: C_4  and  O_5
REMARK    3  A    between atoms: C_15  and  C_17
REMARK    4  A    between atoms: C_17  and  C_18
REMARK    5  A    between atoms: C_23  and  C_24
REMARK    6  A    between atoms: C_24  and  C_25
REMARK    7  A    between atoms: C_28  and  C_30
REMARK                            x       y       z     vdW  Elec       q    Type
REMARK                         _______ _______ _______ _____ _____    ______ ____
ROOT
ATOM     18  C   UNL     1      -5.110   2.054  25.251  0.00  0.00    +0.012 C 
ATOM     19  C   UNL     1      -5.663   1.683  25.739  0.00  0.00    +0.019 C 
ATOM     20  C   UNL     1      -6.158   2.134  26.221  0.00  0.00    +0.089 C 
ATOM     21  N   UNL     1      -6.100   2.958  26.214  0.00  0.00    -0.218 NA
ATOM     22  C   UNL     1      -5.548   3.329  25.727  0.00  0.00    +0.089 C 
ATOM     23  C   UNL     1      -5.053   2.877  25.245  0.00  0.00    +0.024 C 
ENDROOT
BRANCH  18  17
ATOM     17  C   UNL     1      -4.616   1.602  24.770  0.00  0.00    +0.085 C 
BRANCH  17  15
ATOM      3  C   UNL     1      -2.408  -2.155  24.518  0.00  0.00    +0.172 A 
ATOM      4  C   UNL     1      -3.183  -2.423  24.424  0.00  0.00    +0.172 A 
ATOM      7  C   UNL     1      -3.809  -1.886  24.435  0.00  0.00    +0.037 A 
ATOM      8  C   UNL     1      -3.660  -1.082  24.539  0.00  0.00    -0.003 A 
ATOM      9  C   UNL     1      -4.286  -0.544  24.550  0.00  0.00    +0.120 C 
ATOM     10  N   UNL     1      -4.138   0.260  24.655  0.00  0.00    -0.275 N 
ATOM     11  C   UNL     1      -3.362   0.528  24.749  0.00  0.00    +0.098 C 
ATOM     12  C   UNL     1      -2.737  -0.009  24.738  0.00  0.00    +0.048 C 
ATOM     13  C   UNL     1      -2.885  -0.814  24.633  0.00  0.00    -0.020 A 
ATOM     14  C   UNL     1      -2.259  -1.351  24.623  0.00  0.00    +0.036 A 
ATOM     15  C   UNL     1      -4.764   0.798  24.666  0.00  0.00    +0.226 C 
ATOM     16  O   UNL     1      -5.539   0.530  24.572  0.00  0.00    -0.275 OA
BRANCH   3   2
ATOM      1  C   UNL     1      -1.027  -2.451  24.737  0.00  0.00    +0.253 C 
ATOM      2  O   UNL     1      -1.782  -2.693  24.507  0.00  0.00    -0.468 OA
ENDBRANCH   3   2
BRANCH   4   5
ATOM      5  O   UNL     1      -3.331  -3.228  24.320  0.00  0.00    -0.468 OA
ATOM      6  C   UNL     1      -4.055  -3.477  24.013  0.00  0.00    +0.253 C 
ENDBRANCH   4   5
ENDBRANCH  17  15
ENDBRANCH  18  17
BRANCH  23  24
ATOM     24  C   UNL     1      -4.500   3.248  24.757  0.00  0.00    +0.051 C 
BRANCH  24  25
ATOM     25  C   UNL     1      -3.866   3.657  25.090  0.00  0.00    +0.101 A 
ATOM     26  N   UNL     1      -3.868   4.046  25.818  0.00  0.00    -0.081 NA
ATOM     27  O   UNL     1      -3.121   4.378  25.931  0.00  0.00    -0.354 OA
ATOM     28  C   UNL     1      -2.658   4.195  25.273  0.00  0.00    +0.177 A 
ATOM     29  C   UNL     1      -3.119   3.749  24.754  0.00  0.00    +0.058 A 
BRANCH  28  30
ATOM     30  C   UNL     1      -1.872   4.417  25.155  0.00  0.00    +0.037 A 
ATOM     31  C   UNL     1      -1.279   3.843  25.141  0.00  0.00    +0.003 A 
ATOM     32  C   UNL     1      -0.493   4.065  25.022  0.00  0.00    +0.000 A 
ATOM     33  C   UNL     1      -0.300   4.860  24.918  0.00  0.00    +0.000 A 
ATOM     34  C   UNL     1      -0.893   5.434  24.932  0.00  0.00    +0.000 A 
ATOM     35  C   UNL     1      -1.679   5.212  25.051  0.00  0.00    +0.003 A 
ENDBRANCH  28  30
ENDBRANCH  24  25
ENDBRANCH  23  24
TORSDOF 7
ENDMDL
MODEL 2
REMARK VINA RESULT:     -11.5      1.929      4.104
REMARK  Name = 
REMARK  7 active torsions:
REMARK  status: ('A' for Active; 'I' for Inactive)
REMARK    1  A    between atoms: O_2  and  C_3
REMARK    2  A    between atoms: C_4  and  O_5
REMARK    3  A    between atoms: C_15  and  C_17
REMARK    4  A    between atoms: C_17  and  C_18
REMARK    5  A    between atoms: C_23  and  C_24
REMARK    6  A    between atoms: C_24  and  C_25
REMARK    7  A    between atoms: C_28  and  C_30
REMARK                            x       y       z     vdW  Elec       q    Type
REMARK                         _______ _______ _______ _____ _____    ______ ____
ROOT
ATOM     18  C   UNL     1      -1.285   4.116  25.325  0.00  0.00    +0.012 C 
ATOM     19  C   UNL     1      -0.800   4.604  24.870  0.00  0.00    +0.019 C 
ATOM     20  C   UNL     1      -1.010   5.391  24.741  0.00  0.00    +0.089 C 
ATOM     21  N   UNL     1      -1.706   5.691  25.068  0.00  0.00    -0.218 NA
ATOM     22  C   UNL     1      -2.191   5.203  25.524  0.00  0.00    +0.089 C 
ATOM     23  C   UNL     1      -1.980   4.416  25.652  0.00  0.00    +0.024 C 
ENDROOT
BRANCH  18  17
ATOM     17  C   UNL     1      -1.074   3.329  25.453  0.00  0.00    +0.085 C 
BRANCH  17  15
ATOM      3  C   UNL     1      -0.214  -0.789  24.288  0.00  0.00    +0.172 A 
ATOM      4  C   UNL     1       0.224  -0.372  23.725  0.00  0.00    +0.172 A 
ATOM      7  C   UNL     1       0.227   0.452  23.732  0.00  0.00    +0.037 A 
ATOM      8  C   UNL     1      -0.208   0.861  24.301  0.00  0.00    -0.003 A 
ATOM      9  C   UNL     1      -0.206   1.686  24.309  0.00  0.00    +0.120 C 
ATOM     10  N   UNL     1      -0.641   2.095  24.877  0.00  0.00    -0.275 N 
ATOM     11  C   UNL     1      -1.079   1.679  25.440  0.00  0.00    +0.098 C 
ATOM     12  C   UNL     1      -1.081   0.854  25.433  0.00  0.00    +0.048 C 
ATOM     13  C   UNL     1      -0.646   0.445  24.864  0.00  0.00    -0.020 A 
ATOM     14  C   UNL     1      -0.649  -0.380  24.857  0.00  0.00    +0.036 A 
ATOM     15  C   UNL     1      -0.639   2.920  24.885  0.00  0.00    +0.226 C 
ATOM     16  O   UNL     1      -0.201   3.336  24.323  0.00  0.00    -0.275 OA
BRANCH   3   2
ATOM      1  C   UNL     1      -0.766  -2.028  24.734  0.00  0.00    +0.253 C 
ATOM      2  O   UNL     1      -0.216  -1.614  24.281  0.00  0.00    -0.468 OA
ENDBRANCH   3   2
BRANCH   4   5
ATOM      5  O   UNL     1       0.659  -0.782  23.156  0.00  0.00    -0.468 OA
ATOM      6  C   UNL     1       1.188  -0.375  22.670  0.00  0.00    +0.253 C 
ENDBRANCH   4   5
ENDBRANCH  17  15
ENDBRANCH  18  17
BRANCH  23  24
ATOM     24  C   UNL     1      -2.466   3.928  26.108  0.00  0.00    +0.051 C 
BRANCH  24  25
ATOM     25  C   UNL     1      -3.264   3.847  25.917  0.00  0.00    +0.101 A 
ATOM     26  N   UNL     1      -3.812   4.461  25.854  0.00  0.00    -0.081 NA
ATOM     27  O   UNL     1      -4.541   4.131  25.654  0.00  0.00    -0.354 OA
ATOM     28  C   UNL     1      -4.445   3.314  25.594  0.00  0.00    +0.177 A 
ATOM     29  C   UNL     1      -3.655   3.139  25.757  0.00  0.00    +0.058 A 
BRANCH  28  30
ATOM     30  C   UNL     1      -5.033   2.768  25.405  0.00  0.00    +0.037 A 
ATOM     31  C   UNL     1      -4.912   2.227  24.793  0.00  0.00    +0.003 A 
ATOM     32  C   UNL     1      -5.500   1.680  24.603  0.00  0.00    +0.000 A 
ATOM     33  C   UNL     1      -6.209   1.674  25.025  0.00  0.00    +0.000 A 
ATOM     34  C   UNL     1      -6.330   2.215  25.637  0.00  0.00    +0.000 A 
ATOM     35  C   UNL     1      -5.741   2.761  25.826  0.00  0.00    +0.003 A 
ENDBRANCH  28  30
ENDBRANCH  24  25
ENDBRANCH  23  24
TORSDOF 7
ENDMDL
MODEL 3
REMARK VINA RESULT:     -11.5      2.260      6.636
REMARK  Name = 
REMARK  7 active torsions:
REMARK  status: ('A' for Active; 'I' for Inactive)
REMARK    1  A    between atoms: O_2  and  C_3
REMARK    2  A    between atoms: C_4  and  O_5
REMARK    3  A    between atoms: C_15  and  C_17
REMARK    4  A    between atoms: C_17  and  C_18
REMARK    5  A    between atoms: C_23  and  C_24
REMARK    6  A    between atoms: C_24  and  C_25
REMARK    7  A    between atoms: C_28  and  C_30
REMARK                            x       y       z     vdW  Elec       q    Type
REMARK                         _______ _______ _______ _____ _____    ______ ____
ROOT
ATOM     18  C   UNL     1       0.110   0.291  24.201  0.00  0.00    +0.012 C 
ATOM     19  C   UNL     1       0.542   0.584  23.562  0.00  0.00    +0.019 C 
ATOM     20  C   UNL     1       0.835   0.067  22.990  0.00  0.00    +0.089 C 
ATOM     21  N   UNL     1       0.696  -0.744  23.058  0.00  0.00    -0.218 NA
ATOM     22  C   UNL     1       0.264  -1.037  23.697  0.00  0.00    +0.089 C 
ATOM     23  C   UNL     1      -0.029  -0.519  24.268  0.00  0.00    +0.024 C 
ENDROOT
BRANCH  18  17
ATOM     17  C   UNL     1      -0.183   0.810  24.772  0.00  0.00    +0.085 C 
BRANCH  17  15
ATOM      3  C   UNL     1      -2.343   4.489  25.695  0.00  0.00    +0.172 A 
ATOM      4  C   UNL     1      -1.674   4.791  25.316  0.00  0.00    +0.172 A 
ATOM      7  C   UNL     1      -1.092   4.278  25.037  0.00  0.00    +0.037 A 
ATOM      8  C   UNL     1      -1.177   3.464  25.135  0.00  0.00    -0.003 A 
ATOM      9  C   UNL     1      -0.595   2.951  24.855  0.00  0.00    +0.120 C 
ATOM     10  N   UNL     1      -0.680   2.137  24.954  0.00  0.00    -0.275 N 
ATOM     11  C   UNL     1      -1.349   1.835  25.333  0.00  0.00    +0.098 C 
ATOM     12  C   UNL     1      -1.931   2.347  25.612  0.00  0.00    +0.048 C 
ATOM     13  C   UNL     1      -1.846   3.162  25.514  0.00  0.00    -0.020 A 
ATOM     14  C   UNL     1      -2.428   3.675  25.794  0.00  0.00    +0.036 A 
ATOM     15  C   UNL     1      -0.098   1.624  24.674  0.00  0.00    +0.226 C 
ATOM     16  O   UNL     1       0.570   1.925  24.296  0.00  0.00    -0.275 OA
BRANCH   3   2
ATOM      1  C   UNL     1      -3.598   4.700  26.344  0.00  0.00    +0.253 C 
ATOM      2  O   UNL     1      -2.925   5.002  25.975  0.00  0.00    -0.468 OA
ENDBRANCH   3   2
BRANCH   4   5
ATOM      5  O   UNL     1      -1.589   5.606  25.218  0.00  0.00    -0.468 OA
ATOM      6  C   UNL     1      -0.958   5.904  24.778  0.00  0.00    +0.253 C 
ENDBRANCH   4   5
ENDBRANCH  17  15
ENDBRANCH  18  17
BRANCH  23  24
ATOM     24  C   UNL     1      -0.462  -0.812  24.908  0.00  0.00    +0.051 C 
BRANCH  24  25
ATOM     25  C   UNL     1      -1.038  -1.389  24.785  0.00  0.00    +0.101 A 
ATOM     26  N   UNL     1      -0.925  -2.205  24.836  0.00  0.00    -0.081 NA
ATOM     27  O   UNL     1      -1.646  -2.572  24.673  0.00  0.00    -0.354 OA
ATOM     28  C   UNL     1      -2.204  -1.983  24.521  0.00  0.00    +0.177 A 
ATOM     29  C   UNL     1      -1.827  -1.252  24.591  0.00  0.00    +0.058 A 
BRANCH  28  30
ATOM     30  C   UNL     1      -2.998  -2.103  24.333  0.00  0.00    +0.037 A 
ATOM     31  C   UNL     1      -3.481  -1.458  24.155  0.00  0.00    +0.003 A 
ATOM     32  C   UNL     1      -4.276  -1.577  23.967  0.00  0.00    +0.000 A 
ATOM     33  C   UNL     1      -4.587  -2.341  23.956  0.00  0.00    +0.000 A 
ATOM     34  C   UNL     1      -4.103  -2.986  24.133  0.00  0.00    +0.000 A 
ATOM     35  C   UNL     1      -3.309  -2.866  24.321  0.00  0.00    +0.003 A 
ENDBRANCH  28  30
ENDBRANCH  24  25
ENDBRANCH  23  24
TORSDOF 7
ENDMDL
MODEL 4
REMARK VINA RESULT:     -11.1      3.231      5.636
REMARK  Name = 
REMARK  7 active torsions:
REMARK  status: ('A' for Active; 'I' for Inactive)
REMARK    1  A    between atoms: O_2  and  C_3
REMARK    2  A    between atoms: C_4  and  O_5
REMARK    3  A    between atoms: C_15  and  C_17
REMARK    4  A    between atoms: C_17  and  C_18
REMARK    5  A    between atoms: C_23  and  C_24
REMARK    6  A    between atoms: C_24  and  C_25
REMARK    7  A    between atoms: C_28  and  C_30
REMARK                            x       y       z     vdW  Elec       q    Type
REMARK                         _______ _______ _______ _____ _____    ______ ____
ROOT
ATOM     18  C   UNL     1      -0.977  -0.219  24.490  0.00  0.00    +0.012 C 
ATOM     19  C   UNL     1      -1.258  -0.793  25.011  0.00  0.00    +0.019 C 
ATOM     20  C   UNL     1      -0.810  -1.468  25.164  0.00  0.00    +0.089 C 
ATOM     21  N   UNL     1      -0.078  -1.569  24.794  0.00  0.00    -0.218 NA
ATOM     22  C   UNL     1       0.204  -0.995  24.273  0.00  0.00    +0.089 C 
ATOM     23  C   UNL     1      -0.246  -0.320  24.122  0.00  0.00    +0.024 C 
ENDROOT
BRANCH  18  17
ATOM     17  C   UNL     1      -1.426   0.456  24.339  0.00  0.00    +0.085 C 
BRANCH  17  15
ATOM      3  C   UNL     1      -4.814   3.073  25.191  0.00  0.00    +0.172 A 
ATOM      4  C   UNL     1      -5.203   2.363  25.026  0.00  0.00    +0.172 A 
ATOM      7  C   UNL     1      -4.767   1.692  24.829  0.00  0.00    +0.037 A 
ATOM      8  C   UNL     1      -3.944   1.728  24.797  0.00  0.00    -0.003 A 
ATOM      9  C   UNL     1      -3.508   1.056  24.600  0.00  0.00    +0.120 C 
ATOM     10  N   UNL     1      -2.685   1.092  24.568  0.00  0.00    -0.275 N 
ATOM     11  C   UNL     1      -2.297   1.802  24.733  0.00  0.00    +0.098 C 
ATOM     12  C   UNL     1      -2.732   2.474  24.930  0.00  0.00    +0.048 C 
ATOM     13  C   UNL     1      -3.556   2.438  24.962  0.00  0.00    -0.020 A 
ATOM     14  C   UNL     1      -3.991   3.110  25.159  0.00  0.00    +0.036 A 
ATOM     15  C   UNL     1      -2.249   0.420  24.371  0.00  0.00    +0.226 C 
ATOM     16  O   UNL     1      -2.637  -0.289  24.206  0.00  0.00    -0.275 OA
BRANCH   3   2
ATOM      1  C   UNL     1      -4.861   4.449  25.573  0.00  0.00    +0.253 C 
ATOM      2  O   UNL     1      -5.250   3.745  25.388  0.00  0.00    -0.468 OA
ENDBRANCH   3   2
BRANCH   4   5
ATOM      5  O   UNL     1      -6.026   2.327  25.058  0.00  0.00    -0.468 OA
ATOM      6  C   UNL     1      -6.410   1.601  24.982  0.00  0.00    +0.253 C 
ENDBRANCH   4   5
ENDBRANCH  17  15
ENDBRANCH  18  17
BRANCH  23  24
ATOM     24  C   UNL     1       0.036   0.255  23.600  0.00  0.00    +0.051 C 
BRANCH  24  25
ATOM     25  C   UNL     1       0.743   0.131  23.193  0.00  0.00    +0.101 A 
ATOM     26  N   UNL     1       0.827  -0.274  22.480  0.00  0.00    -0.081 NA
ATOM     27  O   UNL     1       1.625  -0.265  22.274  0.00  0.00    -0.354 OA
ATOM     28  C   UNL     1       2.036   0.145  22.861  0.00  0.00    +0.177 A 
ATOM     29  C   UNL     1       1.489   0.390  23.429  0.00  0.00    +0.058 A 
BRANCH  28  30
ATOM     30  C   UNL     1       2.848   0.287  22.878  0.00  0.00    +0.037 A 
ATOM     31  C   UNL     1       3.367  -0.318  23.093  0.00  0.00    +0.003 A 
ATOM     32  C   UNL     1       4.181  -0.178  23.110  0.00  0.00    +0.000 A 
ATOM     33  C   UNL     1       4.474   0.567  22.912  0.00  0.00    +0.000 A 
ATOM     34  C   UNL     1       3.955   1.172  22.696  0.00  0.00    +0.000 A 
ATOM     35  C   UNL     1       3.142   1.030  22.680  0.00  0.00    +0.003 A 
ENDBRANCH  28  30
ENDBRANCH  24  25
ENDBRANCH  23  24
TORSDOF 7
ENDMDL
MODEL 5
REMARK VINA RESULT:     -10.2      1.387      3.643
REMARK  Name = 
REMARK  7 active torsions:
REMARK  status: ('A' for Active; 'I' for Inactive)
REMARK    1  A    between atoms: O_2  and  C_3
REMARK    2  A    between atoms: C_4  and  O_5
REMARK    3  A    between atoms: C_15  and  C_17
REMARK    4  A    between atoms: C_17  and  C_18
REMARK    5  A    between atoms: C_23  and  C_24
REMARK    6  A    between atoms: C_24  and  C_25
REMARK    7  A    between atoms: C_28  and  C_30
REMARK                            x       y       z     vdW  Elec       q    Type
REMARK                         _______ _______ _______ _____ _____    ______ ____
ROOT
ATOM     18  C   UNL     1      -1.354   3.000  24.688  0.00  0.00    +0.012 C 
ATOM     19  C   UNL     1      -0.697   3.149  25.165  0.00  0.00    +0.019 C 
ATOM     20  C   UNL     1      -0.615   3.880  25.537  0.00  0.00    +0.089 C 
ATOM     21  N   UNL     1      -1.190   4.463  25.434  0.00  0.00    -0.218 NA
ATOM     22  C   UNL     1      -1.847   4.314  24.958  0.00  0.00    +0.089 C 
ATOM     23  C   UNL     1      -1.929   3.582  24.585  0.00  0.00    +0.024 C 
ENDROOT
BRANCH  18  17
ATOM     17  C   UNL     1      -1.436   2.268  24.316  0.00  0.00    +0.085 C 
BRANCH  17  15
ATOM      3  C   UNL     1      -1.772  -2.068  24.692  0.00  0.00    +0.172 A 
ATOM      4  C   UNL     1      -1.002  -1.946  24.967  0.00  0.00    +0.172 A 
ATOM      7  C   UNL     1      -0.691  -1.184  24.995  0.00  0.00    +0.037 A 
ATOM      8  C   UNL     1      -1.147  -0.542  24.750  0.00  0.00    -0.003 A 
ATOM      9  C   UNL     1      -0.835   0.221  24.778  0.00  0.00    +0.120 C 
ATOM     10  N   UNL     1      -1.291   0.863  24.533  0.00  0.00    -0.275 N 
ATOM     11  C   UNL     1      -2.061   0.741  24.258  0.00  0.00    +0.098 C 
ATOM     12  C   UNL     1      -2.372  -0.021  24.229  0.00  0.00    +0.048 C 
ATOM     13  C   UNL     1      -1.916  -0.664  24.475  0.00  0.00    -0.020 A 
ATOM     14  C   UNL     1      -2.228  -1.426  24.446  0.00  0.00    +0.036 A 
ATOM     15  C   UNL     1      -0.980   1.627  24.561  0.00  0.00    +0.226 C 
ATOM     16  O   UNL     1      -0.212   1.748  24.836  0.00  0.00    -0.275 OA
BRANCH   3   2
ATOM      1  C   UNL     1      -2.893  -2.942  24.551  0.00  0.00    +0.253 C 
ATOM      2  O   UNL     1      -2.083  -2.831  24.663  0.00  0.00    -0.468 OA
ENDBRANCH   3   2
BRANCH   4   5
ATOM      5  O   UNL     1      -0.546  -2.589  25.212  0.00  0.00    -0.468 OA
ATOM      6  C   UNL     1       0.218  -2.466  25.499  0.00  0.00    +0.253 C 
ENDBRANCH   4   5
ENDBRANCH  17  15
ENDBRANCH  18  17
BRANCH  23  24
ATOM     24  C   UNL     1      -2.587   3.433  24.108  0.00  0.00    +0.051 C 
BRANCH  24  25
ATOM     25  C   UNL     1      -3.347   3.493  24.424  0.00  0.00    +0.101 A 
ATOM     26  N   UNL     1      -3.759   4.193  24.565  0.00  0.00    -0.081 NA
ATOM     27  O   UNL     1      -4.494   3.996  24.882  0.00  0.00    -0.354 OA
ATOM     28  C   UNL     1      -4.536   3.174  24.938  0.00  0.00    +0.177 A 
ATOM     29  C   UNL     1      -3.826   2.864  24.655  0.00  0.00    +0.058 A 
BRANCH  28  30
ATOM     30  C   UNL     1      -5.175   2.739  25.226  0.00  0.00    +0.037 A 
ATOM     31  C   UNL     1      -5.481   2.902  25.975  0.00  0.00    +0.003 A 
ATOM     32  C   UNL     1      -6.120   2.467  26.264  0.00  0.00    +0.000 A 
ATOM     33  C   UNL     1      -6.453   1.869  25.804  0.00  0.00    +0.000 A 
ATOM     34  C   UNL     1      -6.147   1.705  25.055  0.00  0.00    +0.000 A 
ATOM     35  C   UNL     1      -5.508   2.141  24.767  0.00  0.00    +0.003 A 
ENDBRANCH  28  30
ENDBRANCH  24  25
ENDBRANCH  23  24
TORSDOF 7
ENDMDL
MODEL 6
REMARK VINA RESULT:     -10.2      1.928      5.633
REMARK  Name = 
REMARK  7 active torsions:
REMARK  status: ('A' for Active; 'I' for Inactive)
REMARK    1  A    between atoms: O_2  and  C_3
REMARK    2  A    between atoms: C_4  and  O_5
REMARK    3  A    between atoms: C_15  and  C_17
REMARK    4  A    between atoms: C_17  and  C_18
REMARK    5  A    between atoms: C_23  and  C_24
REMARK    6  A    between atoms: C_24  and  C_25
REMARK    7  A    between atoms: C_28  and  C_30
REMARK                            x       y       z     vdW  Elec       q    Type
REMARK                         _______ _______ _______ _____ _____    ______ ____
ROOT
ATOM     18  C   UNL     1      -0.757   2.541  24.895  0.00  0.00    +0.012 C 
ATOM     19  C   UNL     1      -0.613   3.001  25.565  0.00  0.00    +0.019 C 
ATOM     20  C   UNL     1       0.092   2.911  25.984  0.00  0.00    +0.089 C 
ATOM     21  N   UNL     1       0.653   2.360  25.733  0.00  0.00    -0.218 NA
ATOM     22  C   UNL     1       0.509   1.900  25.063  0.00  0.00    +0.089 C 
ATOM     23  C   UNL     1      -0.196   1.992  24.645  0.00  0.00    +0.024 C 
ENDROOT
BRANCH  18  17
ATOM     17  C   UNL     1      -1.462   2.633  24.476  0.00  0.00    +0.085 C 
BRANCH  17  15
ATOM      3  C   UNL     1      -5.760   2.630  25.238  0.00  0.00    +0.172 A 
ATOM      4  C   UNL     1      -5.561   3.398  25.468  0.00  0.00    +0.172 A 
ATOM      7  C   UNL     1      -4.779   3.653  25.418  0.00  0.00    +0.037 A 
ATOM      8  C   UNL     1      -4.195   3.143  25.138  0.00  0.00    -0.003 A 
ATOM      9  C   UNL     1      -3.412   3.398  25.087  0.00  0.00    +0.120 C 
ATOM     10  N   UNL     1      -2.828   2.888  24.807  0.00  0.00    -0.275 N 
ATOM     11  C   UNL     1      -3.028   2.120  24.577  0.00  0.00    +0.098 C 
ATOM     12  C   UNL     1      -3.810   1.864  24.627  0.00  0.00    +0.048 C 
ATOM     13  C   UNL     1      -4.394   2.375  24.907  0.00  0.00    -0.020 A 
ATOM     14  C   UNL     1      -5.176   2.119  24.957  0.00  0.00    +0.036 A 
ATOM     15  C   UNL     1      -2.045   3.143  24.757  0.00  0.00    +0.226 C 
ATOM     16  O   UNL     1      -1.847   3.910  24.987  0.00  0.00    -0.275 OA
BRANCH   3   2
ATOM      1  C   UNL     1      -6.745   1.614  25.039  0.00  0.00    +0.253 C 
ATOM      2  O   UNL     1      -6.543   2.374  25.288  0.00  0.00    -0.468 OA
ENDBRANCH   3   2
BRANCH   4   5
ATOM      5  O   UNL     1      -6.145   3.908  25.749  0.00  0.00    -0.468 OA
ATOM      6  C   UNL     1      -6.037   4.725  25.700  0.00  0.00    +0.253 C 
ENDBRANCH   4   5
ENDBRANCH  17  15
ENDBRANCH  18  17
BRANCH  23  24
ATOM     24  C   UNL     1      -0.340   1.531  23.974  0.00  0.00    +0.051 C 
BRANCH  24  25
ATOM     25  C   UNL     1      -0.255   0.711  24.011  0.00  0.00    +0.101 A 
ATOM     26  N   UNL     1       0.402   0.281  23.761  0.00  0.00    -0.081 NA
ATOM     27  O   UNL     1       0.251  -0.518  23.900  0.00  0.00    -0.354 OA
ATOM     28  C   UNL     1      -0.500  -0.581  24.236  0.00  0.00    +0.177 A 
ATOM     29  C   UNL     1      -0.812   0.180  24.305  0.00  0.00    +0.058 A 
BRANCH  28  30
ATOM     30  C   UNL     1      -0.874  -1.281  24.464  0.00  0.00    +0.037 A 
ATOM     31  C   UNL     1      -0.520  -1.773  25.024  0.00  0.00    +0.003 A 
ATOM     32  C   UNL     1      -0.893  -2.473  25.253  0.00  0.00    +0.000 A 
ATOM     33  C   UNL     1      -1.620  -2.680  24.921  0.00  0.00    +0.000 A 
ATOM     34  C   UNL     1      -1.973  -2.187  24.361  0.00  0.00    +0.000 A 
ATOM     35  C   UNL     1      -1.600  -1.488  24.133  0.00  0.00    +0.003 A 
ENDBRANCH  28  30
ENDBRANCH  24  25
ENDBRANCH  23  24
TORSDOF 7
ENDMDL
MODEL 7
REMARK VINA RESULT:      -9.7      1.732      4.828
REMARK  Name = 
REMARK  7 active torsions:
REMARK  status: ('A' for Active; 'I' for Inactive)
REMARK    1  A    between atoms: O_2  and  C_3
REMARK    2  A    between atoms: C_4  and  O_5
REMARK    3  A    between atoms: C_15  and  C_17
REMARK    4  A    between atoms: C_17  and  C_18
REMARK    5  A    between atoms: C_23  and  C_24
REMARK    6  A    between atoms: C_24  and  C_25
REMARK    7  A    between atoms: C_28  and  C_30
REMARK                            x       y       z     vdW  Elec       q    Type
REMARK                         _______ _______ _______ _____ _____    ______ ____
ROOT
ATOM     18  C   UNL     1      -4.711   2.744  24.942  0.00  0.00    +0.012 C 
ATOM     19  C   UNL     1      -5.059   3.338  25.397  0.00  0.00    +0.019 C 
ATOM     20  C   UNL     1      -5.820   3.236  25.696  0.00  0.00    +0.089 C 
ATOM     21  N   UNL     1      -6.235   2.539  25.540  0.00  0.00    -0.218 NA
ATOM     22  C   UNL     1      -5.887   1.945  25.085  0.00  0.00    +0.089 C 
ATOM     23  C   UNL     1      -5.125   2.048  24.787  0.00  0.00    +0.024 C 
ENDROOT
BRANCH  18  17
ATOM     17  C   UNL     1      -3.949   2.847  24.643  0.00  0.00    +0.085 C 
BRANCH  17  15
ATOM      3  C   UNL     1       0.362   2.177  24.800  0.00  0.00    +0.172 A 
ATOM      4  C   UNL     1       0.232   2.534  25.534  0.00  0.00    +0.172 A 
ATOM      7  C   UNL     1      -0.529   2.764  25.752  0.00  0.00    +0.037 A 
ATOM      8  C   UNL     1      -1.161   2.638  25.237  0.00  0.00    -0.003 A 
ATOM      9  C   UNL     1      -1.923   2.868  25.455  0.00  0.00    +0.120 C 
ATOM     10  N   UNL     1      -2.555   2.742  24.940  0.00  0.00    -0.275 N 
ATOM     11  C   UNL     1      -2.425   2.386  24.207  0.00  0.00    +0.098 C 
ATOM     12  C   UNL     1      -1.664   2.156  23.989  0.00  0.00    +0.048 C 
ATOM     13  C   UNL     1      -1.031   2.281  24.504  0.00  0.00    -0.020 A 
ATOM     14  C   UNL     1      -0.270   2.052  24.286  0.00  0.00    +0.036 A 
ATOM     15  C   UNL     1      -3.317   2.972  25.158  0.00  0.00    +0.226 C 
ATOM     16  O   UNL     1      -3.446   3.328  25.891  0.00  0.00    -0.275 OA
BRANCH   3   2
ATOM      1  C   UNL     1       1.239   1.494  23.904  0.00  0.00    +0.253 C 
ATOM      2  O   UNL     1       1.124   1.947  24.583  0.00  0.00    -0.468 OA
ENDBRANCH   3   2
BRANCH   4   5
ATOM      5  O   UNL     1       0.865   2.659  26.049  0.00  0.00    -0.468 OA
ATOM      6  C   UNL     1       0.734   2.692  26.863  0.00  0.00    +0.253 C 
ENDBRANCH   4   5
ENDBRANCH  17  15
ENDBRANCH  18  17
BRANCH  23  24
ATOM     24  C   UNL     1      -4.777   1.453  24.331  0.00  0.00    +0.051 C 
BRANCH  24  25
ATOM     25  C   UNL     1      -4.691   0.694  24.642  0.00  0.00    +0.101 A 
ATOM     26  N   UNL     1      -4.940   0.444  25.387  0.00  0.00    -0.081 NA
ATOM     27  O   UNL     1      -4.744  -0.354  25.466  0.00  0.00    -0.354 OA
ATOM     28  C   UNL     1      -4.374  -0.596  24.770  0.00  0.00    +0.177 A 
ATOM     29  C   UNL     1      -4.342   0.052  24.260  0.00  0.00    +0.058 A 
BRANCH  28  30
ATOM     30  C   UNL     1      -4.087  -1.353  24.611  0.00  0.00    +0.037 A 
ATOM     31  C   UNL     1      -4.344  -1.759  23.939  0.00  0.00    +0.003 A 
ATOM     32  C   UNL     1      -4.057  -2.516  23.779  0.00  0.00    +0.000 A 
ATOM     33  C   UNL     1      -3.513  -2.867  24.290  0.00  0.00    +0.000 A 
ATOM     34  C   UNL     1      -3.256  -2.461  24.962  0.00  0.00    +0.000 A 
ATOM     35  C   UNL     1      -3.543  -1.705  25.121  0.00  0.00    +0.003 A 
ENDBRANCH  28  30
ENDBRANCH  24  25
ENDBRANCH  23  24
TORSDOF 7
ENDMDL
MODEL 8
REMARK VINA RESULT:      -9.3      1.782      5.203
REMARK  Name = 
REMARK  7 active torsions:
REMARK  status: ('A' for Active; 'I' for Inactive)
REMARK    1  A    between atoms: O_2  and  C_3
REMARK    2  A    between atoms: C_4  and  O_5
REMARK    3  A    between atoms: C_15  and  C_17
REMARK    4  A    between atoms: C_17  and  C_18
REMARK    5  A    between atoms: C_23  and  C_24
REMARK    6  A    between atoms: C_24  and  C_25
REMARK    7  A    between atoms: C_28  and  C_30
REMARK                            x       y       z     vdW  Elec       q    Type
REMARK                         _______ _______ _______ _____ _____    ______ ____
ROOT
ATOM     18  C   UNL     1      -3.643  -1.189  24.618  0.00  0.00    +0.012 C 
ATOM     19  C   UNL     1      -4.325  -1.316  24.173  0.00  0.00    +0.019 C 
ATOM     20  C   UNL     1      -4.439  -2.036  23.787  0.00  0.00    +0.089 C 
ATOM     21  N   UNL     1      -3.868  -2.630  23.847  0.00  0.00    -0.218 NA
ATOM     22  C   UNL     1      -3.185  -2.503  24.292  0.00  0.00    +0.089 C 
ATOM     23  C   UNL     1      -3.073  -1.782  24.678  0.00  0.00    +0.024 C 
ENDROOT
BRANCH  18  17
ATOM     17  C   UNL     1      -3.531  -0.468  25.003  0.00  0.00    +0.085 C 
BRANCH  17  15
ATOM      3  C   UNL     1      -4.073   3.849  25.358  0.00  0.00    +0.172 A 
ATOM      4  C   UNL     1      -4.858   3.596  25.318  0.00  0.00    +0.172 A 
ATOM      7  C   UNL     1      -5.028   2.792  25.245  0.00  0.00    +0.037 A 
ATOM      8  C   UNL     1      -4.416   2.242  25.213  0.00  0.00    -0.003 A 
ATOM      9  C   UNL     1      -4.586   1.438  25.140  0.00  0.00    +0.120 C 
ATOM     10  N   UNL     1      -3.973   0.887  25.108  0.00  0.00    -0.275 N 
ATOM     11  C   UNL     1      -3.188   1.140  25.149  0.00  0.00    +0.098 C 
ATOM     12  C   UNL     1      -3.017   1.944  25.221  0.00  0.00    +0.048 C 
ATOM     13  C   UNL     1      -3.630   2.495  25.254  0.00  0.00    -0.020 A 
ATOM     14  C   UNL     1      -3.460   3.298  25.326  0.00  0.00    +0.036 A 
ATOM     15  C   UNL     1      -4.143   0.083  25.035  0.00  0.00    +0.226 C 
ATOM     16  O   UNL     1      -4.928  -0.170  24.995  0.00  0.00    -0.275 OA
BRANCH   3   2
ATOM      1  C   UNL     1      -3.123   4.901  25.538  0.00  0.00    +0.253 C 
ATOM      2  O   UNL     1      -3.902   4.653  25.431  0.00  0.00    -0.468 OA
ENDBRANCH   3   2
BRANCH   4   5
ATOM      5  O   UNL     1      -5.471   4.147  25.350  0.00  0.00    -0.468 OA
ATOM      6  C   UNL     1      -6.227   3.909  25.580  0.00  0.00    +0.253 C 
ENDBRANCH   4   5
ENDBRANCH  17  15
ENDBRANCH  18  17
BRANCH  23  24
ATOM     24  C   UNL     1      -2.390  -1.654  25.123  0.00  0.00    +0.051 C 
BRANCH  24  25
ATOM     25  C   UNL     1      -1.658  -1.590  24.747  0.00  0.00    +0.101 A 
ATOM     26  N   UNL     1      -1.168  -2.217  24.530  0.00  0.00    -0.081 NA
ATOM     27  O   UNL     1      -0.496  -1.901  24.170  0.00  0.00    -0.354 OA
ATOM     28  C   UNL     1      -0.571  -1.079  24.165  0.00  0.00    +0.177 A 
ATOM     29  C   UNL     1      -1.290  -0.888  24.522  0.00  0.00    +0.058 A 
BRANCH  28  30
ATOM     30  C   UNL     1      -0.024  -0.544  23.858  0.00  0.00    +0.037 A 
ATOM     31  C   UNL     1       0.466  -0.768  23.233  0.00  0.00    +0.003 A 
ATOM     32  C   UNL     1       1.014  -0.232  22.925  0.00  0.00    +0.000 A 
ATOM     33  C   UNL     1       1.071   0.527  23.242  0.00  0.00    +0.000 A 
ATOM     34  C   UNL     1       0.581   0.751  23.868  0.00  0.00    +0.000 A 
ATOM     35  C   UNL     1       0.034   0.215  24.175  0.00  0.00    +0.003 A 
ENDBRANCH  28  30
ENDBRANCH  24  25
ENDBRANCH  23  24
TORSDOF 7
ENDMDL
