MODEL 1
REMARK VINA RESULT:     -10.8      0.000      0.000
REMARK  Name = 
REMARK  7 active torsions:
REMARK  status: ('A' for Active; 'I' for Inactive)
REMARK    1  A    between atoms: O_2  and  C_3
REMARK    2  A    between atoms: C_6  and  C_9
REMARK    3  A    between atoms: C_11  and  C_12
REMARK    4  A    between atoms: C_12  and  C_13
REMARK    5  A    between atoms: C_15  and  N_16
REMARK    6  A    between atoms: N_16  and  C_17
REMARK    7  A    between atoms: C_17  and  C_18
REMARK                            x       y       z     vdW  Elec       q    Type
REMARK                         _______ _______ _______ _____ _____    ______ ____
ROOT
ATOM     12  C   UNL     1      -4.931   2.873  25.200  0.00  0.00    +0.049 C 
ENDROOT
BRANCH  12  13
ATOM     13  C   UNL     1      -4.874   2.059  25.079  0.00  0.00    +0.009 C 
ATOM     14  C   UNL     1      -4.252   1.529  24.964  0.00  0.00    +0.018 C 
ATOM     15  C   UNL     1      -4.793   0.909  24.908  0.00  0.00    +0.073 C 
ATOM     24  C   UNL     1      -5.414   1.439  25.023  0.00  0.00    +0.015 C 
ATOM     25  C   UNL     1      -6.084   0.959  24.996  0.00  0.00    +0.001 C 
ATOM     26  C   UNL     1      -6.144   1.810  25.122  0.00  0.00    +0.001 C 
BRANCH  15  16
ATOM     16  N   UNL     1      -4.736   0.095  24.787  0.00  0.00    -0.215 NA
BRANCH  16  17
ATOM     17  C   UNL     1      -4.011  -0.242  24.579  0.00  0.00    +0.115 C 
BRANCH  17  18
ATOM     18  C   UNL     1      -3.929  -1.063  24.555  0.00  0.00    -0.002 A 
ATOM     19  C   UNL     1      -3.558  -1.458  25.176  0.00  0.00    +0.018 A 
ATOM     20  C   UNL     1      -3.476  -2.278  25.153  0.00  0.00    +0.099 A 
ATOM     21  N   UNL     1      -3.765  -2.704  24.508  0.00  0.00    -0.242 NA
ATOM     22  C   UNL     1      -4.136  -2.308  23.886  0.00  0.00    +0.099 A 
ATOM     23  C   UNL     1      -4.218  -1.487  23.909  0.00  0.00    +0.018 A 
ENDBRANCH  17  18
ENDBRANCH  16  17
ENDBRANCH  15  16
ENDBRANCH  12  13
BRANCH  12  11
ATOM      9  C   UNL     1      -3.109   3.922  25.571  0.00  0.00    +0.177 A 
ATOM     10  C   UNL     1      -3.613   3.510  25.064  0.00  0.00    +0.058 A 
ATOM     11  C   UNL     1      -4.284   3.294  25.492  0.00  0.00    +0.101 A 
ATOM     27  N   UNL     1      -4.196   3.572  26.264  0.00  0.00    -0.081 NA
ATOM     28  O   UNL     1      -3.470   3.961  26.313  0.00  0.00    -0.354 OA
BRANCH   9   6
ATOM      3  C   UNL     1      -0.903   4.874  24.976  0.00  0.00    +0.139 A 
ATOM      4  C   UNL     1      -0.982   4.063  25.102  0.00  0.00    +0.037 A 
ATOM      5  C   UNL     1      -1.718   3.745  25.300  0.00  0.00    +0.006 A 
ATOM      6  C   UNL     1      -2.375   4.239  25.373  0.00  0.00    +0.037 A 
ATOM      7  C   UNL     1      -2.295   5.051  25.247  0.00  0.00    +0.006 A 
ATOM      8  C   UNL     1      -1.560   5.368  25.049  0.00  0.00    +0.037 A 
BRANCH   3   2
ATOM      1  C   UNL     1       0.152   5.057  24.030  0.00  0.00    +0.252 C 
ATOM      2  O   UNL     1      -0.169   5.191  24.778  0.00  0.00    -0.471 OA
ENDBRANCH   3   2
ENDBRANCH   9   6
ENDBRANCH  12  11
TORSDOF 7
ENDMDL
MODEL 2
REMARK VINA RESULT:     -10.7      1.929      5.457
REMARK  Name = 
REMARK  7 active torsions:
REMARK  status: ('A' for Active; 'I' for Inactive)
REMARK    1  A    between atoms: O_2  and  C_3
REMARK    2  A    between atoms: C_6  and  C_9
REMARK    3  A    between atoms: C_11  and  C_12
REMARK    4  A    between atoms: C_12  and  C_13
REMARK    5  A    between atoms: C_15  and  N_16
REMARK    6  A    between atoms: N_16  and  C_17
REMARK    7  A    between atoms: C_17  and  C_18
REMARK                            x       y       z     vdW  Elec       q    Type
REMARK                         _______ _______ _______ _____ _____    ______ ____
ROOT
ATOM     12  C   UNL     1      -5.028   1.799  24.793  0.00  0.00    +0.049 C 
ENDROOT
BRANCH  12  13
ATOM     13  C   UNL     1      -4.485   2.413  24.891  0.00  0.00    +0.009 C 
ATOM     14  C   UNL     1      -3.664   2.478  24.837  0.00  0.00    +0.018 C 
ATOM     15  C   UNL     1      -3.717   3.279  25.028  0.00  0.00    +0.073 C 
ATOM     24  C   UNL     1      -4.537   3.213  25.081  0.00  0.00    +0.015 C 
ATOM     25  C   UNL     1      -4.779   3.976  25.279  0.00  0.00    +0.001 C 
ATOM     26  C   UNL     1      -5.347   3.335  25.177  0.00  0.00    +0.001 C 
BRANCH  15  16
ATOM     16  N   UNL     1      -3.174   3.893  25.125  0.00  0.00    -0.215 NA
BRANCH  16  17
ATOM     17  C   UNL     1      -2.421   3.734  25.426  0.00  0.00    +0.115 C 
BRANCH  17  18
ATOM     18  C   UNL     1      -1.782   4.210  25.212  0.00  0.00    -0.002 A 
ATOM     19  C   UNL     1      -1.082   3.865  24.949  0.00  0.00    +0.018 A 
ATOM     20  C   UNL     1      -0.443   4.340  24.735  0.00  0.00    +0.099 A 
ATOM     21  N   UNL     1      -0.504   5.161  24.784  0.00  0.00    -0.242 NA
ATOM     22  C   UNL     1      -1.207   5.507  25.047  0.00  0.00    +0.099 A 
ATOM     23  C   UNL     1      -1.846   5.031  25.262  0.00  0.00    +0.018 A 
ENDBRANCH  17  18
ENDBRANCH  16  17
ENDBRANCH  15  16
ENDBRANCH  12  13
BRANCH  12  11
ATOM      9  C   UNL     1      -4.317  -0.195  25.065  0.00  0.00    +0.177 A 
ATOM     10  C   UNL     1      -4.364   0.500  24.622  0.00  0.00    +0.058 A 
ATOM     11  C   UNL     1      -4.835   1.035  25.035  0.00  0.00    +0.101 A 
ATOM     27  N   UNL     1      -5.081   0.671  25.734  0.00  0.00    -0.081 NA
ATOM     28  O   UNL     1      -4.761  -0.089  25.753  0.00  0.00    -0.354 OA
BRANCH   9   6
ATOM      3  C   UNL     1      -3.070  -2.240  24.441  0.00  0.00    +0.139 A 
ATOM      4  C   UNL     1      -3.763  -2.041  24.040  0.00  0.00    +0.037 A 
ATOM      5  C   UNL     1      -4.179  -1.359  24.248  0.00  0.00    +0.006 A 
ATOM      6  C   UNL     1      -3.902  -0.876  24.857  0.00  0.00    +0.037 A 
ATOM      7  C   UNL     1      -3.209  -1.076  25.258  0.00  0.00    +0.006 A 
ATOM      8  C   UNL     1      -2.793  -1.757  25.051  0.00  0.00    +0.037 A 
BRANCH   3   2
ATOM      1  C   UNL     1      -1.830  -2.915  24.223  0.00  0.00    +0.252 C 
ATOM      2  O   UNL     1      -2.654  -2.921  24.234  0.00  0.00    -0.471 OA
ENDBRANCH   3   2
ENDBRANCH   9   6
ENDBRANCH  12  11
TORSDOF 7
ENDMDL
MODEL 3
REMARK VINA RESULT:      -9.6      3.296      5.124
REMARK  Name = 
REMARK  7 active torsions:
REMARK  status: ('A' for Active; 'I' for Inactive)
REMARK    1  A    between atoms: O_2  and  C_3
REMARK    2  A    between atoms: C_6  and  C_9
REMARK    3  A    between atoms: C_11  and  C_12
REMARK    4  A    between atoms: C_12  and  C_13
REMARK    5  A    between atoms: C_15  and  N_16
REMARK    6  A    between atoms: N_16  and  C_17
REMARK    7  A    between atoms: C_17  and  C_18
REMARK                            x       y       z     vdW  Elec       q    Type
REMARK                         _______ _______ _______ _____ _____    ______ ____
ROOT
ATOM     12  C   UNL     1      -2.504  -0.964  25.058  0.00  0.00    +0.049 C 
ENDROOT
BRANCH  12  13
ATOM     13  C   UNL     1      -1.745  -0.848  24.757  0.00  0.00    +0.009 C 
ATOM     14  C   UNL     1      -1.402  -0.317  24.226  0.00  0.00    +0.018 C 
ATOM     15  C   UNL     1      -0.671  -0.685  24.331  0.00  0.00    +0.073 C 
ATOM     24  C   UNL     1      -1.014  -1.215  24.862  0.00  0.00    +0.015 C 
ATOM     25  C   UNL     1      -0.383  -1.696  25.087  0.00  0.00    +0.001 C 
ATOM     26  C   UNL     1      -1.176  -1.817  25.402  0.00  0.00    +0.001 C 
BRANCH  15  16
ATOM     16  N   UNL     1       0.088  -0.570  24.030  0.00  0.00    -0.215 NA
BRANCH  16  17
ATOM     17  C   UNL     1       0.221   0.006  23.454  0.00  0.00    +0.115 C 
BRANCH  17  18
ATOM     18  C   UNL     1       0.977   0.111  23.142  0.00  0.00    -0.002 A 
ATOM     19  C   UNL     1       1.218  -0.329  22.488  0.00  0.00    +0.018 A 
ATOM     20  C   UNL     1       1.975  -0.224  22.176  0.00  0.00    +0.099 A 
ATOM     21  N   UNL     1       2.490   0.322  22.518  0.00  0.00    -0.242 NA
ATOM     22  C   UNL     1       2.248   0.763  23.172  0.00  0.00    +0.099 A 
ATOM     23  C   UNL     1       1.492   0.658  23.484  0.00  0.00    +0.018 A 
ENDBRANCH  17  18
ENDBRANCH  16  17
ENDBRANCH  15  16
ENDBRANCH  12  13
BRANCH  12  11
ATOM      9  C   UNL     1      -4.037   0.476  24.692  0.00  0.00    +0.177 A 
ATOM     10  C   UNL     1      -3.407   0.193  25.143  0.00  0.00    +0.058 A 
ATOM     11  C   UNL     1      -3.130  -0.498  24.789  0.00  0.00    +0.101 A 
ATOM     27  N   UNL     1      -3.589  -0.644  24.119  0.00  0.00    -0.081 NA
ATOM     28  O   UNL     1      -4.149  -0.042  24.058  0.00  0.00    -0.354 OA
BRANCH   9   6
ATOM      3  C   UNL     1      -5.359   2.517  25.152  0.00  0.00    +0.139 A 
ATOM      4  C   UNL     1      -4.686   2.560  24.677  0.00  0.00    +0.037 A 
ATOM      5  C   UNL     1      -4.245   1.879  24.523  0.00  0.00    +0.006 A 
ATOM      6  C   UNL     1      -4.478   1.156  24.845  0.00  0.00    +0.037 A 
ATOM      7  C   UNL     1      -5.150   1.114  25.320  0.00  0.00    +0.006 A 
ATOM      8  C   UNL     1      -5.591   1.794  25.474  0.00  0.00    +0.037 A 
BRANCH   3   2
ATOM      1  C   UNL     1      -5.426   3.880  25.578  0.00  0.00    +0.252 C 
ATOM      2  O   UNL     1      -5.799   3.197  25.305  0.00  0.00    -0.471 OA
ENDBRANCH   3   2
ENDBRANCH   9   6
ENDBRANCH  12  11
TORSDOF 7
ENDMDL
MODEL 4
REMARK VINA RESULT:      -9.4      2.204      3.227
REMARK  Name = 
REMARK  7 active torsions:
REMARK  status: ('A' for Active; 'I' for Inactive)
REMARK    1  A    between atoms: O_2  and  C_3
REMARK    2  A    between atoms: C_6  and  C_9
REMARK    3  A    between atoms: C_11  and  C_12
REMARK    4  A    between atoms: C_12  and  C_13
REMARK    5  A    between atoms: C_15  and  N_16
REMARK    6  A    between atoms: N_16  and  C_17
REMARK    7  A    between atoms: C_17  and  C_18
REMARK                            x       y       z     vdW  Elec       q    Type
REMARK                         _______ _______ _______ _____ _____    ______ ____
ROOT
ATOM     12  C   UNL     1      -0.053   0.906  24.794  0.00  0.00    +0.049 C 
ENDROOT
BRANCH  12  13
ATOM     13  C   UNL     1      -0.578   0.275  24.711  0.00  0.00    +0.009 C 
ATOM     14  C   UNL     1      -1.347   0.119  24.966  0.00  0.00    +0.018 C 
ATOM     15  C   UNL     1      -1.319  -0.617  24.594  0.00  0.00    +0.073 C 
ATOM     24  C   UNL     1      -0.551  -0.461  24.340  0.00  0.00    +0.015 C 
ATOM     25  C   UNL     1      -0.345  -1.139  23.919  0.00  0.00    +0.001 C 
ATOM     26  C   UNL     1       0.203  -0.480  24.006  0.00  0.00    +0.001 C 
BRANCH  15  16
ATOM     16  N   UNL     1      -1.844  -1.249  24.512  0.00  0.00    -0.215 NA
BRANCH  16  17
ATOM     17  C   UNL     1      -2.613  -1.187  24.805  0.00  0.00    +0.115 C 
BRANCH  17  18
ATOM     18  C   UNL     1      -3.200  -1.699  24.533  0.00  0.00    -0.002 A 
ATOM     19  C   UNL     1      -3.162  -2.503  24.713  0.00  0.00    +0.018 A 
ATOM     20  C   UNL     1      -3.749  -3.015  24.441  0.00  0.00    +0.099 A 
ATOM     21  N   UNL     1      -4.375  -2.723  23.990  0.00  0.00    -0.242 NA
ATOM     22  C   UNL     1      -4.413  -1.918  23.810  0.00  0.00    +0.099 A 
ATOM     23  C   UNL     1      -3.826  -1.406  24.082  0.00  0.00    +0.018 A 
ENDBRANCH  17  18
ENDBRANCH  16  17
ENDBRANCH  15  16
ENDBRANCH  12  13
BRANCH  12  11
ATOM      9  C   UNL     1      -0.741   2.794  25.513  0.00  0.00    +0.177 A 
ATOM     10  C   UNL     1      -0.598   2.268  24.895  0.00  0.00    +0.058 A 
ATOM     11  C   UNL     1      -0.279   1.578  25.216  0.00  0.00    +0.101 A 
ATOM     27  N   UNL     1      -0.225   1.678  26.033  0.00  0.00    -0.081 NA
ATOM     28  O   UNL     1      -0.511   2.430  26.217  0.00  0.00    -0.354 OA
BRANCH   9   6
ATOM      3  C   UNL     1      -1.697   5.068  25.300  0.00  0.00    +0.139 A 
ATOM      4  C   UNL     1      -2.143   4.463  25.639  0.00  0.00    +0.037 A 
ATOM      5  C   UNL     1      -1.825   3.705  25.710  0.00  0.00    +0.006 A 
ATOM      6  C   UNL     1      -1.059   3.552  25.442  0.00  0.00    +0.037 A 
ATOM      7  C   UNL     1      -0.613   4.157  25.104  0.00  0.00    +0.006 A 
ATOM      8  C   UNL     1      -0.931   4.915  25.032  0.00  0.00    +0.037 A 
BRANCH   3   2
ATOM      1  C   UNL     1      -1.894   6.261  24.540  0.00  0.00    +0.252 C 
ATOM      2  O   UNL     1      -2.014   5.825  25.229  0.00  0.00    -0.471 OA
ENDBRANCH   3   2
ENDBRANCH   9   6
ENDBRANCH  12  11
TORSDOF 7
ENDMDL
MODEL 5
REMARK VINA RESULT:      -9.1      2.557      5.235
REMARK  Name = 
REMARK  7 active torsions:
REMARK  status: ('A' for Active; 'I' for Inactive)
REMARK    1  A    between atoms: O_2  and  C_3
REMARK    2  A    between atoms: C_6  and  C_9
REMARK    3  A    between atoms: C_11  and  C_12
REMARK    4  A    between atoms: C_12  and  C_13
REMARK    5  A    between atoms: C_15  and  N_16
REMARK    6  A    between atoms: N_16  and  C_17
REMARK    7  A    between atoms: C_17  and  C_18
REMARK                            x       y       z     vdW  Elec       q    Type
REMARK                         _______ _______ _______ _____ _____    ______ ____
ROOT
ATOM     12  C   UNL     1      -0.471   2.986  25.090  0.00  0.00    +0.049 C 
ENDROOT
BRANCH  12  13
ATOM     13  C   UNL     1      -1.254   3.245  25.106  0.00  0.00    +0.009 C 
ATOM     14  C   UNL     1      -1.991   2.878  25.056  0.00  0.00    +0.018 C 
ATOM     15  C   UNL     1      -2.360   3.612  25.130  0.00  0.00    +0.073 C 
ATOM     24  C   UNL     1      -1.624   3.978  25.181  0.00  0.00    +0.015 C 
ATOM     25  C   UNL     1      -1.812   4.777  25.265  0.00  0.00    +0.001 C 
ATOM     26  C   UNL     1      -0.993   4.506  25.247  0.00  0.00    +0.001 C 
BRANCH  15  16
ATOM     16  N   UNL     1      -3.143   3.871  25.147  0.00  0.00    -0.215 NA
BRANCH  16  17
ATOM     17  C   UNL     1      -3.737   3.413  24.801  0.00  0.00    +0.115 C 
BRANCH  17  18
ATOM     18  C   UNL     1      -4.494   3.401  25.130  0.00  0.00    -0.002 A 
ATOM     19  C   UNL     1      -4.851   2.682  25.314  0.00  0.00    +0.018 A 
ATOM     20  C   UNL     1      -5.608   2.670  25.644  0.00  0.00    +0.099 A 
ATOM     21  N   UNL     1      -6.006   3.377  25.789  0.00  0.00    -0.242 NA
ATOM     22  C   UNL     1      -5.647   4.098  25.605  0.00  0.00    +0.099 A 
ATOM     23  C   UNL     1      -4.891   4.110  25.275  0.00  0.00    +0.018 A 
ENDBRANCH  17  18
ENDBRANCH  16  17
ENDBRANCH  15  16
ENDBRANCH  12  13
BRANCH  12  11
ATOM      9  C   UNL     1      -0.319   0.898  24.675  0.00  0.00    +0.177 A 
ATOM     10  C   UNL     1      -0.671   1.530  25.070  0.00  0.00    +0.058 A 
ATOM     11  C   UNL     1      -0.293   2.223  24.831  0.00  0.00    +0.101 A 
ATOM     27  N   UNL     1       0.294   2.020  24.288  0.00  0.00    -0.081 NA
ATOM     28  O   UNL     1       0.278   1.200  24.191  0.00  0.00    -0.354 OA
BRANCH   9   6
ATOM      3  C   UNL     1      -0.938  -1.488  24.899  0.00  0.00    +0.139 A 
ATOM      4  C   UNL     1      -1.102  -0.960  25.511  0.00  0.00    +0.037 A 
ATOM      5  C   UNL     1      -0.895  -0.165  25.437  0.00  0.00    +0.006 A 
ATOM      6  C   UNL     1      -0.525   0.103  24.749  0.00  0.00    +0.037 A 
ATOM      7  C   UNL     1      -0.362  -0.425  24.137  0.00  0.00    +0.006 A 
ATOM      8  C   UNL     1      -0.568  -1.220  24.211  0.00  0.00    +0.037 A 
BRANCH   3   2
ATOM      1  C   UNL     1      -1.838  -2.564  24.626  0.00  0.00    +0.252 C 
ATOM      2  O   UNL     1      -1.145  -2.283  24.973  0.00  0.00    -0.471 OA
ENDBRANCH   3   2
ENDBRANCH   9   6
ENDBRANCH  12  11
TORSDOF 7
ENDMDL
MODEL 6
REMARK VINA RESULT:      -9.1      2.680      6.438
REMARK  Name = 
REMARK  7 active torsions:
REMARK  status: ('A' for Active; 'I' for Inactive)
REMARK    1  A    between atoms: O_2  and  C_3
REMARK    2  A    between atoms: C_6  and  C_9
REMARK    3  A    between atoms: C_11  and  C_12
REMARK    4  A    between atoms: C_12  and  C_13
REMARK    5  A    between atoms: C_15  and  N_16
REMARK    6  A    between atoms: N_16  and  C_17
REMARK    7  A    between atoms: C_17  and  C_18
REMARK                            x       y       z     vdW  Elec       q    Type
REMARK                         _______ _______ _______ _____ _____    ______ ____
ROOT
ATOM     12  C   UNL     1      -0.319   0.117  24.843  0.00  0.00    +0.049 C 
ENDROOT
BRANCH  12  13
ATOM     13  C   UNL     1      -0.377   0.940  24.854  0.00  0.00    +0.009 C 
ATOM     14  C   UNL     1      -0.868   1.485  25.232  0.00  0.00    +0.018 C 
ATOM     15  C   UNL     1      -0.458   2.103  24.870  0.00  0.00    +0.073 C 
ATOM     24  C   UNL     1       0.032   1.558  24.493  0.00  0.00    +0.015 C 
ATOM     25  C   UNL     1       0.544   2.032  24.053  0.00  0.00    +0.001 C 
ATOM     26  C   UNL     1       0.604   1.172  24.042  0.00  0.00    +0.001 C 
BRANCH  15  16
ATOM     16  N   UNL     1      -0.516   2.926  24.881  0.00  0.00    -0.215 NA
BRANCH  16  17
ATOM     17  C   UNL     1      -0.951   3.302  25.474  0.00  0.00    +0.115 C 
BRANCH  17  18
ATOM     18  C   UNL     1      -1.243   4.064  25.352  0.00  0.00    -0.002 A 
ATOM     19  C   UNL     1      -2.019   4.246  25.560  0.00  0.00    +0.018 A 
ATOM     20  C   UNL     1      -2.311   5.008  25.438  0.00  0.00    +0.099 A 
ATOM     21  N   UNL     1      -1.826   5.588  25.108  0.00  0.00    -0.242 NA
ATOM     22  C   UNL     1      -1.049   5.405  24.899  0.00  0.00    +0.099 A 
ATOM     23  C   UNL     1      -0.757   4.643  25.021  0.00  0.00    +0.018 A 
ENDBRANCH  17  18
ENDBRANCH  16  17
ENDBRANCH  15  16
ENDBRANCH  12  13
BRANCH  12  11
ATOM      9  C   UNL     1      -2.070  -1.089  25.035  0.00  0.00    +0.177 A 
ATOM     10  C   UNL     1      -1.531  -0.669  24.572  0.00  0.00    +0.058 A 
ATOM     11  C   UNL     1      -0.963  -0.345  25.073  0.00  0.00    +0.101 A 
ATOM     27  N   UNL     1      -1.150  -0.564  25.847  0.00  0.00    -0.081 NA
ATOM     28  O   UNL     1      -1.834  -1.024  25.823  0.00  0.00    -0.354 OA
BRANCH   9   6
ATOM      3  C   UNL     1      -4.049  -2.325  24.208  0.00  0.00    +0.139 A 
ATOM      4  C   UNL     1      -4.043  -1.500  24.195  0.00  0.00    +0.037 A 
ATOM      5  C   UNL     1      -3.383  -1.088  24.470  0.00  0.00    +0.006 A 
ATOM      6  C   UNL     1      -2.729  -1.501  24.759  0.00  0.00    +0.037 A 
ATOM      7  C   UNL     1      -2.736  -2.326  24.772  0.00  0.00    +0.006 A 
ATOM      8  C   UNL     1      -3.395  -2.738  24.497  0.00  0.00    +0.037 A 
BRANCH   3   2
ATOM      1  C   UNL     1      -4.714  -3.044  23.167  0.00  0.00    +0.252 C 
ATOM      2  O   UNL     1      -4.708  -2.737  23.932  0.00  0.00    -0.471 OA
ENDBRANCH   3   2
ENDBRANCH   9   6
ENDBRANCH  12  11
TORSDOF 7
ENDMDL
MODEL 7
REMARK VINA RESULT:      -8.9      3.017      4.617
REMARK  Name = 
REMARK  7 active torsions:
REMARK  status: ('A' for Active; 'I' for Inactive)
REMARK    1  A    between atoms: O_2  and  C_3
REMARK    2  A    between atoms: C_6  and  C_9
REMARK    3  A    between atoms: C_11  and  C_12
REMARK    4  A    between atoms: C_12  and  C_13
REMARK    5  A    between atoms: C_15  and  N_16
REMARK    6  A    between atoms: N_16  and  C_17
REMARK    7  A    between atoms: C_17  and  C_18
REMARK                            x       y       z     vdW  Elec       q    Type
REMARK                         _______ _______ _______ _____ _____    ______ ____
ROOT
ATOM     12  C   UNL     1      -2.513  -1.270  24.663  0.00  0.00    +0.049 C 
ENDROOT
BRANCH  12  13
ATOM     13  C   UNL     1      -3.120  -0.714  24.729  0.00  0.00    +0.009 C 
ATOM     14  C   UNL     1      -3.171   0.064  24.999  0.00  0.00    +0.018 C 
ATOM     15  C   UNL     1      -3.977   0.071  24.822  0.00  0.00    +0.073 C 
ATOM     24  C   UNL     1      -3.925  -0.706  24.552  0.00  0.00    +0.015 C 
ATOM     25  C   UNL     1      -4.696  -0.880  24.317  0.00  0.00    +0.001 C 
ATOM     26  C   UNL     1      -4.062  -1.460  24.248  0.00  0.00    +0.001 C 
BRANCH  15  16
ATOM     16  N   UNL     1      -4.583   0.627  24.887  0.00  0.00    -0.215 NA
BRANCH  16  17
ATOM     17  C   UNL     1      -4.435   1.421  24.718  0.00  0.00    +0.115 C 
BRANCH  17  18
ATOM     18  C   UNL     1      -4.899   2.010  25.064  0.00  0.00    -0.002 A 
ATOM     19  C   UNL     1      -4.554   2.720  25.301  0.00  0.00    +0.018 A 
ATOM     20  C   UNL     1      -5.017   3.309  25.646  0.00  0.00    +0.099 A 
ATOM     21  N   UNL     1      -5.826   3.187  25.754  0.00  0.00    -0.242 NA
ATOM     22  C   UNL     1      -6.171   2.475  25.516  0.00  0.00    +0.099 A 
ATOM     23  C   UNL     1      -5.707   1.887  25.171  0.00  0.00    +0.018 A 
ENDBRANCH  17  18
ENDBRANCH  16  17
ENDBRANCH  15  16
ENDBRANCH  12  13
BRANCH  12  11
ATOM      9  C   UNL     1      -0.519  -0.566  24.372  0.00  0.00    +0.177 A 
ATOM     10  C   UNL     1      -1.272  -0.738  24.082  0.00  0.00    +0.058 A 
ATOM     11  C   UNL     1      -1.726  -1.029  24.707  0.00  0.00    +0.101 A 
ATOM     27  N   UNL     1      -1.253  -1.037  25.384  0.00  0.00    -0.081 NA
ATOM     28  O   UNL     1      -0.508  -0.751  25.177  0.00  0.00    -0.354 OA
BRANCH   9   6
ATOM      3  C   UNL     1       1.374   0.342  23.062  0.00  0.00    +0.139 A 
ATOM      4  C   UNL     1       1.143  -0.443  22.963  0.00  0.00    +0.037 A 
ATOM      5  C   UNL     1       0.512  -0.746  23.400  0.00  0.00    +0.006 A 
ATOM      6  C   UNL     1       0.111  -0.263  23.936  0.00  0.00    +0.037 A 
ATOM      7  C   UNL     1       0.343   0.522  24.035  0.00  0.00    +0.006 A 
ATOM      8  C   UNL     1       0.974   0.825  23.599  0.00  0.00    +0.037 A 
BRANCH   3   2
ATOM      1  C   UNL     1       2.714   0.227  22.579  0.00  0.00    +0.252 C 
ATOM      2  O   UNL     1       2.005   0.645  22.626  0.00  0.00    -0.471 OA
ENDBRANCH   3   2
ENDBRANCH   9   6
ENDBRANCH  12  11
TORSDOF 7
ENDMDL
