MODEL 1
REMARK VINA RESULT:      -9.5      0.000      0.000
REMARK  Name = 
REMARK  3 active torsions:
REMARK  status: ('A' for Active; 'I' for Inactive)
REMARK    1  A    between atoms: C_2  and  C_3
REMARK    2  A    between atoms: C_11  and  O_13
REMARK    3  A    between atoms: O_13  and  C_14
REMARK                            x       y       z     vdW  Elec       q    Type
REMARK                         _______ _______ _______ _____ _____    ______ ____
ROOT
ATOM      1  O   UNL     1      -4.648  -1.184  24.005  0.00  0.00    -0.275 OA
ATOM      2  C   UNL     1      -3.907  -1.194  24.366  0.00  0.00    +0.225 C 
ATOM      6  N   UNL     1      -3.516  -0.485  24.523  0.00  0.00    -0.273 N 
ATOM      7  C   UNL     1      -2.778  -0.556  24.885  0.00  0.00    +0.126 C 
ATOM      8  C   UNL     1      -2.256   0.042  25.110  0.00  0.00    +0.164 C 
ATOM      9  O   UNL     1      -2.343   0.859  25.030  0.00  0.00    -0.348 OA
ATOM     10  C   UNL     1      -2.974   1.278  24.704  0.00  0.00    +0.187 C 
ATOM     11  C   UNL     1      -3.673   0.986  24.379  0.00  0.00    +0.215 C 
ATOM     12  C   UNL     1      -3.914   0.201  24.298  0.00  0.00    +0.139 C 
ENDROOT
BRANCH   2   3
ATOM      3  C   UNL     1      -3.556  -1.913  24.570  0.00  0.00    +0.077 C 
ATOM      4  C   UNL     1      -3.075  -2.553  24.375  0.00  0.00    +0.010 C 
ATOM      5  C   UNL     1      -3.430  -2.516  25.118  0.00  0.00    +0.010 C 
ENDBRANCH   2   3
BRANCH  11  13
ATOM     13  O   UNL     1      -4.202   1.553  24.095  0.00  0.00    -0.473 OA
BRANCH  13  14
ATOM     14  C   UNL     1      -4.591   2.054  24.623  0.00  0.00    +0.158 A 
ATOM     15  C   UNL     1      -5.305   1.818  24.963  0.00  0.00    +0.040 A 
ATOM     16  C   UNL     1      -5.695   2.318  25.490  0.00  0.00    +0.024 A 
ATOM     17  C   UNL     1      -5.372   3.054  25.678  0.00  0.00    +0.099 A 
ATOM     18  N   UNL     1      -4.657   3.289  25.337  0.00  0.00    -0.239 NA
ATOM     19  C   UNL     1      -4.267   2.789  24.810  0.00  0.00    +0.136 A 
ENDBRANCH  13  14
ENDBRANCH  11  13
TORSDOF 3
ENDMDL
MODEL 2
REMARK VINA RESULT:      -9.2      1.125      3.878
REMARK  Name = 
REMARK  3 active torsions:
REMARK  status: ('A' for Active; 'I' for Inactive)
REMARK    1  A    between atoms: C_2  and  C_3
REMARK    2  A    between atoms: C_11  and  O_13
REMARK    3  A    between atoms: O_13  and  C_14
REMARK                            x       y       z     vdW  Elec       q    Type
REMARK                         _______ _______ _______ _____ _____    ______ ____
ROOT
ATOM      1  O   UNL     1      -5.107   1.825  24.597  0.00  0.00    -0.275 OA
ATOM      2  C   UNL     1      -4.311   2.031  24.531  0.00  0.00    +0.225 C 
ATOM      6  N   UNL     1      -3.726   1.476  24.709  0.00  0.00    -0.273 N 
ATOM      7  C   UNL     1      -2.948   1.738  24.625  0.00  0.00    +0.126 C 
ATOM      8  C   UNL     1      -2.249   1.322  24.758  0.00  0.00    +0.164 C 
ATOM      9  O   UNL     1      -2.154   0.541  25.008  0.00  0.00    -0.348 OA
ATOM     10  C   UNL     1      -2.736  -0.015  25.186  0.00  0.00    +0.187 C 
ATOM     11  C   UNL     1      -3.555   0.070  25.158  0.00  0.00    +0.215 C 
ATOM     12  C   UNL     1      -3.996   0.735  24.946  0.00  0.00    +0.139 C 
ENDROOT
BRANCH   2   3
ATOM      3  C   UNL     1      -4.099   2.791  24.288  0.00  0.00    +0.077 C 
ATOM      4  C   UNL     1      -3.937   3.578  24.468  0.00  0.00    +0.010 C 
ATOM      5  C   UNL     1      -3.895   3.317  23.687  0.00  0.00    +0.010 C 
ENDBRANCH   2   3
BRANCH  11  13
ATOM     13  O   UNL     1      -3.993  -0.596  25.372  0.00  0.00    -0.473 OA
BRANCH  13  14
ATOM     14  C   UNL     1      -3.900  -1.302  24.955  0.00  0.00    +0.158 A 
ATOM     15  C   UNL     1      -4.259  -1.394  24.216  0.00  0.00    +0.040 A 
ATOM     16  C   UNL     1      -4.166  -2.099  23.799  0.00  0.00    +0.024 A 
ATOM     17  C   UNL     1      -3.716  -2.713  24.118  0.00  0.00    +0.099 A 
ATOM     18  N   UNL     1      -3.358  -2.619  24.857  0.00  0.00    -0.239 NA
ATOM     19  C   UNL     1      -3.450  -1.914  25.275  0.00  0.00    +0.136 A 
ENDBRANCH  13  14
ENDBRANCH  11  13
TORSDOF 3
ENDMDL
MODEL 3
REMARK VINA RESULT:      -8.7      1.424      2.191
REMARK  Name = 
REMARK  3 active torsions:
REMARK  status: ('A' for Active; 'I' for Inactive)
REMARK    1  A    between atoms: C_2  and  C_3
REMARK    2  A    between atoms: C_11  and  O_13
REMARK    3  A    between atoms: O_13  and  C_14
REMARK                            x       y       z     vdW  Elec       q    Type
REMARK                         _______ _______ _______ _____ _____    ______ ____
ROOT
ATOM      1  O   UNL     1      -2.346  -0.192  24.249  0.00  0.00    -0.275 OA
ATOM      2  C   UNL     1      -3.123  -0.232  24.521  0.00  0.00    +0.225 C 
ATOM      6  N   UNL     1      -3.571   0.457  24.591  0.00  0.00    -0.273 N 
ATOM      7  C   UNL     1      -4.342   0.356  24.868  0.00  0.00    +0.126 C 
ATOM      8  C   UNL     1      -4.921   0.929  24.997  0.00  0.00    +0.164 C 
ATOM      9  O   UNL     1      -4.873   1.745  24.881  0.00  0.00    -0.348 OA
ATOM     10  C   UNL     1      -4.233   2.188  24.607  0.00  0.00    +0.187 C 
ATOM     11  C   UNL     1      -3.485   1.926  24.382  0.00  0.00    +0.215 C 
ATOM     12  C   UNL     1      -3.190   1.156  24.375  0.00  0.00    +0.139 C 
ENDROOT
BRANCH   2   3
ATOM      3  C   UNL     1      -3.453  -0.961  24.723  0.00  0.00    +0.077 C 
ATOM      4  C   UNL     1      -3.881  -1.633  24.514  0.00  0.00    +0.010 C 
ATOM      5  C   UNL     1      -3.594  -1.550  25.283  0.00  0.00    +0.010 C 
ENDBRANCH   2   3
BRANCH  11  13
ATOM     13  O   UNL     1      -2.960   2.512  24.130  0.00  0.00    -0.473 OA
BRANCH  13  14
ATOM     14  C   UNL     1      -2.672   3.067  24.669  0.00  0.00    +0.158 A 
ATOM     15  C   UNL     1      -1.977   2.913  25.086  0.00  0.00    +0.040 A 
ATOM     16  C   UNL     1      -1.689   3.468  25.624  0.00  0.00    +0.024 A 
ATOM     17  C   UNL     1      -2.095   4.175  25.746  0.00  0.00    +0.099 A 
ATOM     18  N   UNL     1      -2.791   4.328  25.328  0.00  0.00    -0.239 NA
ATOM     19  C   UNL     1      -3.079   3.774  24.790  0.00  0.00    +0.136 A 
ENDBRANCH  13  14
ENDBRANCH  11  13
TORSDOF 3
ENDMDL
MODEL 4
REMARK VINA RESULT:      -8.7      1.390      4.094
REMARK  Name = 
REMARK  3 active torsions:
REMARK  status: ('A' for Active; 'I' for Inactive)
REMARK    1  A    between atoms: C_2  and  C_3
REMARK    2  A    between atoms: C_11  and  O_13
REMARK    3  A    between atoms: O_13  and  C_14
REMARK                            x       y       z     vdW  Elec       q    Type
REMARK                         _______ _______ _______ _____ _____    ______ ____
ROOT
ATOM      1  O   UNL     1      -1.419   2.476  25.189  0.00  0.00    -0.275 OA
ATOM      2  C   UNL     1      -2.159   2.841  25.195  0.00  0.00    +0.225 C 
ATOM      6  N   UNL     1      -2.820   2.435  24.916  0.00  0.00    -0.273 N 
ATOM      7  C   UNL     1      -3.533   2.850  24.946  0.00  0.00    +0.126 C 
ATOM      8  C   UNL     1      -4.284   2.601  24.712  0.00  0.00    +0.164 C 
ATOM      9  O   UNL     1      -4.507   1.875  24.389  0.00  0.00    -0.348 OA
ATOM     10  C   UNL     1      -4.035   1.220  24.221  0.00  0.00    +0.187 C 
ATOM     11  C   UNL     1      -3.224   1.129  24.335  0.00  0.00    +0.215 C 
ATOM     12  C   UNL     1      -2.683   1.670  24.644  0.00  0.00    +0.139 C 
ENDROOT
BRANCH   2   3
ATOM      3  C   UNL     1      -2.236   3.612  25.480  0.00  0.00    +0.077 C 
ATOM      4  C   UNL     1      -2.117   4.422  25.388  0.00  0.00    +0.010 C 
ATOM      5  C   UNL     1      -2.491   4.134  26.065  0.00  0.00    +0.010 C 
ENDBRANCH   2   3
BRANCH  11  13
ATOM     13  O   UNL     1      -2.910   0.399  24.109  0.00  0.00    -0.473 OA
BRANCH  13  14
ATOM     14  C   UNL     1      -3.152  -0.290  24.491  0.00  0.00    +0.158 A 
ATOM     15  C   UNL     1      -3.729  -0.771  24.148  0.00  0.00    +0.040 A 
ATOM     16  C   UNL     1      -3.972  -1.460  24.530  0.00  0.00    +0.024 A 
ATOM     17  C   UNL     1      -3.639  -1.670  25.255  0.00  0.00    +0.099 A 
ATOM     18  N   UNL     1      -3.062  -1.189  25.598  0.00  0.00    -0.239 NA
ATOM     19  C   UNL     1      -2.819  -0.499  25.216  0.00  0.00    +0.136 A 
ENDBRANCH  13  14
ENDBRANCH  11  13
TORSDOF 3
ENDMDL
MODEL 5
REMARK VINA RESULT:      -8.5      2.438      2.937
REMARK  Name = 
REMARK  3 active torsions:
REMARK  status: ('A' for Active; 'I' for Inactive)
REMARK    1  A    between atoms: C_2  and  C_3
REMARK    2  A    between atoms: C_11  and  O_13
REMARK    3  A    between atoms: O_13  and  C_14
REMARK                            x       y       z     vdW  Elec       q    Type
REMARK                         _______ _______ _______ _____ _____    ______ ____
ROOT
ATOM      1  O   UNL     1      -3.596  -0.653  25.558  0.00  0.00    -0.275 OA
ATOM      2  C   UNL     1      -3.109  -1.174  25.143  0.00  0.00    +0.225 C 
ATOM      6  N   UNL     1      -2.309  -0.998  25.043  0.00  0.00    -0.273 N 
ATOM      7  C   UNL     1      -1.871  -1.555  24.619  0.00  0.00    +0.126 C 
ATOM      8  C   UNL     1      -1.069  -1.540  24.428  0.00  0.00    +0.164 C 
ATOM      9  O   UNL     1      -0.506  -0.965  24.612  0.00  0.00    -0.348 OA
ATOM     10  C   UNL     1      -0.608  -0.263  25.033  0.00  0.00    +0.187 C 
ATOM     11  C   UNL     1      -1.295   0.037  25.373  0.00  0.00    +0.215 C 
ATOM     12  C   UNL     1      -2.053  -0.290  25.378  0.00  0.00    +0.139 C 
ENDROOT
BRANCH   2   3
ATOM      3  C   UNL     1      -3.421  -1.869  24.828  0.00  0.00    +0.077 C 
ATOM      4  C   UNL     1      -3.546  -2.683  24.879  0.00  0.00    +0.010 C 
ATOM      5  C   UNL     1      -3.837  -2.260  24.233  0.00  0.00    +0.010 C 
ENDBRANCH   2   3
BRANCH  11  13
ATOM     13  O   UNL     1      -1.216   0.762  25.762  0.00  0.00    -0.473 OA
BRANCH  13  14
ATOM     14  C   UNL     1      -1.034   1.442  25.334  0.00  0.00    +0.158 A 
ATOM     15  C   UNL     1      -1.640   1.898  25.007  0.00  0.00    +0.040 A 
ATOM     16  C   UNL     1      -1.458   2.578  24.578  0.00  0.00    +0.024 A 
ATOM     17  C   UNL     1      -0.671   2.804  24.475  0.00  0.00    +0.099 A 
ATOM     18  N   UNL     1      -0.066   2.348  24.802  0.00  0.00    -0.239 NA
ATOM     19  C   UNL     1      -0.247   1.667  25.231  0.00  0.00    +0.136 A 
ENDBRANCH  13  14
ENDBRANCH  11  13
TORSDOF 3
ENDMDL
