REMARK  Name = 
REMARK  3 active torsions:
REMARK  status: ('A' for Active; 'I' for Inactive)
REMARK    1  A    between atoms: C_7  and  N_10
REMARK    2  A    between atoms: C_13  and  C_15
REMARK    3  A    between atoms: C_18  and  C_20
REMARK                            x       y       z     vdW  Elec       q    Type
REMARK                         _______ _______ _______ _____ _____    ______ ____
ROOT
ATOM     10  N   UNL     1       2.024  -3.041   0.000  0.00  0.00    -0.273 NA
ATOM     11  C   UNL     1       2.692  -3.525   0.000  0.00  0.00    +0.073 C 
ATOM     12  C   UNL     1       2.437  -4.310   0.000  0.00  0.00    +0.028 C 
ATOM     13  C   UNL     1       1.612  -4.310   0.000  0.00  0.00    +0.096 C 
ATOM     14  C   UNL     1       1.357  -3.525   0.000  0.00  0.00    +0.081 C 
ENDROOT
BRANCH  10   7
ATOM      1  C   UNL     1       1.310   0.672   0.000  0.00  0.00    +0.095 C 
ATOM      2  C   UNL     1       2.024   0.260   0.000  0.00  0.00    +0.226 C 
ATOM      3  O   UNL     1       2.739   0.672   0.000  0.00  0.00    -0.275 OA
ATOM      4  N   UNL     1       2.024  -0.566   0.000  0.00  0.00    -0.279 N 
ATOM      5  C   UNL     1       2.739  -0.978   0.000  0.00  0.00    +0.095 C 
ATOM      6  C   UNL     1       2.739  -1.803   0.000  0.00  0.00    +0.038 C 
ATOM      7  C   UNL     1       2.024  -2.216   0.000  0.00  0.00    +0.061 C 
ATOM      8  C   UNL     1       1.310  -1.803   0.000  0.00  0.00    +0.038 C 
ATOM      9  C   UNL     1       1.310  -0.978   0.000  0.00  0.00    +0.095 C 
ENDBRANCH  10   7
BRANCH  13  15
ATOM     15  C   UNL     1       1.127  -4.977   0.000  0.00  0.00    +0.227 A 
ATOM     16  N   UNL     1       1.382  -5.762   0.000  0.00  0.00    -0.111 NA
ATOM     17  N   UNL     1       0.715  -6.247   0.000  0.00  0.00    -0.107 NA
ATOM     18  C   UNL     1       0.047  -5.762   0.000  0.00  0.00    +0.250 A 
ATOM     19  O   UNL     1       0.302  -4.977   0.000  0.00  0.00    -0.419 OA
BRANCH  18  20
ATOM     20  C   UNL     1      -0.738  -6.017   0.000  0.00  0.00    +0.055 A 
ATOM     21  C   UNL     1      -0.909  -6.824   0.000  0.00  0.00    +0.005 A 
ATOM     22  C   UNL     1      -1.694  -7.079   0.000  0.00  0.00    +0.000 A 
ATOM     23  C   UNL     1      -2.307  -6.527   0.000  0.00  0.00    +0.000 A 
ATOM     24  C   UNL     1      -2.135  -5.720   0.000  0.00  0.00    +0.000 A 
ATOM     25  C   UNL     1      -1.351  -5.465   0.000  0.00  0.00    +0.005 A 
ENDBRANCH  18  20
ENDBRANCH  13  15
TORSDOF 3
