REMARK  Name = 
REMARK  9 active torsions:
REMARK  status: ('A' for Active; 'I' for Inactive)
REMARK    1  A    between atoms: S_2  and  C_3
REMARK    2  A    between atoms: C_3  and  C_4
REMARK    3  A    between atoms: C_8  and  N_24
REMARK    4  A    between atoms: C_10  and  C_11
REMARK    5  A    between atoms: N_13  and  C_14
REMARK    6  A    between atoms: C_14  and  C_15
REMARK    7  A    between atoms: C_14  and  C_21
REMARK    8  A    between atoms: C_15  and  C_16
REMARK    9  A    between atoms: N_27  and  C_28
REMARK                            x       y       z     vdW  Elec       q    Type
REMARK                         _______ _______ _______ _____ _____    ______ ____
ROOT
ATOM      4  C   UNL     1      -5.118  -3.387   0.000  0.00  0.00    +0.237 C 
ATOM      5  O   UNL     1      -5.902  -3.642   0.000  0.00  0.00    -0.274 OA
ATOM      6  N   UNL     1      -4.946  -2.580   0.000  0.00  0.00    -0.270 N 
ATOM      7  C   UNL     1      -5.498  -1.967   0.000  0.00  0.00    +0.116 C 
ATOM      8  C   UNL     1      -5.086  -1.252   0.000  0.00  0.00    +0.119 C 
ATOM      9  C   UNL     1      -4.279  -1.424   0.000  0.00  0.00    +0.053 C 
ATOM     10  C   UNL     1      -4.193  -2.244   0.000  0.00  0.00    +0.155 C 
ENDROOT
BRANCH   8  24
ATOM     24  N   UNL     1      -5.421  -0.499   0.000  0.00  0.00    -0.187 NA
ATOM     25  C   UNL     1      -4.936   0.169   0.000  0.00  0.00    +0.344 C 
ATOM     26  O   UNL     1      -4.116   0.083   0.000  0.00  0.00    -0.249 OA
ATOM     27  N   UNL     1      -5.272   0.922   0.000  0.00  0.00    -0.159 NA
BRANCH  27  28
ATOM     28  C   UNL     1      -6.093   1.009   0.000  0.00  0.00    +0.102 A 
ATOM     29  C   UNL     1      -6.577   0.341   0.000  0.00  0.00    +0.158 A 
ATOM     30  F   UNL     1      -6.242  -0.412   0.000  0.00  0.00    -0.203 F 
ATOM     31  C   UNL     1      -7.398   0.427   0.000  0.00  0.00    +0.061 A 
ATOM     32  C   UNL     1      -7.734   1.181   0.000  0.00  0.00    +0.142 A 
ATOM     33  F   UNL     1      -8.554   1.267   0.000  0.00  0.00    -0.204 F 
ATOM     34  C   UNL     1      -7.249   1.849   0.000  0.00  0.00    +0.031 A 
ATOM     35  C   UNL     1      -6.428   1.762   0.000  0.00  0.00    +0.021 A 
ENDBRANCH  27  28
ENDBRANCH   8  24
BRANCH  10  11
ATOM     11  C   UNL     1      -3.478  -2.657   0.000  0.00  0.00    +0.260 C 
ATOM     12  O   UNL     1      -2.764  -2.244   0.000  0.00  0.00    -0.272 OA
ATOM     13  N   UNL     1      -3.478  -3.482   0.000  0.00  0.00    -0.196 NA
BRANCH  13  14
ATOM     14  C   UNL     1      -2.764  -3.894   0.000  0.00  0.00    +0.179 C 
BRANCH  14  21
ATOM     21  C   UNL     1      -2.049  -3.482   0.000  0.00  0.00    +0.281 C 
ATOM     22  N   UNL     1      -2.049  -2.657   0.000  0.00  0.00    -0.086 NA
ATOM     23  O   UNL     1      -1.335  -3.894   0.000  0.00  0.00    -0.270 OA
ENDBRANCH  14  21
BRANCH  14  15
ATOM     15  C   UNL     1      -2.764  -4.719   0.000  0.00  0.00    +0.064 C 
BRANCH  15  16
ATOM     16  C   UNL     1      -2.049  -5.132   0.000  0.00  0.00    +0.010 A 
ATOM     17  C   UNL     1      -1.296  -4.796   0.000  0.00  0.00    +0.003 A 
ATOM     18  C   UNL     1      -0.744  -5.410   0.000  0.00  0.00    +0.007 A 
ATOM     19  C   UNL     1      -1.156  -6.124   0.000  0.00  0.00    +0.035 A 
ATOM     20  S   UNL     1      -1.963  -5.952   0.000  0.00  0.00    -0.091 S 
ENDBRANCH  15  16
ENDBRANCH  14  15
ENDBRANCH  13  14
ENDBRANCH  10  11
BRANCH   4   3
ATOM      3  C   UNL     1      -4.505  -3.939   0.000  0.00  0.00    +0.143 C 
BRANCH   3   2
ATOM      1  C   UNL     1      -4.063  -5.298   0.000  0.00  0.00    +0.070 C 
ATOM      2  S   UNL     1      -4.676  -4.746   0.000  0.00  0.00    -0.130 S 
ENDBRANCH   3   2
ENDBRANCH   4   3
TORSDOF 9
