MODEL 1
REMARK VINA RESULT:     -11.5      0.000      0.000
REMARK  Name = 
REMARK  4 active torsions:
REMARK  status: ('A' for Active; 'I' for Inactive)
REMARK    1  A    between atoms: C_2  and  N_3
REMARK    2  A    between atoms: C_12  and  N_14
REMARK    3  A    between atoms: C_15  and  C_17
REMARK    4  A    between atoms: C_20  and  O_21
REMARK                            x       y       z     vdW  Elec       q    Type
REMARK                         _______ _______ _______ _____ _____    ______ ____
ROOT
ATOM      3  N   UNL     1      -2.352   4.031  25.117  0.00  0.00    -0.188 NA
ATOM      4  C   UNL     1      -2.564   3.233  25.138  0.00  0.00    +0.323 C 
ATOM      5  O   UNL     1      -1.980   2.653  25.192  0.00  0.00    -0.251 OA
ATOM      6  N   UNL     1      -3.359   3.017  25.105  0.00  0.00    -0.261 N 
ATOM      7  C   UNL     1      -3.898   3.640  25.051  0.00  0.00    +0.095 C 
ATOM      8  C   UNL     1      -4.721   3.606  25.009  0.00  0.00    +0.024 C 
ATOM      9  C   UNL     1      -5.209   2.941  25.010  0.00  0.00    +0.037 C 
ATOM     10  C   UNL     1      -4.995   2.145  25.054  0.00  0.00    +0.174 C 
ATOM     11  O   UNL     1      -5.618   1.605  25.043  0.00  0.00    -0.221 OA
ATOM     12  C   UNL     1      -4.238   1.818  25.107  0.00  0.00    +0.146 C 
ATOM     13  C   UNL     1      -3.511   2.206  25.130  0.00  0.00    +0.119 C 
ENDROOT
BRANCH  12  14
ATOM     14  N   UNL     1      -4.206   0.994  25.142  0.00  0.00    -0.199 NA
ATOM     15  C   UNL     1      -3.927   0.565  24.495  0.00  0.00    +0.265 C 
ATOM     16  O   UNL     1      -3.681   0.958  23.814  0.00  0.00    -0.268 OA
BRANCH  15  17
ATOM     17  C   UNL     1      -3.895  -0.259  24.531  0.00  0.00    +0.055 A 
ATOM     18  C   UNL     1      -3.587  -0.631  25.199  0.00  0.00    +0.008 A 
ATOM     19  C   UNL     1      -3.555  -1.454  25.234  0.00  0.00    +0.037 A 
ATOM     20  C   UNL     1      -3.830  -1.906  24.601  0.00  0.00    +0.139 A 
ATOM     23  C   UNL     1      -4.139  -1.533  23.932  0.00  0.00    +0.037 A 
ATOM     24  C   UNL     1      -4.171  -0.709  23.897  0.00  0.00    +0.008 A 
BRANCH  20  21
ATOM     21  O   UNL     1      -3.798  -2.730  24.636  0.00  0.00    -0.471 OA
ATOM     22  C   UNL     1      -3.076  -3.117  24.553  0.00  0.00    +0.252 C 
ENDBRANCH  20  21
ENDBRANCH  15  17
ENDBRANCH  12  14
BRANCH   3   2
ATOM      1  C   UNL     1      -1.346   5.045  25.131  0.00  0.00    +0.025 C 
ATOM      2  C   UNL     1      -1.557   4.247  25.150  0.00  0.00    +0.117 C 
ENDBRANCH   3   2
TORSDOF 4
ENDMDL
MODEL 2
REMARK VINA RESULT:      -9.8      2.562      4.280
REMARK  Name = 
REMARK  4 active torsions:
REMARK  status: ('A' for Active; 'I' for Inactive)
REMARK    1  A    between atoms: C_2  and  N_3
REMARK    2  A    between atoms: C_12  and  N_14
REMARK    3  A    between atoms: C_15  and  C_17
REMARK    4  A    between atoms: C_20  and  O_21
REMARK                            x       y       z     vdW  Elec       q    Type
REMARK                         _______ _______ _______ _____ _____    ______ ____
ROOT
ATOM      3  N   UNL     1       0.339  -0.226  23.558  0.00  0.00    -0.188 NA
ATOM      4  C   UNL     1      -0.351   0.142  23.825  0.00  0.00    +0.323 C 
ATOM      5  O   UNL     1      -0.512   0.921  23.610  0.00  0.00    -0.251 OA
ATOM      6  N   UNL     1      -0.877  -0.271  24.306  0.00  0.00    -0.261 N 
ATOM      7  C   UNL     1      -0.664  -1.047  24.489  0.00  0.00    +0.095 C 
ATOM      8  C   UNL     1      -1.068  -1.597  24.952  0.00  0.00    +0.024 C 
ATOM      9  C   UNL     1      -1.787  -1.507  25.347  0.00  0.00    +0.037 C 
ATOM     10  C   UNL     1      -2.279  -0.845  25.378  0.00  0.00    +0.174 C 
ATOM     11  O   UNL     1      -2.966  -0.929  25.825  0.00  0.00    -0.221 OA
ATOM     12  C   UNL     1      -2.172  -0.108  25.019  0.00  0.00    +0.146 C 
ATOM     13  C   UNL     1      -1.549   0.146  24.543  0.00  0.00    +0.119 C 
ENDROOT
BRANCH  12  14
ATOM     14  N   UNL     1      -2.769   0.445  25.156  0.00  0.00    -0.199 NA
ATOM     15  C   UNL     1      -3.311   0.622  24.559  0.00  0.00    +0.265 C 
ATOM     16  O   UNL     1      -3.258   0.245  23.828  0.00  0.00    -0.268 OA
BRANCH  15  17
ATOM     17  C   UNL     1      -3.907   1.176  24.696  0.00  0.00    +0.055 A 
ATOM     18  C   UNL     1      -4.667   0.923  24.894  0.00  0.00    +0.008 A 
ATOM     19  C   UNL     1      -5.263   1.477  25.030  0.00  0.00    +0.037 A 
ATOM     20  C   UNL     1      -5.100   2.283  24.969  0.00  0.00    +0.139 A 
ATOM     23  C   UNL     1      -4.339   2.536  24.770  0.00  0.00    +0.037 A 
ATOM     24  C   UNL     1      -3.743   1.982  24.634  0.00  0.00    +0.008 A 
BRANCH  20  21
ATOM     21  O   UNL     1      -5.696   2.837  25.105  0.00  0.00    -0.471 OA
ATOM     22  C   UNL     1      -5.584   3.434  25.662  0.00  0.00    +0.252 C 
ENDBRANCH  20  21
ENDBRANCH  15  17
ENDBRANCH  12  14
BRANCH   3   2
ATOM      1  C   UNL     1       1.496  -0.209  22.721  0.00  0.00    +0.025 C 
ATOM      2  C   UNL     1       0.865   0.187  23.076  0.00  0.00    +0.117 C 
ENDBRANCH   3   2
TORSDOF 4
ENDMDL
MODEL 3
REMARK VINA RESULT:      -9.8      1.906      2.736
REMARK  Name = 
REMARK  4 active torsions:
REMARK  status: ('A' for Active; 'I' for Inactive)
REMARK    1  A    between atoms: C_2  and  N_3
REMARK    2  A    between atoms: C_12  and  N_14
REMARK    3  A    between atoms: C_15  and  C_17
REMARK    4  A    between atoms: C_20  and  O_21
REMARK                            x       y       z     vdW  Elec       q    Type
REMARK                         _______ _______ _______ _____ _____    ______ ____
ROOT
ATOM      3  N   UNL     1      -1.246   3.927  24.978  0.00  0.00    -0.188 NA
ATOM      4  C   UNL     1      -1.605   3.208  24.793  0.00  0.00    +0.323 C 
ATOM      5  O   UNL     1      -2.427   3.146  24.792  0.00  0.00    -0.251 OA
ATOM      6  N   UNL     1      -1.142   2.551  24.608  0.00  0.00    -0.261 N 
ATOM      7  C   UNL     1      -0.325   2.672  24.625  0.00  0.00    +0.095 C 
ATOM      8  C   UNL     1       0.278   2.132  24.469  0.00  0.00    +0.024 C 
ATOM      9  C   UNL     1       0.215   1.337  24.258  0.00  0.00    +0.037 C 
ATOM     10  C   UNL     1      -0.467   0.885  24.150  0.00  0.00    +0.174 C 
ATOM     11  O   UNL     1      -0.345   0.098  23.938  0.00  0.00    -0.221 OA
ATOM     12  C   UNL     1      -1.255   1.118  24.228  0.00  0.00    +0.146 C 
ATOM     13  C   UNL     1      -1.555   1.859  24.432  0.00  0.00    +0.119 C 
ENDROOT
BRANCH  12  14
ATOM     14  N   UNL     1      -1.817   0.532  24.083  0.00  0.00    -0.199 NA
ATOM     15  C   UNL     1      -2.250   0.211  24.708  0.00  0.00    +0.265 C 
ATOM     16  O   UNL     1      -2.120   0.476  25.478  0.00  0.00    -0.268 OA
BRANCH  15  17
ATOM     17  C   UNL     1      -2.812  -0.375  24.563  0.00  0.00    +0.055 A 
ATOM     18  C   UNL     1      -3.479  -0.203  24.110  0.00  0.00    +0.008 A 
ATOM     19  C   UNL     1      -4.041  -0.789  23.965  0.00  0.00    +0.037 A 
ATOM     20  C   UNL     1      -3.936  -1.547  24.272  0.00  0.00    +0.139 A 
ATOM     23  C   UNL     1      -3.267  -1.719  24.725  0.00  0.00    +0.037 A 
ATOM     24  C   UNL     1      -2.705  -1.133  24.870  0.00  0.00    +0.008 A 
BRANCH  20  21
ATOM     21  O   UNL     1      -4.498  -2.134  24.126  0.00  0.00    -0.471 OA
ATOM     22  C   UNL     1      -4.268  -2.851  23.792  0.00  0.00    +0.252 C 
ENDBRANCH  20  21
ENDBRANCH  15  17
ENDBRANCH  12  14
BRANCH   3   2
ATOM      1  C   UNL     1      -1.382   5.341  25.133  0.00  0.00    +0.025 C 
ATOM      2  C   UNL     1      -1.709   4.584  25.162  0.00  0.00    +0.117 C 
ENDBRANCH   3   2
TORSDOF 4
ENDMDL
MODEL 4
REMARK VINA RESULT:      -9.4      2.218      5.519
REMARK  Name = 
REMARK  4 active torsions:
REMARK  status: ('A' for Active; 'I' for Inactive)
REMARK    1  A    between atoms: C_2  and  N_3
REMARK    2  A    between atoms: C_12  and  N_14
REMARK    3  A    between atoms: C_15  and  C_17
REMARK    4  A    between atoms: C_20  and  O_21
REMARK                            x       y       z     vdW  Elec       q    Type
REMARK                         _______ _______ _______ _____ _____    ______ ____
ROOT
ATOM      3  N   UNL     1      -2.610  -1.794  24.842  0.00  0.00    -0.188 NA
ATOM      4  C   UNL     1      -2.497  -0.976  24.820  0.00  0.00    +0.323 C 
ATOM      5  O   UNL     1      -3.117  -0.469  25.013  0.00  0.00    -0.251 OA
ATOM      6  N   UNL     1      -1.763  -0.668  24.605  0.00  0.00    -0.261 N 
ATOM      7  C   UNL     1      -1.180  -1.223  24.423  0.00  0.00    +0.095 C 
ATOM      8  C   UNL     1      -0.399  -1.093  24.191  0.00  0.00    +0.024 C 
ATOM      9  C   UNL     1      -0.008  -0.374  24.084  0.00  0.00    +0.037 C 
ATOM     10  C   UNL     1      -0.300   0.391  24.183  0.00  0.00    +0.174 C 
ATOM     11  O   UNL     1       0.234   1.001  24.032  0.00  0.00    -0.221 OA
ATOM     12  C   UNL     1      -1.057   0.627  24.413  0.00  0.00    +0.146 C 
ATOM     13  C   UNL     1      -1.708   0.156  24.600  0.00  0.00    +0.119 C 
ENDROOT
BRANCH  12  14
ATOM     14  N   UNL     1      -1.180   1.441  24.461  0.00  0.00    -0.199 NA
ATOM     15  C   UNL     1      -1.192   1.813  25.197  0.00  0.00    +0.265 C 
ATOM     16  O   UNL     1      -1.082   1.372  25.885  0.00  0.00    -0.268 OA
BRANCH  15  17
ATOM     17  C   UNL     1      -1.314   2.628  25.246  0.00  0.00    +0.055 A 
ATOM     18  C   UNL     1      -0.669   3.140  25.271  0.00  0.00    +0.008 A 
ATOM     19  C   UNL     1      -0.791   3.955  25.319  0.00  0.00    +0.037 A 
ATOM     20  C   UNL     1      -1.558   4.257  25.342  0.00  0.00    +0.139 A 
ATOM     23  C   UNL     1      -2.204   3.743  25.317  0.00  0.00    +0.037 A 
ATOM     24  C   UNL     1      -2.082   2.929  25.268  0.00  0.00    +0.008 A 
BRANCH  20  21
ATOM     21  O   UNL     1      -1.680   5.071  25.390  0.00  0.00    -0.471 OA
ATOM     22  C   UNL     1      -1.241   5.582  24.915  0.00  0.00    +0.252 C 
ENDBRANCH  20  21
ENDBRANCH  15  17
ENDBRANCH  12  14
BRANCH   3   2
ATOM      1  C   UNL     1      -3.539  -2.879  24.857  0.00  0.00    +0.025 C 
ATOM      2  C   UNL     1      -3.344  -2.102  25.057  0.00  0.00    +0.117 C 
ENDBRANCH   3   2
TORSDOF 4
ENDMDL
MODEL 5
REMARK VINA RESULT:      -9.3      1.139      4.754
REMARK  Name = 
REMARK  4 active torsions:
REMARK  status: ('A' for Active; 'I' for Inactive)
REMARK    1  A    between atoms: C_2  and  N_3
REMARK    2  A    between atoms: C_12  and  N_14
REMARK    3  A    between atoms: C_15  and  C_17
REMARK    4  A    between atoms: C_20  and  O_21
REMARK                            x       y       z     vdW  Elec       q    Type
REMARK                         _______ _______ _______ _____ _____    ______ ____
ROOT
ATOM      3  N   UNL     1      -4.264  -0.679  24.274  0.00  0.00    -0.188 NA
ATOM      4  C   UNL     1      -3.871   0.047  24.294  0.00  0.00    +0.323 C 
ATOM      5  O   UNL     1      -3.086   0.097  24.049  0.00  0.00    -0.251 OA
ATOM      6  N   UNL     1      -4.265   0.721  24.559  0.00  0.00    -0.261 N 
ATOM      7  C   UNL     1      -5.049   0.610  24.792  0.00  0.00    +0.095 C 
ATOM      8  C   UNL     1      -5.584   1.169  25.079  0.00  0.00    +0.024 C 
ATOM      9  C   UNL     1      -5.468   1.975  25.206  0.00  0.00    +0.037 C 
ATOM     10  C   UNL     1      -4.787   2.424  25.075  0.00  0.00    +0.174 C 
ATOM     11  O   UNL     1      -4.847   3.226  25.258  0.00  0.00    -0.221 OA
ATOM     12  C   UNL     1      -4.055   2.175  24.787  0.00  0.00    +0.146 C 
ATOM     13  C   UNL     1      -3.823   1.418  24.557  0.00  0.00    +0.119 C 
ENDROOT
BRANCH  12  14
ATOM     14  N   UNL     1      -3.479   2.762  24.719  0.00  0.00    -0.199 NA
ATOM     15  C   UNL     1      -2.829   2.762  25.227  0.00  0.00    +0.265 C 
ATOM     16  O   UNL     1      -2.754   2.177  25.802  0.00  0.00    -0.268 OA
BRANCH  15  17
ATOM     17  C   UNL     1      -2.253   3.349  25.159  0.00  0.00    +0.055 A 
ATOM     18  C   UNL     1      -2.386   4.096  25.482  0.00  0.00    +0.008 A 
ATOM     19  C   UNL     1      -1.810   4.683  25.414  0.00  0.00    +0.037 A 
ATOM     20  C   UNL     1      -1.101   4.523  25.023  0.00  0.00    +0.139 A 
ATOM     23  C   UNL     1      -0.969   3.775  24.700  0.00  0.00    +0.037 A 
ATOM     24  C   UNL     1      -1.544   3.188  24.767  0.00  0.00    +0.008 A 
BRANCH  20  21
ATOM     21  O   UNL     1      -0.525   5.110  24.955  0.00  0.00    -0.471 OA
ATOM     22  C   UNL     1      -0.724   5.848  24.646  0.00  0.00    +0.252 C 
ENDBRANCH  20  21
ENDBRANCH  15  17
ENDBRANCH  12  14
BRANCH   3   2
ATOM      1  C   UNL     1      -4.277  -2.069  23.943  0.00  0.00    +0.025 C 
ATOM      2  C   UNL     1      -3.871  -1.353  24.009  0.00  0.00    +0.117 C 
ENDBRANCH   3   2
TORSDOF 4
ENDMDL
MODEL 6
REMARK VINA RESULT:      -9.3      2.482      4.009
REMARK  Name = 
REMARK  4 active torsions:
REMARK  status: ('A' for Active; 'I' for Inactive)
REMARK    1  A    between atoms: C_2  and  N_3
REMARK    2  A    between atoms: C_12  and  N_14
REMARK    3  A    between atoms: C_15  and  C_17
REMARK    4  A    between atoms: C_20  and  O_21
REMARK                            x       y       z     vdW  Elec       q    Type
REMARK                         _______ _______ _______ _____ _____    ______ ____
ROOT
ATOM      3  N   UNL     1       0.491   0.587  23.666  0.00  0.00    -0.188 NA
ATOM      4  C   UNL     1      -0.284   0.729  23.913  0.00  0.00    +0.323 C 
ATOM      5  O   UNL     1      -0.893   0.232  23.665  0.00  0.00    -0.251 OA
ATOM      6  N   UNL     1      -0.448   1.369  24.407  0.00  0.00    -0.261 N 
ATOM      7  C   UNL     1       0.201   1.831  24.622  0.00  0.00    +0.095 C 
ATOM      8  C   UNL     1       0.218   2.500  25.105  0.00  0.00    +0.024 C 
ATOM      9  C   UNL     1      -0.408   2.872  25.491  0.00  0.00    +0.037 C 
ATOM     10  C   UNL     1      -1.208   2.668  25.491  0.00  0.00    +0.174 C 
ATOM     11  O   UNL     1      -1.702   3.155  25.936  0.00  0.00    -0.221 OA
ATOM     12  C   UNL     1      -1.578   2.039  25.103  0.00  0.00    +0.146 C 
ATOM     13  C   UNL     1      -1.240   1.462  24.621  0.00  0.00    +0.119 C 
ENDROOT
BRANCH  12  14
ATOM     14  N   UNL     1      -2.394   1.982  25.213  0.00  0.00    -0.199 NA
ATOM     15  C   UNL     1      -2.907   2.169  24.595  0.00  0.00    +0.265 C 
ATOM     16  O   UNL     1      -2.605   2.413  23.867  0.00  0.00    -0.268 OA
BRANCH  15  17
ATOM     17  C   UNL     1      -3.722   2.111  24.704  0.00  0.00    +0.055 A 
ATOM     18  C   UNL     1      -4.182   2.794  24.741  0.00  0.00    +0.008 A 
ATOM     19  C   UNL     1      -4.998   2.737  24.850  0.00  0.00    +0.037 A 
ATOM     20  C   UNL     1      -5.354   1.996  24.924  0.00  0.00    +0.139 A 
ATOM     23  C   UNL     1      -4.892   1.312  24.887  0.00  0.00    +0.037 A 
ATOM     24  C   UNL     1      -4.077   1.370  24.778  0.00  0.00    +0.008 A 
BRANCH  20  21
ATOM     21  O   UNL     1      -6.169   1.938  25.033  0.00  0.00    -0.471 OA
ATOM     22  C   UNL     1      -6.482   1.920  25.796  0.00  0.00    +0.252 C 
ENDBRANCH  20  21
ENDBRANCH  15  17
ENDBRANCH  12  14
BRANCH   3   2
ATOM      1  C   UNL     1       1.391  -0.110  22.803  0.00  0.00    +0.025 C 
ATOM      2  C   UNL     1       0.654  -0.052  23.171  0.00  0.00    +0.117 C 
ENDBRANCH   3   2
TORSDOF 4
ENDMDL
MODEL 7
REMARK VINA RESULT:      -9.2      1.131      2.125
REMARK  Name = 
REMARK  4 active torsions:
REMARK  status: ('A' for Active; 'I' for Inactive)
REMARK    1  A    between atoms: C_2  and  N_3
REMARK    2  A    between atoms: C_12  and  N_14
REMARK    3  A    between atoms: C_15  and  C_17
REMARK    4  A    between atoms: C_20  and  O_21
REMARK                            x       y       z     vdW  Elec       q    Type
REMARK                         _______ _______ _______ _____ _____    ______ ____
ROOT
ATOM      3  N   UNL     1      -4.979   3.685  25.235  0.00  0.00    -0.188 NA
ATOM      4  C   UNL     1      -4.843   2.898  25.027  0.00  0.00    +0.323 C 
ATOM      5  O   UNL     1      -5.426   2.330  25.158  0.00  0.00    -0.251 OA
ATOM      6  N   UNL     1      -4.122   2.680  24.690  0.00  0.00    -0.261 N 
ATOM      7  C   UNL     1      -3.577   3.290  24.583  0.00  0.00    +0.095 C 
ATOM      8  C   UNL     1      -2.817   3.252  24.264  0.00  0.00    +0.024 C 
ATOM      9  C   UNL     1      -2.415   2.593  23.972  0.00  0.00    +0.037 C 
ATOM     10  C   UNL     1      -2.673   1.810  23.927  0.00  0.00    +0.174 C 
ATOM     11  O   UNL     1      -2.136   1.274  23.604  0.00  0.00    -0.221 OA
ATOM     12  C   UNL     1      -3.397   1.493  24.164  0.00  0.00    +0.146 C 
ATOM     13  C   UNL     1      -4.042   1.880  24.503  0.00  0.00    +0.119 C 
ENDROOT
BRANCH  12  14
ATOM     14  N   UNL     1      -3.489   0.682  24.046  0.00  0.00    -0.199 NA
ATOM     15  C   UNL     1      -3.525   0.172  24.694  0.00  0.00    +0.265 C 
ATOM     16  O   UNL     1      -3.470   0.473  25.459  0.00  0.00    -0.268 OA
BRANCH  15  17
ATOM     17  C   UNL     1      -3.616  -0.639  24.576  0.00  0.00    +0.055 A 
ATOM     18  C   UNL     1      -3.170  -1.173  25.018  0.00  0.00    +0.008 A 
ATOM     19  C   UNL     1      -3.261  -1.984  24.900  0.00  0.00    +0.037 A 
ATOM     20  C   UNL     1      -3.798  -2.262  24.339  0.00  0.00    +0.139 A 
ATOM     23  C   UNL     1      -4.245  -1.727  23.896  0.00  0.00    +0.037 A 
ATOM     24  C   UNL     1      -4.154  -0.916  24.014  0.00  0.00    +0.008 A 
BRANCH  20  21
ATOM     21  O   UNL     1      -3.889  -3.073  24.221  0.00  0.00    -0.471 OA
ATOM     22  C   UNL     1      -3.279  -3.590  24.421  0.00  0.00    +0.252 C 
ENDBRANCH  20  21
ENDBRANCH  15  17
ENDBRANCH  12  14
BRANCH   3   2
ATOM      1  C   UNL     1      -5.910   4.700  25.614  0.00  0.00    +0.025 C 
ATOM      2  C   UNL     1      -5.699   3.903  25.572  0.00  0.00    +0.117 C 
ENDBRANCH   3   2
TORSDOF 4
ENDMDL
MODEL 8
REMARK VINA RESULT:      -8.7      2.631      3.459
REMARK  Name = 
REMARK  4 active torsions:
REMARK  status: ('A' for Active; 'I' for Inactive)
REMARK    1  A    between atoms: C_2  and  N_3
REMARK    2  A    between atoms: C_12  and  N_14
REMARK    3  A    between atoms: C_15  and  C_17
REMARK    4  A    between atoms: C_20  and  O_21
REMARK                            x       y       z     vdW  Elec       q    Type
REMARK                         _______ _______ _______ _____ _____    ______ ____
ROOT
ATOM      3  N   UNL     1      -4.744   2.685  25.177  0.00  0.00    -0.188 NA
ATOM      4  C   UNL     1      -4.064   2.334  24.867  0.00  0.00    +0.323 C 
ATOM      5  O   UNL     1      -3.422   2.802  24.649  0.00  0.00    -0.251 OA
ATOM      6  N   UNL     1      -4.028   1.515  24.776  0.00  0.00    -0.261 N 
ATOM      7  C   UNL     1      -4.701   1.098  25.011  0.00  0.00    +0.095 C 
ATOM      8  C   UNL     1      -4.836   0.285  24.991  0.00  0.00    +0.024 C 
ATOM      9  C   UNL     1      -4.331  -0.313  24.729  0.00  0.00    +0.037 C 
ATOM     10  C   UNL     1      -3.567  -0.246  24.424  0.00  0.00    +0.174 C 
ATOM     11  O   UNL     1      -3.203  -0.955  24.210  0.00  0.00    -0.221 OA
ATOM     12  C   UNL     1      -3.119   0.437  24.306  0.00  0.00    +0.146 C 
ATOM     13  C   UNL     1      -3.324   1.220  24.462  0.00  0.00    +0.119 C 
ENDROOT
BRANCH  12  14
ATOM     14  N   UNL     1      -2.366   0.321  23.988  0.00  0.00    -0.199 NA
ATOM     15  C   UNL     1      -1.701   0.382  24.472  0.00  0.00    +0.265 C 
ATOM     16  O   UNL     1      -1.788   0.559  25.273  0.00  0.00    -0.268 OA
BRANCH  15  17
ATOM     17  C   UNL     1      -0.948   0.265  24.155  0.00  0.00    +0.055 A 
ATOM     18  C   UNL     1      -0.565   0.883  23.767  0.00  0.00    +0.008 A 
ATOM     19  C   UNL     1       0.188   0.767  23.450  0.00  0.00    +0.037 A 
ATOM     20  C   UNL     1       0.557   0.033  23.520  0.00  0.00    +0.139 A 
ATOM     23  C   UNL     1       0.172  -0.586  23.909  0.00  0.00    +0.037 A 
ATOM     24  C   UNL     1      -0.580  -0.470  24.226  0.00  0.00    +0.008 A 
BRANCH  20  21
ATOM     21  O   UNL     1       1.309  -0.084  23.203  0.00  0.00    -0.471 OA
ATOM     22  C   UNL     1       1.400  -0.207  22.393  0.00  0.00    +0.252 C 
ENDBRANCH  20  21
ENDBRANCH  15  17
ENDBRANCH  12  14
BRANCH   3   2
ATOM      1  C   UNL     1      -5.446   3.852  25.610  0.00  0.00    +0.025 C 
ATOM      2  C   UNL     1      -4.780   3.504  25.268  0.00  0.00    +0.117 C 
ENDBRANCH   3   2
TORSDOF 4
ENDMDL
MODEL 9
REMARK VINA RESULT:      -8.7      2.051      3.047
REMARK  Name = 
REMARK  4 active torsions:
REMARK  status: ('A' for Active; 'I' for Inactive)
REMARK    1  A    between atoms: C_2  and  N_3
REMARK    2  A    between atoms: C_12  and  N_14
REMARK    3  A    between atoms: C_15  and  C_17
REMARK    4  A    between atoms: C_20  and  O_21
REMARK                            x       y       z     vdW  Elec       q    Type
REMARK                         _______ _______ _______ _____ _____    ______ ____
ROOT
ATOM      3  N   UNL     1      -4.366   3.846  25.398  0.00  0.00    -0.188 NA
ATOM      4  C   UNL     1      -3.848   3.204  25.431  0.00  0.00    +0.323 C 
ATOM      5  O   UNL     1      -4.144   2.438  25.503  0.00  0.00    -0.251 OA
ATOM      6  N   UNL     1      -3.034   3.330  25.392  0.00  0.00    -0.261 N 
ATOM      7  C   UNL     1      -2.796   4.117  25.320  0.00  0.00    +0.095 C 
ATOM      8  C   UNL     1      -2.030   4.420  25.269  0.00  0.00    +0.024 C 
ATOM      9  C   UNL     1      -1.314   4.012  25.276  0.00  0.00    +0.037 C 
ATOM     10  C   UNL     1      -1.185   3.199  25.337  0.00  0.00    +0.174 C 
ATOM     11  O   UNL     1      -0.395   2.960  25.329  0.00  0.00    -0.221 OA
ATOM     12  C   UNL     1      -1.742   2.594  25.406  0.00  0.00    +0.146 C 
ATOM     13  C   UNL     1      -2.564   2.652  25.430  0.00  0.00    +0.119 C 
ENDROOT
BRANCH  12  14
ATOM     14  N   UNL     1      -1.436   1.829  25.457  0.00  0.00    -0.199 NA
ATOM     15  C   UNL     1      -1.550   1.297  24.836  0.00  0.00    +0.265 C 
ATOM     16  O   UNL     1      -1.970   1.529  24.165  0.00  0.00    -0.268 OA
BRANCH  15  17
ATOM     17  C   UNL     1      -1.244   0.533  24.887  0.00  0.00    +0.055 A 
ATOM     18  C   UNL     1      -0.703   0.268  24.324  0.00  0.00    +0.008 A 
ATOM     19  C   UNL     1      -0.397  -0.497  24.375  0.00  0.00    +0.037 A 
ATOM     20  C   UNL     1      -0.631  -0.996  24.988  0.00  0.00    +0.139 A 
ATOM     23  C   UNL     1      -1.173  -0.729  25.552  0.00  0.00    +0.037 A 
ATOM     24  C   UNL     1      -1.479   0.035  25.501  0.00  0.00    +0.008 A 
BRANCH  20  21
ATOM     21  O   UNL     1      -0.325  -1.760  25.039  0.00  0.00    -0.471 OA
ATOM     22  C   UNL     1      -0.827  -2.410  24.970  0.00  0.00    +0.252 C 
ENDBRANCH  20  21
ENDBRANCH  15  17
ENDBRANCH  12  14
BRANCH   3   2
ATOM      1  C   UNL     1      -5.697   4.364  25.452  0.00  0.00    +0.025 C 
ATOM      2  C   UNL     1      -5.180   3.720  25.436  0.00  0.00    +0.117 C 
ENDBRANCH   3   2
TORSDOF 4
ENDMDL
MODEL 10
REMARK VINA RESULT:      -8.5      1.628      4.944
REMARK  Name = 
REMARK  4 active torsions:
REMARK  status: ('A' for Active; 'I' for Inactive)
REMARK    1  A    between atoms: C_2  and  N_3
REMARK    2  A    between atoms: C_12  and  N_14
REMARK    3  A    between atoms: C_15  and  C_17
REMARK    4  A    between atoms: C_20  and  O_21
REMARK                            x       y       z     vdW  Elec       q    Type
REMARK                         _______ _______ _______ _____ _____    ______ ____
ROOT
ATOM      3  N   UNL     1      -2.962  -2.230  24.593  0.00  0.00    -0.188 NA
ATOM      4  C   UNL     1      -3.177  -1.447  24.742  0.00  0.00    +0.323 C 
ATOM      5  O   UNL     1      -3.971  -1.249  24.843  0.00  0.00    -0.251 OA
ATOM      6  N   UNL     1      -2.597  -0.863  24.791  0.00  0.00    -0.261 N 
ATOM      7  C   UNL     1      -1.820  -1.119  24.683  0.00  0.00    +0.095 C 
ATOM      8  C   UNL     1      -1.125  -0.675  24.699  0.00  0.00    +0.024 C 
ATOM      9  C   UNL     1      -1.035   0.135  24.827  0.00  0.00    +0.037 C 
ATOM     10  C   UNL     1      -1.617   0.702  24.971  0.00  0.00    +0.174 C 
ATOM     11  O   UNL     1      -1.347   1.474  25.078  0.00  0.00    -0.221 OA
ATOM     12  C   UNL     1      -2.435   0.597  25.023  0.00  0.00    +0.146 C 
ATOM     13  C   UNL     1      -2.870  -0.098  24.943  0.00  0.00    +0.119 C 
ENDROOT
BRANCH  12  14
ATOM     14  N   UNL     1      -2.874   1.279  25.174  0.00  0.00    -0.199 NA
ATOM     15  C   UNL     1      -3.359   1.596  24.587  0.00  0.00    +0.265 C 
ATOM     16  O   UNL     1      -3.405   1.232  23.848  0.00  0.00    -0.268 OA
BRANCH  15  17
ATOM     17  C   UNL     1      -3.798   2.278  24.738  0.00  0.00    +0.055 A 
ATOM     18  C   UNL     1      -3.534   3.008  24.460  0.00  0.00    +0.008 A 
ATOM     19  C   UNL     1      -3.973   3.690  24.611  0.00  0.00    +0.037 A 
ATOM     20  C   UNL     1      -4.676   3.642  25.041  0.00  0.00    +0.139 A 
ATOM     23  C   UNL     1      -4.939   2.910  25.319  0.00  0.00    +0.037 A 
ATOM     24  C   UNL     1      -4.500   2.229  25.168  0.00  0.00    +0.008 A 
BRANCH  20  21
ATOM     21  O   UNL     1      -5.115   4.324  25.193  0.00  0.00    -0.471 OA
ATOM     22  C   UNL     1      -5.797   4.280  25.653  0.00  0.00    +0.252 C 
ENDBRANCH  20  21
ENDBRANCH  15  17
ENDBRANCH  12  14
BRANCH   3   2
ATOM      1  C   UNL     1      -3.348  -3.564  24.260  0.00  0.00    +0.025 C 
ATOM      2  C   UNL     1      -3.542  -2.814  24.544  0.00  0.00    +0.117 C 
ENDBRANCH   3   2
TORSDOF 4
ENDMDL
