MODEL 1
REMARK VINA RESULT:     -11.6      0.000      0.000
REMARK  Name = 
REMARK  10 active torsions:
REMARK  status: ('A' for Active; 'I' for Inactive)
REMARK    1  A    between atoms: C_2  and  C_5
REMARK    2  A    between atoms: C_5  and  C_6
REMARK    3  A    between atoms: C_11  and  N_12
REMARK    4  A    between atoms: N_15  and  C_16
REMARK    5  A    between atoms: C_16  and  C_17
REMARK    6  A    between atoms: C_19  and  C_20
REMARK    7  A    between atoms: N_22  and  C_23
REMARK    8  A    between atoms: C_23  and  C_24
REMARK    9  A    between atoms: C_23  and  C_34
REMARK   10  A    between atoms: C_24  and  C_25
REMARK                            x       y       z     vdW  Elec       q    Type
REMARK                         _______ _______ _______ _____ _____    ______ ____
ROOT
ATOM      6  C   UNL     1      -0.765   3.006  25.489  0.00  0.00    +0.226 C 
ATOM      7  O   UNL     1      -0.283   3.378  26.046  0.00  0.00    -0.275 OA
ATOM      8  N   UNL     1      -0.777   2.182  25.438  0.00  0.00    -0.272 N 
ATOM      9  C   UNL     1      -0.339   1.662  25.905  0.00  0.00    +0.096 C 
ATOM     10  C   UNL     1      -0.520   0.893  25.668  0.00  0.00    +0.045 C 
ATOM     11  C   UNL     1      -1.069   0.939  25.053  0.00  0.00    +0.126 C 
ATOM     19  C   UNL     1      -1.228   1.735  24.911  0.00  0.00    +0.174 C 
ENDROOT
BRANCH  11  12
ATOM     12  N   UNL     1      -1.402   0.299  24.651  0.00  0.00    -0.187 NA
ATOM     13  C   UNL     1      -1.326  -0.464  24.956  0.00  0.00    +0.340 C 
ATOM     14  O   UNL     1      -0.918  -0.587  25.662  0.00  0.00    -0.249 OA
ATOM     15  N   UNL     1      -1.658  -1.103  24.554  0.00  0.00    -0.182 NA
BRANCH  15  16
ATOM     16  C   UNL     1      -1.583  -1.866  24.859  0.00  0.00    +0.143 C 
BRANCH  16  17
ATOM     17  C   UNL     1      -1.860  -2.512  24.426  0.00  0.00    -0.003 C 
ATOM     18  C   UNL     1      -2.618  -2.806  24.565  0.00  0.00    -0.003 C 
ENDBRANCH  16  17
ENDBRANCH  15  16
ENDBRANCH  11  12
BRANCH  19  20
ATOM     20  C   UNL     1      -1.746   2.033  24.344  0.00  0.00    +0.262 C 
ATOM     21  O   UNL     1      -1.488   2.605  23.809  0.00  0.00    -0.271 OA
ATOM     22  N   UNL     1      -2.524   1.760  24.311  0.00  0.00    -0.196 NA
BRANCH  22  23
ATOM     23  C   UNL     1      -3.043   2.057  23.743  0.00  0.00    +0.179 C 
BRANCH  23  34
ATOM     34  C   UNL     1      -2.917   1.894  22.944  0.00  0.00    +0.281 C 
ATOM     35  N   UNL     1      -2.836   2.512  22.404  0.00  0.00    -0.086 NA
ATOM     36  O   UNL     1      -2.872   1.112  22.687  0.00  0.00    -0.270 OA
ENDBRANCH  23  34
BRANCH  23  24
ATOM     24  C   UNL     1      -3.688   2.518  23.974  0.00  0.00    +0.059 C 
BRANCH  24  25
ATOM     25  C   UNL     1      -4.316   2.172  24.383  0.00  0.00    +0.001 A 
ATOM     26  C   UNL     1      -4.519   1.374  24.374  0.00  0.00    +0.095 A 
ATOM     27  N   UNL     1      -5.180   1.273  24.858  0.00  0.00    -0.244 NA
ATOM     28  C   UNL     1      -5.383   2.011  25.167  0.00  0.00    +0.081 A 
ATOM     29  C   UNL     1      -4.850   2.566  24.873  0.00  0.00    +0.015 A 
ATOM     30  C   UNL     1      -4.919   3.359  25.090  0.00  0.00    +0.001 A 
ATOM     31  C   UNL     1      -5.522   3.597  25.600  0.00  0.00    +0.000 A 
ATOM     32  C   UNL     1      -6.056   3.040  25.894  0.00  0.00    +0.002 A 
ATOM     33  C   UNL     1      -5.987   2.247  25.677  0.00  0.00    +0.019 A 
ENDBRANCH  24  25
ENDBRANCH  23  24
ENDBRANCH  22  23
ENDBRANCH  19  20
BRANCH   6   5
ATOM      5  C   UNL     1      -1.234   3.457  24.983  0.00  0.00    +0.085 C 
BRANCH   5   2
ATOM      1  C   UNL     1      -1.207   5.104  25.078  0.00  0.00    +0.000 C 
ATOM      2  C   UNL     1      -1.221   4.281  25.031  0.00  0.00    +0.009 C 
ATOM      3  C   UNL     1      -0.660   4.306  24.426  0.00  0.00    +0.000 C 
ATOM      4  C   UNL     1      -1.781   4.255  25.635  0.00  0.00    +0.000 C 
ENDBRANCH   5   2
ENDBRANCH   6   5
TORSDOF 10
ENDMDL
MODEL 2
REMARK VINA RESULT:     -10.3      0.915      3.615
REMARK  Name = 
REMARK  10 active torsions:
REMARK  status: ('A' for Active; 'I' for Inactive)
REMARK    1  A    between atoms: C_2  and  C_5
REMARK    2  A    between atoms: C_5  and  C_6
REMARK    3  A    between atoms: C_11  and  N_12
REMARK    4  A    between atoms: N_15  and  C_16
REMARK    5  A    between atoms: C_16  and  C_17
REMARK    6  A    between atoms: C_19  and  C_20
REMARK    7  A    between atoms: N_22  and  C_23
REMARK    8  A    between atoms: C_23  and  C_24
REMARK    9  A    between atoms: C_23  and  C_34
REMARK   10  A    between atoms: C_24  and  C_25
REMARK                            x       y       z     vdW  Elec       q    Type
REMARK                         _______ _______ _______ _____ _____    ______ ____
ROOT
ATOM      6  C   UNL     1      -1.797  -0.540  25.611  0.00  0.00    +0.226 C 
ATOM      7  O   UNL     1      -1.563  -1.100  26.170  0.00  0.00    -0.275 OA
ATOM      8  N   UNL     1      -1.400   0.183  25.559  0.00  0.00    -0.272 N 
ATOM      9  C   UNL     1      -0.764   0.420  26.028  0.00  0.00    +0.096 C 
ATOM     10  C   UNL     1      -0.541   1.178  25.790  0.00  0.00    +0.045 C 
ATOM     11  C   UNL     1      -1.039   1.408  25.173  0.00  0.00    +0.126 C 
ATOM     19  C   UNL     1      -1.570   0.793  25.031  0.00  0.00    +0.174 C 
ENDROOT
BRANCH  11  12
ATOM     12  N   UNL     1      -1.011   2.127  24.769  0.00  0.00    -0.187 NA
ATOM     13  C   UNL     1      -0.773   2.811  25.163  0.00  0.00    +0.340 C 
ATOM     14  O   UNL     1      -0.562   2.777  25.960  0.00  0.00    -0.249 OA
ATOM     15  N   UNL     1      -0.745   3.531  24.759  0.00  0.00    -0.182 NA
BRANCH  15  16
ATOM     16  C   UNL     1      -0.506   4.215  25.153  0.00  0.00    +0.143 C 
BRANCH  16  17
ATOM     17  C   UNL     1      -0.625   4.954  24.805  0.00  0.00    -0.003 C 
ATOM     18  C   UNL     1      -1.289   5.401  25.004  0.00  0.00    -0.003 C 
ENDBRANCH  16  17
ENDBRANCH  15  16
ENDBRANCH  11  12
BRANCH  19  20
ATOM     20  C   UNL     1      -2.166   0.788  24.461  0.00  0.00    +0.262 C 
ATOM     21  O   UNL     1      -2.253   0.139  23.960  0.00  0.00    -0.271 OA
ATOM     22  N   UNL     1      -2.676   1.433  24.392  0.00  0.00    -0.196 NA
BRANCH  22  23
ATOM     23  C   UNL     1      -3.273   1.429  23.823  0.00  0.00    +0.179 C 
BRANCH  23  34
ATOM     34  C   UNL     1      -3.076   1.434  23.021  0.00  0.00    +0.281 C 
ATOM     35  N   UNL     1      -2.678   2.079  22.697  0.00  0.00    -0.086 NA
ATOM     36  O   UNL     1      -3.278   0.791  22.545  0.00  0.00    -0.270 OA
ENDBRANCH  23  34
BRANCH  23  24
ATOM     24  C   UNL     1      -4.065   1.421  24.054  0.00  0.00    +0.059 C 
BRANCH  24  25
ATOM     25  C   UNL     1      -4.398   2.088  24.407  0.00  0.00    +0.001 A 
ATOM     26  C   UNL     1      -4.182   2.871  24.265  0.00  0.00    +0.095 A 
ATOM     27  N   UNL     1      -4.657   3.356  24.735  0.00  0.00    -0.244 NA
ATOM     28  C   UNL     1      -5.165   2.871  25.168  0.00  0.00    +0.081 A 
ATOM     29  C   UNL     1      -5.005   2.088  24.965  0.00  0.00    +0.015 A 
ATOM     30  C   UNL     1      -5.434   1.476  25.315  0.00  0.00    +0.001 A 
ATOM     31  C   UNL     1      -6.022   1.647  25.868  0.00  0.00    +0.000 A 
ATOM     32  C   UNL     1      -6.182   2.431  26.070  0.00  0.00    +0.002 A 
ATOM     33  C   UNL     1      -5.753   3.043  25.720  0.00  0.00    +0.019 A 
ENDBRANCH  24  25
ENDBRANCH  23  24
ENDBRANCH  22  23
ENDBRANCH  19  20
BRANCH   6   5
ATOM      5  C   UNL     1      -2.426  -0.701  25.103  0.00  0.00    +0.085 C 
BRANCH   5   2
ATOM      1  C   UNL     1      -3.230  -2.138  25.215  0.00  0.00    +0.000 C 
ATOM      2  C   UNL     1      -2.828  -1.420  25.158  0.00  0.00    +0.009 C 
ATOM      3  C   UNL     1      -3.299  -1.109  25.760  0.00  0.00    +0.000 C 
ATOM      4  C   UNL     1      -2.356  -1.731  24.558  0.00  0.00    +0.000 C 
ENDBRANCH   5   2
ENDBRANCH   6   5
TORSDOF 10
ENDMDL
MODEL 3
REMARK VINA RESULT:     -10.3      1.498      3.740
REMARK  Name = 
REMARK  10 active torsions:
REMARK  status: ('A' for Active; 'I' for Inactive)
REMARK    1  A    between atoms: C_2  and  C_5
REMARK    2  A    between atoms: C_5  and  C_6
REMARK    3  A    between atoms: C_11  and  N_12
REMARK    4  A    between atoms: N_15  and  C_16
REMARK    5  A    between atoms: C_16  and  C_17
REMARK    6  A    between atoms: C_19  and  C_20
REMARK    7  A    between atoms: N_22  and  C_23
REMARK    8  A    between atoms: C_23  and  C_24
REMARK    9  A    between atoms: C_23  and  C_34
REMARK   10  A    between atoms: C_24  and  C_25
REMARK                            x       y       z     vdW  Elec       q    Type
REMARK                         _______ _______ _______ _____ _____    ______ ____
ROOT
ATOM      6  C   UNL     1      -3.845   3.339  25.224  0.00  0.00    +0.226 C 
ATOM      7  O   UNL     1      -4.420   3.914  25.370  0.00  0.00    -0.275 OA
ATOM      8  N   UNL     1      -4.063   2.610  24.904  0.00  0.00    -0.272 N 
ATOM      9  C   UNL     1      -4.829   2.379  24.702  0.00  0.00    +0.096 C 
ATOM     10  C   UNL     1      -4.793   1.611  24.403  0.00  0.00    +0.045 C 
ATOM     11  C   UNL     1      -4.005   1.368  24.420  0.00  0.00    +0.126 C 
ATOM     19  C   UNL     1      -3.554   1.985  24.729  0.00  0.00    +0.174 C 
ENDROOT
BRANCH  11  12
ATOM     12  N   UNL     1      -3.717   0.636  24.170  0.00  0.00    -0.187 NA
ATOM     13  C   UNL     1      -4.175  -0.043  24.273  0.00  0.00    +0.340 C 
ATOM     14  O   UNL     1      -4.920   0.011  24.624  0.00  0.00    -0.249 OA
ATOM     15  N   UNL     1      -3.888  -0.775  24.023  0.00  0.00    -0.182 NA
BRANCH  15  16
ATOM     16  C   UNL     1      -4.345  -1.454  24.126  0.00  0.00    +0.143 C 
BRANCH  16  17
ATOM     17  C   UNL     1      -4.095  -2.172  23.805  0.00  0.00    -0.003 C 
ATOM     18  C   UNL     1      -3.869  -2.789  24.303  0.00  0.00    -0.003 C 
ENDBRANCH  16  17
ENDBRANCH  15  16
ENDBRANCH  11  12
BRANCH  19  20
ATOM     20  C   UNL     1      -2.738   1.980  24.844  0.00  0.00    +0.262 C 
ATOM     21  O   UNL     1      -2.423   2.177  25.580  0.00  0.00    -0.271 OA
ATOM     22  N   UNL     1      -2.234   1.777  24.222  0.00  0.00    -0.196 NA
BRANCH  22  23
ATOM     23  C   UNL     1      -1.417   1.771  24.335  0.00  0.00    +0.179 C 
BRANCH  23  34
ATOM     34  C   UNL     1      -0.944   2.320  23.942  0.00  0.00    +0.281 C 
ATOM     35  N   UNL     1      -0.314   2.680  24.335  0.00  0.00    -0.086 NA
ATOM     36  O   UNL     1      -1.100   2.508  23.154  0.00  0.00    -0.270 OA
ENDBRANCH  23  34
BRANCH  23  24
ATOM     24  C   UNL     1      -1.075   1.218  24.842  0.00  0.00    +0.059 C 
BRANCH  24  25
ATOM     25  C   UNL     1      -0.754   0.522  24.536  0.00  0.00    +0.001 A 
ATOM     26  C   UNL     1      -0.427   0.428  23.785  0.00  0.00    +0.095 A 
ATOM     27  N   UNL     1      -0.176  -0.355  23.712  0.00  0.00    -0.244 NA
ATOM     28  C   UNL     1      -0.348  -0.744  24.419  0.00  0.00    +0.081 A 
ATOM     29  C   UNL     1      -0.705  -0.203  24.927  0.00  0.00    +0.015 A 
ATOM     30  C   UNL     1      -0.940  -0.439  25.682  0.00  0.00    +0.001 A 
ATOM     31  C   UNL     1      -0.817  -1.217  25.928  0.00  0.00    +0.000 A 
ATOM     32  C   UNL     1      -0.459  -1.759  25.419  0.00  0.00    +0.002 A 
ATOM     33  C   UNL     1      -0.225  -1.522  24.664  0.00  0.00    +0.019 A 
ENDBRANCH  24  25
ENDBRANCH  23  24
ENDBRANCH  22  23
ENDBRANCH  19  20
BRANCH   6   5
ATOM      5  C   UNL     1      -3.055   3.493  25.398  0.00  0.00    +0.085 C 
BRANCH   5   2
ATOM      1  C   UNL     1      -2.619   4.946  26.046  0.00  0.00    +0.000 C 
ATOM      2  C   UNL     1      -2.836   4.220  25.723  0.00  0.00    +0.009 C 
ATOM      3  C   UNL     1      -2.802   4.546  24.966  0.00  0.00    +0.000 C 
ATOM      4  C   UNL     1      -2.871   3.893  26.479  0.00  0.00    +0.000 C 
ENDBRANCH   5   2
ENDBRANCH   6   5
TORSDOF 10
ENDMDL
MODEL 4
REMARK VINA RESULT:     -10.0      1.932      3.569
REMARK  Name = 
REMARK  10 active torsions:
REMARK  status: ('A' for Active; 'I' for Inactive)
REMARK    1  A    between atoms: C_2  and  C_5
REMARK    2  A    between atoms: C_5  and  C_6
REMARK    3  A    between atoms: C_11  and  N_12
REMARK    4  A    between atoms: N_15  and  C_16
REMARK    5  A    between atoms: C_16  and  C_17
REMARK    6  A    between atoms: C_19  and  C_20
REMARK    7  A    between atoms: N_22  and  C_23
REMARK    8  A    between atoms: C_23  and  C_24
REMARK    9  A    between atoms: C_23  and  C_34
REMARK   10  A    between atoms: C_24  and  C_25
REMARK                            x       y       z     vdW  Elec       q    Type
REMARK                         _______ _______ _______ _____ _____    ______ ____
ROOT
ATOM      6  C   UNL     1      -2.616  -0.992  24.844  0.00  0.00    +0.226 C 
ATOM      7  O   UNL     1      -2.854  -1.652  25.279  0.00  0.00    -0.275 OA
ATOM      8  N   UNL     1      -1.814  -0.865  24.693  0.00  0.00    -0.272 N 
ATOM      9  C   UNL     1      -1.192  -1.348  24.940  0.00  0.00    +0.096 C 
ATOM     10  C   UNL     1      -0.488  -1.016  24.668  0.00  0.00    +0.045 C 
ATOM     11  C   UNL     1      -0.675  -0.328  24.253  0.00  0.00    +0.126 C 
ATOM     19  C   UNL     1      -1.494  -0.235  24.268  0.00  0.00    +0.174 C 
ENDROOT
BRANCH  11  12
ATOM     12  N   UNL     1      -0.136   0.180  23.887  0.00  0.00    -0.187 NA
ATOM     13  C   UNL     1       0.576  -0.117  23.596  0.00  0.00    +0.340 C 
ATOM     14  O   UNL     1       0.751  -0.920  23.671  0.00  0.00    -0.249 OA
ATOM     15  N   UNL     1       1.115   0.390  23.229  0.00  0.00    -0.182 NA
BRANCH  15  16
ATOM     16  C   UNL     1       1.828   0.094  22.939  0.00  0.00    +0.143 C 
BRANCH  16  17
ATOM     17  C   UNL     1       2.450   0.609  22.770  0.00  0.00    -0.003 C 
ATOM     18  C   UNL     1       3.133   0.324  22.405  0.00  0.00    -0.003 C 
ENDBRANCH  16  17
ENDBRANCH  15  16
ENDBRANCH  11  12
BRANCH  19  20
ATOM     20  C   UNL     1      -1.920   0.380  23.921  0.00  0.00    +0.262 C 
ATOM     21  O   UNL     1      -2.508   0.214  23.368  0.00  0.00    -0.271 OA
ATOM     22  N   UNL     1      -1.756   1.163  24.126  0.00  0.00    -0.196 NA
BRANCH  22  23
ATOM     23  C   UNL     1      -2.182   1.779  23.779  0.00  0.00    +0.179 C 
BRANCH  23  34
ATOM     34  C   UNL     1      -2.024   1.999  23.000  0.00  0.00    +0.281 C 
ATOM     35  N   UNL     1      -2.615   1.946  22.428  0.00  0.00    -0.086 NA
ATOM     36  O   UNL     1      -1.274   2.273  22.794  0.00  0.00    -0.270 OA
ENDBRANCH  23  34
BRANCH  23  24
ATOM     24  C   UNL     1      -2.763   2.173  24.211  0.00  0.00    +0.059 C 
BRANCH  24  25
ATOM     25  C   UNL     1      -2.550   2.760  24.750  0.00  0.00    +0.001 A 
ATOM     26  C   UNL     1      -1.782   3.014  24.911  0.00  0.00    +0.095 A 
ATOM     27  N   UNL     1      -1.825   3.607  25.484  0.00  0.00    -0.244 NA
ATOM     28  C   UNL     1      -2.619   3.719  25.676  0.00  0.00    +0.081 A 
ATOM     29  C   UNL     1      -3.067   3.196  25.222  0.00  0.00    +0.015 A 
ATOM     30  C   UNL     1      -3.888   3.183  25.298  0.00  0.00    +0.001 A 
ATOM     31  C   UNL     1      -4.262   3.694  25.828  0.00  0.00    +0.000 A 
ATOM     32  C   UNL     1      -3.813   4.218  26.281  0.00  0.00    +0.002 A 
ATOM     33  C   UNL     1      -2.992   4.230  26.205  0.00  0.00    +0.019 A 
ENDBRANCH  24  25
ENDBRANCH  23  24
ENDBRANCH  22  23
ENDBRANCH  19  20
BRANCH   6   5
ATOM      5  C   UNL     1      -3.177  -0.460  24.560  0.00  0.00    +0.085 C 
BRANCH   5   2
ATOM      1  C   UNL     1      -4.785  -0.781  24.743  0.00  0.00    +0.000 C 
ATOM      2  C   UNL     1      -3.982  -0.620  24.652  0.00  0.00    +0.009 C 
ATOM      3  C   UNL     1      -4.000  -0.954  23.897  0.00  0.00    +0.000 C 
ATOM      4  C   UNL     1      -3.963  -0.287  25.406  0.00  0.00    +0.000 C 
ENDBRANCH   5   2
ENDBRANCH   6   5
TORSDOF 10
ENDMDL
MODEL 5
REMARK VINA RESULT:      -9.9      1.618      4.537
REMARK  Name = 
REMARK  10 active torsions:
REMARK  status: ('A' for Active; 'I' for Inactive)
REMARK    1  A    between atoms: C_2  and  C_5
REMARK    2  A    between atoms: C_5  and  C_6
REMARK    3  A    between atoms: C_11  and  N_12
REMARK    4  A    between atoms: N_15  and  C_16
REMARK    5  A    between atoms: C_16  and  C_17
REMARK    6  A    between atoms: C_19  and  C_20
REMARK    7  A    between atoms: N_22  and  C_23
REMARK    8  A    between atoms: C_23  and  C_24
REMARK    9  A    between atoms: C_23  and  C_34
REMARK   10  A    between atoms: C_24  and  C_25
REMARK                            x       y       z     vdW  Elec       q    Type
REMARK                         _______ _______ _______ _____ _____    ______ ____
ROOT
ATOM      6  C   UNL     1      -5.118   2.777  25.740  0.00  0.00    +0.226 C 
ATOM      7  O   UNL     1      -5.714   2.977  26.275  0.00  0.00    -0.275 OA
ATOM      8  N   UNL     1      -4.382   3.148  25.784  0.00  0.00    -0.272 N 
ATOM      9  C   UNL     1      -4.164   3.727  26.331  0.00  0.00    +0.096 C 
ATOM     10  C   UNL     1      -3.383   3.942  26.175  0.00  0.00    +0.045 C 
ATOM     11  C   UNL     1      -3.119   3.497  25.532  0.00  0.00    +0.126 C 
ATOM     19  C   UNL     1      -3.737   3.006  25.290  0.00  0.00    +0.174 C 
ENDROOT
BRANCH  11  12
ATOM     12  N   UNL     1      -2.369   3.535  25.190  0.00  0.00    -0.187 NA
ATOM     13  C   UNL     1      -1.920   4.224  25.258  0.00  0.00    +0.340 C 
ATOM     14  O   UNL     1      -2.220   4.874  25.668  0.00  0.00    -0.249 OA
ATOM     15  N   UNL     1      -1.169   4.262  24.916  0.00  0.00    -0.182 NA
BRANCH  15  16
ATOM     16  C   UNL     1      -0.721   4.951  24.984  0.00  0.00    +0.143 C 
BRANCH  16  17
ATOM     17  C   UNL     1      -0.265   5.211  24.346  0.00  0.00    -0.003 C 
ATOM     18  C   UNL     1       0.127   4.663  23.870  0.00  0.00    -0.003 C 
ENDBRANCH  16  17
ENDBRANCH  15  16
ENDBRANCH  11  12
BRANCH  19  20
ATOM     20  C   UNL     1      -3.714   2.468  24.666  0.00  0.00    +0.262 C 
ATOM     21  O   UNL     1      -4.241   2.543  24.037  0.00  0.00    -0.271 OA
ATOM     22  N   UNL     1      -3.163   1.854  24.671  0.00  0.00    -0.196 NA
BRANCH  22  23
ATOM     23  C   UNL     1      -3.139   1.315  24.046  0.00  0.00    +0.179 C 
BRANCH  23  34
ATOM     34  C   UNL     1      -2.727   1.503  23.357  0.00  0.00    +0.281 C 
ATOM     35  N   UNL     1      -3.135   1.612  22.648  0.00  0.00    -0.086 NA
ATOM     36  O   UNL     1      -1.906   1.581  23.377  0.00  0.00    -0.270 OA
ENDBRANCH  23  34
BRANCH  23  24
ATOM     24  C   UNL     1      -3.527   0.590  24.112  0.00  0.00    +0.059 C 
BRANCH  24  25
ATOM     25  C   UNL     1      -3.143  -0.053  24.459  0.00  0.00    +0.001 A 
ATOM     26  C   UNL     1      -2.452  -0.020  24.907  0.00  0.00    +0.095 A 
ATOM     27  N   UNL     1      -2.265  -0.789  25.144  0.00  0.00    -0.244 NA
ATOM     28  C   UNL     1      -2.842  -1.295  24.840  0.00  0.00    +0.081 A 
ATOM     29  C   UNL     1      -3.384  -0.841  24.417  0.00  0.00    +0.015 A 
ATOM     30  C   UNL     1      -4.027  -1.203  24.049  0.00  0.00    +0.001 A 
ATOM     31  C   UNL     1      -4.128  -2.020  24.103  0.00  0.00    +0.000 A 
ATOM     32  C   UNL     1      -3.585  -2.475  24.527  0.00  0.00    +0.002 A 
ATOM     33  C   UNL     1      -2.941  -2.113  24.895  0.00  0.00    +0.019 A 
ENDBRANCH  24  25
ENDBRANCH  23  24
ENDBRANCH  22  23
ENDBRANCH  19  20
BRANCH   6   5
ATOM      5  C   UNL     1      -5.257   2.207  25.162  0.00  0.00    +0.085 C 
BRANCH   5   2
ATOM      1  C   UNL     1      -6.736   1.483  25.055  0.00  0.00    +0.000 C 
ATOM      2  C   UNL     1      -5.997   1.845  25.108  0.00  0.00    +0.009 C 
ATOM      3  C   UNL     1      -5.818   1.383  25.768  0.00  0.00    +0.000 C 
ATOM      4  C   UNL     1      -6.176   2.306  24.448  0.00  0.00    +0.000 C 
ENDBRANCH   5   2
ENDBRANCH   6   5
TORSDOF 10
ENDMDL
MODEL 6
REMARK VINA RESULT:      -9.6      1.721      2.929
REMARK  Name = 
REMARK  10 active torsions:
REMARK  status: ('A' for Active; 'I' for Inactive)
REMARK    1  A    between atoms: C_2  and  C_5
REMARK    2  A    between atoms: C_5  and  C_6
REMARK    3  A    between atoms: C_11  and  N_12
REMARK    4  A    between atoms: N_15  and  C_16
REMARK    5  A    between atoms: C_16  and  C_17
REMARK    6  A    between atoms: C_19  and  C_20
REMARK    7  A    between atoms: N_22  and  C_23
REMARK    8  A    between atoms: C_23  and  C_24
REMARK    9  A    between atoms: C_23  and  C_34
REMARK   10  A    between atoms: C_24  and  C_25
REMARK                            x       y       z     vdW  Elec       q    Type
REMARK                         _______ _______ _______ _____ _____    ______ ____
ROOT
ATOM      6  C   UNL     1      -1.959   3.956  25.415  0.00  0.00    +0.226 C 
ATOM      7  O   UNL     1      -1.707   4.719  25.602  0.00  0.00    -0.275 OA
ATOM      8  N   UNL     1      -1.457   3.445  25.004  0.00  0.00    -0.272 N 
ATOM      9  C   UNL     1      -0.694   3.621  24.745  0.00  0.00    +0.096 C 
ATOM     10  C   UNL     1      -0.396   2.955  24.360  0.00  0.00    +0.045 C 
ATOM     11  C   UNL     1      -0.975   2.367  24.382  0.00  0.00    +0.126 C 
ATOM     19  C   UNL     1      -1.631   2.670  24.780  0.00  0.00    +0.174 C 
ENDROOT
BRANCH  11  12
ATOM     12  N   UNL     1      -0.910   1.609  24.062  0.00  0.00    -0.187 NA
ATOM     13  C   UNL     1      -0.165   1.285  23.918  0.00  0.00    +0.340 C 
ATOM     14  O   UNL     1       0.514   1.719  24.093  0.00  0.00    -0.249 OA
ATOM     15  N   UNL     1      -0.100   0.527  23.598  0.00  0.00    -0.182 NA
BRANCH  15  16
ATOM     16  C   UNL     1       0.644   0.204  23.454  0.00  0.00    +0.143 C 
BRANCH  16  17
ATOM     17  C   UNL     1       0.732  -0.397  22.894  0.00  0.00    -0.003 C 
ATOM     18  C   UNL     1       1.421  -0.444  22.444  0.00  0.00    -0.003 C 
ENDBRANCH  16  17
ENDBRANCH  15  16
ENDBRANCH  11  12
BRANCH  19  20
ATOM     20  C   UNL     1      -2.337   2.271  24.928  0.00  0.00    +0.262 C 
ATOM     21  O   UNL     1      -2.613   2.194  25.701  0.00  0.00    -0.271 OA
ATOM     22  N   UNL     1      -2.767   1.947  24.302  0.00  0.00    -0.196 NA
BRANCH  22  23
ATOM     23  C   UNL     1      -3.473   1.547  24.449  0.00  0.00    +0.179 C 
BRANCH  23  34
ATOM     34  C   UNL     1      -4.185   1.850  24.163  0.00  0.00    +0.281 C 
ATOM     35  N   UNL     1      -4.865   1.817  24.629  0.00  0.00    -0.086 NA
ATOM     36  O   UNL     1      -4.216   2.187  23.411  0.00  0.00    -0.270 OA
ENDBRANCH  23  34
BRANCH  23  24
ATOM     24  C   UNL     1      -3.467   0.844  24.881  0.00  0.00    +0.059 C 
BRANCH  24  25
ATOM     25  C   UNL     1      -3.531   0.120  24.491  0.00  0.00    +0.001 A 
ATOM     26  C   UNL     1      -3.659   0.014  23.683  0.00  0.00    +0.095 A 
ATOM     27  N   UNL     1      -3.686  -0.797  23.533  0.00  0.00    -0.244 NA
ATOM     28  C   UNL     1      -3.574  -1.192  24.249  0.00  0.00    +0.081 A 
ATOM     29  C   UNL     1      -3.479  -0.626  24.840  0.00  0.00    +0.015 A 
ATOM     30  C   UNL     1      -3.356  -0.861  25.621  0.00  0.00    +0.001 A 
ATOM     31  C   UNL     1      -3.328  -1.664  25.811  0.00  0.00    +0.000 A 
ATOM     32  C   UNL     1      -3.424  -2.231  25.219  0.00  0.00    +0.002 A 
ATOM     33  C   UNL     1      -3.547  -1.995  24.438  0.00  0.00    +0.019 A 
ENDBRANCH  24  25
ENDBRANCH  23  24
ENDBRANCH  22  23
ENDBRANCH  19  20
BRANCH   6   5
ATOM      5  C   UNL     1      -2.710   3.702  25.639  0.00  0.00    +0.085 C 
BRANCH   5   2
ATOM      1  C   UNL     1      -3.686   4.695  26.526  0.00  0.00    +0.000 C 
ATOM      2  C   UNL     1      -3.198   4.199  26.084  0.00  0.00    +0.009 C 
ATOM      3  C   UNL     1      -3.431   4.586  25.393  0.00  0.00    +0.000 C 
ATOM      4  C   UNL     1      -2.965   3.812  26.773  0.00  0.00    +0.000 C 
ENDBRANCH   5   2
ENDBRANCH   6   5
TORSDOF 10
ENDMDL
MODEL 7
REMARK VINA RESULT:      -9.3      1.350      4.438
REMARK  Name = 
REMARK  10 active torsions:
REMARK  status: ('A' for Active; 'I' for Inactive)
REMARK    1  A    between atoms: C_2  and  C_5
REMARK    2  A    between atoms: C_5  and  C_6
REMARK    3  A    between atoms: C_11  and  N_12
REMARK    4  A    between atoms: N_15  and  C_16
REMARK    5  A    between atoms: C_16  and  C_17
REMARK    6  A    between atoms: C_19  and  C_20
REMARK    7  A    between atoms: N_22  and  C_23
REMARK    8  A    between atoms: C_23  and  C_24
REMARK    9  A    between atoms: C_23  and  C_34
REMARK   10  A    between atoms: C_24  and  C_25
REMARK                            x       y       z     vdW  Elec       q    Type
REMARK                         _______ _______ _______ _____ _____    ______ ____
ROOT
ATOM      6  C   UNL     1      -2.539  -1.530  24.775  0.00  0.00    +0.226 C 
ATOM      7  O   UNL     1      -2.719  -2.336  24.770  0.00  0.00    -0.275 OA
ATOM      8  N   UNL     1      -3.142  -0.973  24.686  0.00  0.00    -0.272 N 
ATOM      9  C   UNL     1      -3.944  -1.138  24.586  0.00  0.00    +0.096 C 
ATOM     10  C   UNL     1      -4.346  -0.421  24.519  0.00  0.00    +0.045 C 
ATOM     11  C   UNL     1      -3.791   0.188  24.577  0.00  0.00    +0.126 C 
ATOM     19  C   UNL     1      -3.047  -0.153  24.680  0.00  0.00    +0.174 C 
ENDROOT
BRANCH  11  12
ATOM     12  N   UNL     1      -3.952   0.996  24.538  0.00  0.00    -0.187 NA
ATOM     13  C   UNL     1      -4.653   1.292  24.857  0.00  0.00    +0.340 C 
ATOM     14  O   UNL     1      -5.193   0.780  25.215  0.00  0.00    -0.249 OA
ATOM     15  N   UNL     1      -4.814   2.101  24.819  0.00  0.00    -0.182 NA
BRANCH  15  16
ATOM     16  C   UNL     1      -5.515   2.397  25.138  0.00  0.00    +0.143 C 
BRANCH  16  17
ATOM     17  C   UNL     1      -5.495   3.050  25.642  0.00  0.00    -0.003 C 
ATOM     18  C   UNL     1      -5.575   3.811  25.334  0.00  0.00    -0.003 C 
ENDBRANCH  16  17
ENDBRANCH  15  16
ENDBRANCH  11  12
BRANCH  19  20
ATOM     20  C   UNL     1      -2.334   0.252  24.763  0.00  0.00    +0.262 C 
ATOM     21  O   UNL     1      -1.864   0.129  25.428  0.00  0.00    -0.271 OA
ATOM     22  N   UNL     1      -2.091   0.783  24.179  0.00  0.00    -0.196 NA
BRANCH  22  23
ATOM     23  C   UNL     1      -1.378   1.189  24.260  0.00  0.00    +0.179 C 
BRANCH  23  34
ATOM     34  C   UNL     1      -0.745   1.014  23.760  0.00  0.00    +0.281 C 
ATOM     35  N   UNL     1       0.021   0.969  24.063  0.00  0.00    -0.086 NA
ATOM     36  O   UNL     1      -0.880   0.885  22.957  0.00  0.00    -0.270 OA
ENDBRANCH  23  34
BRANCH  23  24
ATOM     24  C   UNL     1      -1.298   1.769  24.841  0.00  0.00    +0.059 C 
BRANCH  24  25
ATOM     25  C   UNL     1      -1.389   2.565  24.644  0.00  0.00    +0.001 A 
ATOM     26  C   UNL     1      -1.296   2.892  23.893  0.00  0.00    +0.095 A 
ATOM     27  N   UNL     1      -1.439   3.703  23.948  0.00  0.00    -0.244 NA
ATOM     28  C   UNL     1      -1.620   3.876  24.734  0.00  0.00    +0.081 A 
ATOM     29  C   UNL     1      -1.589   3.174  25.164  0.00  0.00    +0.015 A 
ATOM     30  C   UNL     1      -1.747   3.178  25.974  0.00  0.00    +0.001 A 
ATOM     31  C   UNL     1      -1.937   3.885  26.354  0.00  0.00    +0.000 A 
ATOM     32  C   UNL     1      -1.968   4.589  25.923  0.00  0.00    +0.002 A 
ATOM     33  C   UNL     1      -1.810   4.585  25.113  0.00  0.00    +0.019 A 
ENDBRANCH  24  25
ENDBRANCH  23  24
ENDBRANCH  22  23
ENDBRANCH  19  20
BRANCH   6   5
ATOM      5  C   UNL     1      -1.759  -1.282  24.870  0.00  0.00    +0.085 C 
BRANCH   5   2
ATOM      1  C   UNL     1      -0.563  -2.392  25.114  0.00  0.00    +0.000 C 
ATOM      2  C   UNL     1      -1.161  -1.837  24.993  0.00  0.00    +0.009 C 
ATOM      3  C   UNL     1      -1.221  -2.075  24.204  0.00  0.00    +0.000 C 
ATOM      4  C   UNL     1      -1.100  -1.600  25.780  0.00  0.00    +0.000 C 
ENDBRANCH   5   2
ENDBRANCH   6   5
TORSDOF 10
ENDMDL
MODEL 8
REMARK VINA RESULT:      -9.2      1.868      5.493
REMARK  Name = 
REMARK  10 active torsions:
REMARK  status: ('A' for Active; 'I' for Inactive)
REMARK    1  A    between atoms: C_2  and  C_5
REMARK    2  A    between atoms: C_5  and  C_6
REMARK    3  A    between atoms: C_11  and  N_12
REMARK    4  A    between atoms: N_15  and  C_16
REMARK    5  A    between atoms: C_16  and  C_17
REMARK    6  A    between atoms: C_19  and  C_20
REMARK    7  A    between atoms: N_22  and  C_23
REMARK    8  A    between atoms: C_23  and  C_24
REMARK    9  A    between atoms: C_23  and  C_34
REMARK   10  A    between atoms: C_24  and  C_25
REMARK                            x       y       z     vdW  Elec       q    Type
REMARK                         _______ _______ _______ _____ _____    ______ ____
ROOT
ATOM      6  C   UNL     1      -4.237  -0.304  24.540  0.00  0.00    +0.226 C 
ATOM      7  O   UNL     1      -5.031  -0.525  24.591  0.00  0.00    -0.275 OA
ATOM      8  N   UNL     1      -4.022   0.489  24.623  0.00  0.00    -0.272 N 
ATOM      9  C   UNL     1      -4.538   1.118  24.759  0.00  0.00    +0.096 C 
ATOM     10  C   UNL     1      -4.090   1.809  24.806  0.00  0.00    +0.045 C 
ATOM     11  C   UNL     1      -3.298   1.606  24.698  0.00  0.00    +0.126 C 
ATOM     19  C   UNL     1      -3.256   0.790  24.586  0.00  0.00    +0.174 C 
ENDROOT
BRANCH  11  12
ATOM     12  N   UNL     1      -2.658   2.128  24.703  0.00  0.00    -0.187 NA
ATOM     13  C   UNL     1      -2.779   2.926  24.875  0.00  0.00    +0.340 C 
ATOM     14  O   UNL     1      -3.538   3.202  25.043  0.00  0.00    -0.249 OA
ATOM     15  N   UNL     1      -2.139   3.448  24.880  0.00  0.00    -0.182 NA
BRANCH  15  16
ATOM     16  C   UNL     1      -2.260   4.246  25.052  0.00  0.00    +0.143 C 
BRANCH  16  17
ATOM     17  C   UNL     1      -1.649   4.694  25.378  0.00  0.00    -0.003 C 
ATOM     18  C   UNL     1      -1.389   5.377  24.995  0.00  0.00    -0.003 C 
ENDBRANCH  16  17
ENDBRANCH  15  16
ENDBRANCH  11  12
BRANCH  19  20
ATOM     20  C   UNL     1      -2.569   0.353  24.458  0.00  0.00    +0.262 C 
ATOM     21  O   UNL     1      -2.518  -0.157  23.811  0.00  0.00    -0.271 OA
ATOM     22  N   UNL     1      -1.931   0.424  24.977  0.00  0.00    -0.196 NA
BRANCH  22  23
ATOM     23  C   UNL     1      -1.244  -0.014  24.850  0.00  0.00    +0.179 C 
BRANCH  23  34
ATOM     34  C   UNL     1      -0.970  -0.528  25.434  0.00  0.00    +0.281 C 
ATOM     35  N   UNL     1      -0.944  -0.283  26.221  0.00  0.00    -0.086 NA
ATOM     36  O   UNL     1      -0.722  -1.288  25.229  0.00  0.00    -0.270 OA
ENDBRANCH  23  34
BRANCH  23  24
ATOM     24  C   UNL     1      -0.831   0.063  24.140  0.00  0.00    +0.059 C 
BRANCH  24  25
ATOM     25  C   UNL     1      -0.131   0.500  24.115  0.00  0.00    +0.001 A 
ATOM     26  C   UNL     1       0.064   1.131  24.607  0.00  0.00    +0.095 A 
ATOM     27  N   UNL     1       0.812   1.403  24.390  0.00  0.00    -0.244 NA
ATOM     28  C   UNL     1       1.079   0.939  23.762  0.00  0.00    +0.081 A 
ATOM     29  C   UNL     1       0.496   0.381  23.593  0.00  0.00    +0.015 A 
ATOM     30  C   UNL     1       0.612  -0.164  22.984  0.00  0.00    +0.001 A 
ATOM     31  C   UNL     1       1.310  -0.151  22.545  0.00  0.00    +0.000 A 
ATOM     32  C   UNL     1       1.894   0.408  22.715  0.00  0.00    +0.002 A 
ATOM     33  C   UNL     1       1.778   0.953  23.324  0.00  0.00    +0.019 A 
ENDBRANCH  24  25
ENDBRANCH  23  24
ENDBRANCH  22  23
ENDBRANCH  19  20
BRANCH   6   5
ATOM      5  C   UNL     1      -3.658  -0.875  24.405  0.00  0.00    +0.085 C 
BRANCH   5   2
ATOM      1  C   UNL     1      -4.087  -2.457  24.215  0.00  0.00    +0.000 C 
ATOM      2  C   UNL     1      -3.872  -1.666  24.309  0.00  0.00    +0.009 C 
ATOM      3  C   UNL     1      -3.822  -1.777  25.126  0.00  0.00    +0.000 C 
ATOM      4  C   UNL     1      -3.923  -1.556  23.494  0.00  0.00    +0.000 C 
ENDBRANCH   5   2
ENDBRANCH   6   5
TORSDOF 10
ENDMDL
MODEL 9
REMARK VINA RESULT:      -9.2      1.370      4.097
REMARK  Name = 
REMARK  10 active torsions:
REMARK  status: ('A' for Active; 'I' for Inactive)
REMARK    1  A    between atoms: C_2  and  C_5
REMARK    2  A    between atoms: C_5  and  C_6
REMARK    3  A    between atoms: C_11  and  N_12
REMARK    4  A    between atoms: N_15  and  C_16
REMARK    5  A    between atoms: C_16  and  C_17
REMARK    6  A    between atoms: C_19  and  C_20
REMARK    7  A    between atoms: N_22  and  C_23
REMARK    8  A    between atoms: C_23  and  C_24
REMARK    9  A    between atoms: C_23  and  C_34
REMARK   10  A    between atoms: C_24  and  C_25
REMARK                            x       y       z     vdW  Elec       q    Type
REMARK                         _______ _______ _______ _____ _____    ______ ____
ROOT
ATOM      6  C   UNL     1      -2.373  -1.765  24.735  0.00  0.00    +0.226 C 
ATOM      7  O   UNL     1      -2.041  -2.521  24.762  0.00  0.00    -0.275 OA
ATOM      8  N   UNL     1      -1.930  -1.112  24.976  0.00  0.00    -0.272 N 
ATOM      9  C   UNL     1      -1.154  -1.129  25.255  0.00  0.00    +0.096 C 
ATOM     10  C   UNL     1      -0.930  -0.355  25.432  0.00  0.00    +0.045 C 
ATOM     11  C   UNL     1      -1.568   0.140  25.262  0.00  0.00    +0.126 C 
ATOM     19  C   UNL     1      -2.186  -0.327  24.980  0.00  0.00    +0.174 C 
ENDROOT
BRANCH  11  12
ATOM     12  N   UNL     1      -1.585   0.960  25.357  0.00  0.00    -0.187 NA
ATOM     13  C   UNL     1      -0.890   1.398  25.279  0.00  0.00    +0.340 C 
ATOM     14  O   UNL     1      -0.179   1.017  25.107  0.00  0.00    -0.249 OA
ATOM     15  N   UNL     1      -0.907   2.218  25.375  0.00  0.00    -0.182 NA
BRANCH  15  16
ATOM     16  C   UNL     1      -0.213   2.656  25.297  0.00  0.00    +0.143 C 
BRANCH  16  17
ATOM     17  C   UNL     1      -0.205   3.456  25.500  0.00  0.00    -0.003 C 
ATOM     18  C   UNL     1      -0.435   4.024  24.947  0.00  0.00    -0.003 C 
ENDBRANCH  16  17
ENDBRANCH  15  16
ENDBRANCH  11  12
BRANCH  19  20
ATOM     20  C   UNL     1      -2.929  -0.060  24.743  0.00  0.00    +0.262 C 
ATOM     21  O   UNL     1      -3.224  -0.263  24.001  0.00  0.00    -0.271 OA
ATOM     22  N   UNL     1      -3.378   0.413  25.250  0.00  0.00    -0.196 NA
BRANCH  22  23
ATOM     23  C   UNL     1      -4.121   0.681  25.015  0.00  0.00    +0.179 C 
BRANCH  23  34
ATOM     34  C   UNL     1      -4.801   0.369  25.363  0.00  0.00    +0.281 C 
ATOM     35  N   UNL     1      -5.472   0.228  24.905  0.00  0.00    -0.086 NA
ATOM     36  O   UNL     1      -4.808   0.198  26.170  0.00  0.00    -0.270 OA
ENDBRANCH  23  34
BRANCH  23  24
ATOM     24  C   UNL     1      -4.185   1.261  24.432  0.00  0.00    +0.059 C 
BRANCH  24  25
ATOM     25  C   UNL     1      -4.255   2.055  24.646  0.00  0.00    +0.001 A 
ATOM     26  C   UNL     1      -4.511   2.339  25.376  0.00  0.00    +0.095 A 
ATOM     27  N   UNL     1      -4.496   3.164  25.348  0.00  0.00    -0.244 NA
ATOM     28  C   UNL     1      -4.230   3.389  24.600  0.00  0.00    +0.081 A 
ATOM     29  C   UNL     1      -4.082   2.704  24.166  0.00  0.00    +0.015 A 
ATOM     30  C   UNL     1      -3.807   2.759  23.390  0.00  0.00    +0.001 A 
ATOM     31  C   UNL     1      -3.682   3.499  23.048  0.00  0.00    +0.000 A 
ATOM     32  C   UNL     1      -3.831   4.184  23.483  0.00  0.00    +0.002 A 
ATOM     33  C   UNL     1      -4.105   4.129  24.259  0.00  0.00    +0.019 A 
ENDBRANCH  24  25
ENDBRANCH  23  24
ENDBRANCH  22  23
ENDBRANCH  19  20
BRANCH   6   5
ATOM      5  C   UNL     1      -3.145  -1.663  24.467  0.00  0.00    +0.085 C 
BRANCH   5   2
ATOM      1  C   UNL     1      -4.048  -2.974  24.029  0.00  0.00    +0.000 C 
ATOM      2  C   UNL     1      -3.597  -2.319  24.248  0.00  0.00    +0.009 C 
ATOM      3  C   UNL     1      -3.599  -2.055  23.466  0.00  0.00    +0.000 C 
ATOM      4  C   UNL     1      -3.594  -2.582  25.030  0.00  0.00    +0.000 C 
ENDBRANCH   5   2
ENDBRANCH   6   5
TORSDOF 10
ENDMDL
MODEL 10
REMARK VINA RESULT:      -9.0      1.444      3.510
REMARK  Name = 
REMARK  10 active torsions:
REMARK  status: ('A' for Active; 'I' for Inactive)
REMARK    1  A    between atoms: C_2  and  C_5
REMARK    2  A    between atoms: C_5  and  C_6
REMARK    3  A    between atoms: C_11  and  N_12
REMARK    4  A    between atoms: N_15  and  C_16
REMARK    5  A    between atoms: C_16  and  C_17
REMARK    6  A    between atoms: C_19  and  C_20
REMARK    7  A    between atoms: N_22  and  C_23
REMARK    8  A    between atoms: C_23  and  C_24
REMARK    9  A    between atoms: C_23  and  C_34
REMARK   10  A    between atoms: C_24  and  C_25
REMARK                            x       y       z     vdW  Elec       q    Type
REMARK                         _______ _______ _______ _____ _____    ______ ____
ROOT
ATOM      6  C   UNL     1      -4.871   2.564  25.337  0.00  0.00    +0.226 C 
ATOM      7  O   UNL     1      -5.394   2.873  25.897  0.00  0.00    -0.275 OA
ATOM      8  N   UNL     1      -4.821   1.748  25.227  0.00  0.00    -0.272 N 
ATOM      9  C   UNL     1      -5.256   1.176  25.632  0.00  0.00    +0.096 C 
ATOM     10  C   UNL     1      -5.031   0.435  25.348  0.00  0.00    +0.045 C 
ATOM     11  C   UNL     1      -4.456   0.550  24.766  0.00  0.00    +0.126 C 
ATOM     19  C   UNL     1      -4.326   1.360  24.691  0.00  0.00    +0.174 C 
ENDROOT
BRANCH  11  12
ATOM     12  N   UNL     1      -4.077  -0.044  24.335  0.00  0.00    -0.187 NA
ATOM     13  C   UNL     1      -3.993  -0.798  24.658  0.00  0.00    +0.340 C 
ATOM     14  O   UNL     1      -4.287  -0.960  25.411  0.00  0.00    -0.249 OA
ATOM     15  N   UNL     1      -3.614  -1.391  24.226  0.00  0.00    -0.182 NA
BRANCH  15  16
ATOM     16  C   UNL     1      -3.530  -2.145  24.549  0.00  0.00    +0.143 C 
BRANCH  16  17
ATOM     17  C   UNL     1      -3.124  -2.730  24.131  0.00  0.00    -0.003 C 
ATOM     18  C   UNL     1      -2.342  -2.908  24.324  0.00  0.00    -0.003 C 
ENDBRANCH  16  17
ENDBRANCH  15  16
ENDBRANCH  11  12
BRANCH  19  20
ATOM     20  C   UNL     1      -3.796   1.722  24.174  0.00  0.00    +0.262 C 
ATOM     21  O   UNL     1      -4.056   2.316  23.665  0.00  0.00    -0.271 OA
ATOM     22  N   UNL     1      -3.005   1.488  24.164  0.00  0.00    -0.196 NA
BRANCH  22  23
ATOM     23  C   UNL     1      -2.473   1.849  23.646  0.00  0.00    +0.179 C 
BRANCH  23  34
ATOM     34  C   UNL     1      -2.546   1.729  22.833  0.00  0.00    +0.281 C 
ATOM     35  N   UNL     1      -2.622   2.375  22.325  0.00  0.00    -0.086 NA
ATOM     36  O   UNL     1      -2.543   0.963  22.528  0.00  0.00    -0.270 OA
ENDBRANCH  23  34
BRANCH  23  24
ATOM     24  C   UNL     1      -1.871   2.329  23.941  0.00  0.00    +0.059 C 
BRANCH  24  25
ATOM     25  C   UNL     1      -1.238   1.991  24.349  0.00  0.00    +0.001 A 
ATOM     26  C   UNL     1      -0.923   1.241  24.220  0.00  0.00    +0.095 A 
ATOM     27  N   UNL     1      -0.300   1.131  24.751  0.00  0.00    -0.244 NA
ATOM     28  C   UNL     1      -0.231   1.815  25.207  0.00  0.00    +0.081 A 
ATOM     29  C   UNL     1      -0.811   2.346  24.959  0.00  0.00    +0.015 A 
ATOM     30  C   UNL     1      -0.875   3.085  25.321  0.00  0.00    +0.001 A 
ATOM     31  C   UNL     1      -0.359   3.293  25.930  0.00  0.00    +0.000 A 
ATOM     32  C   UNL     1       0.222   2.760  26.178  0.00  0.00    +0.002 A 
ATOM     33  C   UNL     1       0.286   2.021  25.816  0.00  0.00    +0.019 A 
ENDBRANCH  24  25
ENDBRANCH  23  24
ENDBRANCH  22  23
ENDBRANCH  19  20
BRANCH   6   5
ATOM      5  C   UNL     1      -4.400   3.070  24.890  0.00  0.00    +0.085 C 
BRANCH   5   2
ATOM      1  C   UNL     1      -4.427   4.695  25.178  0.00  0.00    +0.000 C 
ATOM      2  C   UNL     1      -4.413   3.883  25.034  0.00  0.00    +0.009 C 
ATOM      3  C   UNL     1      -4.815   4.002  24.323  0.00  0.00    +0.000 C 
ATOM      4  C   UNL     1      -4.011   3.764  25.745  0.00  0.00    +0.000 C 
ENDBRANCH   5   2
ENDBRANCH   6   5
TORSDOF 10
ENDMDL
