MODEL 1
REMARK VINA RESULT:      -9.9      0.000      0.000
REMARK  Name = 
REMARK  6 active torsions:
REMARK  status: ('A' for Active; 'I' for Inactive)
REMARK    1  A    between atoms: C_2  and  C_4
REMARK    2  A    between atoms: C_7  and  N_8
REMARK    3  A    between atoms: N_11  and  C_12
REMARK    4  A    between atoms: C_12  and  C_13
REMARK    5  A    between atoms: C_20  and  C_21
REMARK    6  A    between atoms: C_23  and  C_28
REMARK                            x       y       z     vdW  Elec       q    Type
REMARK                         _______ _______ _______ _____ _____    ______ ____
ROOT
ATOM     13  C   UNL     1      -0.581   1.251  23.669  0.00  0.00    +0.079 C 
ATOM     14  C   UNL     1      -1.225   1.449  23.280  0.00  0.00    +0.018 C 
ATOM     15  C   UNL     1      -1.984   1.288  23.512  0.00  0.00    +0.010 C 
ATOM     16  C   UNL     1      -2.586   1.601  22.924  0.00  0.00    +0.018 C 
ATOM     17  C   UNL     1      -1.987   1.489  23.160  0.00  0.00    +0.072 C 
ATOM     18  N   UNL     1      -1.358   1.091  23.898  0.00  0.00    -0.272 NA
ATOM     19  C   UNL     1      -1.703   0.663  24.627  0.00  0.00    +0.078 C 
ATOM     20  C   UNL     1      -2.309   0.876  24.214  0.00  0.00    +0.056 C 
ENDROOT
BRANCH  20  21
ATOM     21  C   UNL     1      -3.105   0.744  24.393  0.00  0.00    +0.063 A 
ATOM     22  C   UNL     1      -3.569   1.361  24.684  0.00  0.00    +0.037 A 
ATOM     23  C   UNL     1      -4.363   1.230  24.862  0.00  0.00    +0.118 A 
ATOM     24  N   UNL     1      -4.694   0.482  24.749  0.00  0.00    -0.228 NA
ATOM     25  C   UNL     1      -4.229  -0.134  24.458  0.00  0.00    +0.139 A 
ATOM     26  C   UNL     1      -4.559  -0.882  24.345  0.00  0.00    +0.074 C 
ATOM     27  N   UNL     1      -3.434  -0.003  24.280  0.00  0.00    -0.235 NA
BRANCH  23  28
ATOM     28  C   UNL     1      -4.829   1.846  25.153  0.00  0.00    +0.163 A 
ATOM     29  C   UNL     1      -5.639   1.941  25.029  0.00  0.00    +0.042 A 
ATOM     30  C   UNL     1      -5.877   2.629  25.419  0.00  0.00    +0.044 A 
ATOM     31  C   UNL     1      -5.214   2.958  25.782  0.00  0.00    +0.180 A 
ATOM     32  O   UNL     1      -4.566   2.474  25.618  0.00  0.00    -0.449 OA
ENDBRANCH  23  28
ENDBRANCH  20  21
BRANCH  13  12
ATOM     12  C   UNL     1       0.237   1.223  23.772  0.00  0.00    +0.133 C 
BRANCH  12  11
ATOM      8  N   UNL     1       1.998   0.403  22.778  0.00  0.00    -0.161 NA
ATOM      9  C   UNL     1       1.525   0.786  23.334  0.00  0.00    +0.344 C 
ATOM     10  O   UNL     1       1.866   1.114  24.009  0.00  0.00    -0.249 OA
ATOM     11  N   UNL     1       0.710   0.840  23.215  0.00  0.00    -0.185 NA
BRANCH   8   7
ATOM      4  C   UNL     1       4.441   0.239  23.133  0.00  0.00    +0.035 A 
ATOM      5  C   UNL     1       4.113   0.937  22.843  0.00  0.00    +0.004 A 
ATOM      6  C   UNL     1       3.298   0.993  22.724  0.00  0.00    +0.017 A 
ATOM      7  C   UNL     1       2.812   0.349  22.896  0.00  0.00    +0.075 A 
ATOM     33  C   UNL     1       3.141  -0.351  23.186  0.00  0.00    +0.017 A 
ATOM     34  C   UNL     1       3.955  -0.405  23.304  0.00  0.00    +0.004 A 
BRANCH   4   2
ATOM      1  C   UNL     1       5.588   0.443  23.962  0.00  0.00    +0.077 C 
ATOM      2  C   UNL     1       5.256   0.185  23.251  0.00  0.00    +0.173 C 
ATOM      3  O   UNL     1       5.740  -0.128  22.660  0.00  0.00    -0.291 OA
ENDBRANCH   4   2
ENDBRANCH   8   7
ENDBRANCH  12  11
ENDBRANCH  13  12
TORSDOF 6
ENDMDL
MODEL 2
REMARK VINA RESULT:      -9.0      1.093      2.036
REMARK  Name = 
REMARK  6 active torsions:
REMARK  status: ('A' for Active; 'I' for Inactive)
REMARK    1  A    between atoms: C_2  and  C_4
REMARK    2  A    between atoms: C_7  and  N_8
REMARK    3  A    between atoms: N_11  and  C_12
REMARK    4  A    between atoms: C_12  and  C_13
REMARK    5  A    between atoms: C_20  and  C_21
REMARK    6  A    between atoms: C_23  and  C_28
REMARK                            x       y       z     vdW  Elec       q    Type
REMARK                         _______ _______ _______ _____ _____    ______ ____
ROOT
ATOM     13  C   UNL     1      -0.394   1.300  23.688  0.00  0.00    +0.079 C 
ATOM     14  C   UNL     1      -1.095   1.475  23.398  0.00  0.00    +0.018 C 
ATOM     15  C   UNL     1      -1.800   1.163  23.646  0.00  0.00    +0.010 C 
ATOM     16  C   UNL     1      -2.493   1.494  23.184  0.00  0.00    +0.018 C 
ATOM     17  C   UNL     1      -1.864   1.426  23.346  0.00  0.00    +0.072 C 
ATOM     18  N   UNL     1      -1.117   0.986  23.935  0.00  0.00    -0.272 NA
ATOM     19  C   UNL     1      -1.328   0.377  24.580  0.00  0.00    +0.078 C 
ATOM     20  C   UNL     1      -1.996   0.576  24.268  0.00  0.00    +0.056 C 
ENDROOT
BRANCH  20  21
ATOM     21  C   UNL     1      -2.746   0.297  24.473  0.00  0.00    +0.063 A 
ATOM     22  C   UNL     1      -2.944  -0.492  24.334  0.00  0.00    +0.037 A 
ATOM     23  C   UNL     1      -3.693  -0.769  24.538  0.00  0.00    +0.118 A 
ATOM     24  N   UNL     1      -4.244  -0.260  24.881  0.00  0.00    -0.228 NA
ATOM     25  C   UNL     1      -4.045   0.529  25.020  0.00  0.00    +0.139 A 
ATOM     26  C   UNL     1      -4.595   1.039  25.363  0.00  0.00    +0.074 C 
ATOM     27  N   UNL     1      -3.295   0.807  24.815  0.00  0.00    -0.235 NA
BRANCH  23  28
ATOM     28  C   UNL     1      -3.893  -1.558  24.400  0.00  0.00    +0.163 A 
ATOM     29  C   UNL     1      -4.335  -1.841  23.763  0.00  0.00    +0.042 A 
ATOM     30  C   UNL     1      -4.401  -2.660  23.843  0.00  0.00    +0.044 A 
ATOM     31  C   UNL     1      -4.000  -2.882  24.529  0.00  0.00    +0.180 A 
ATOM     32  O   UNL     1      -3.686  -2.201  24.872  0.00  0.00    -0.449 OA
ENDBRANCH  23  28
ENDBRANCH  20  21
BRANCH  13  12
ATOM     12  C   UNL     1       0.426   1.371  23.722  0.00  0.00    +0.133 C 
BRANCH  12  11
ATOM      8  N   UNL     1       2.180   0.477  22.780  0.00  0.00    -0.161 NA
ATOM      9  C   UNL     1       1.708   0.882  23.321  0.00  0.00    +0.344 C 
ATOM     10  O   UNL     1       2.044   1.203  24.003  0.00  0.00    -0.249 OA
ATOM     11  N   UNL     1       0.899   0.966  23.181  0.00  0.00    -0.185 NA
BRANCH   8   7
ATOM      4  C   UNL     1       4.605   0.223  23.200  0.00  0.00    +0.035 A 
ATOM      5  C   UNL     1       4.314   0.924  22.879  0.00  0.00    +0.004 A 
ATOM      6  C   UNL     1       3.505   1.009  22.739  0.00  0.00    +0.017 A 
ATOM      7  C   UNL     1       2.988   0.392  22.920  0.00  0.00    +0.075 A 
ATOM     33  C   UNL     1       3.280  -0.310  23.241  0.00  0.00    +0.017 A 
ATOM     34  C   UNL     1       4.088  -0.394  23.381  0.00  0.00    +0.004 A 
BRANCH   4   2
ATOM      1  C   UNL     1       5.731   0.355  24.071  0.00  0.00    +0.077 C 
ATOM      2  C   UNL     1       5.414   0.139  23.340  0.00  0.00    +0.173 C 
ATOM      3  O   UNL     1       5.907  -0.162  22.750  0.00  0.00    -0.291 OA
ENDBRANCH   4   2
ENDBRANCH   8   7
ENDBRANCH  12  11
ENDBRANCH  13  12
TORSDOF 6
ENDMDL
MODEL 3
REMARK VINA RESULT:      -6.1     16.106     17.581
REMARK  Name = 
REMARK  6 active torsions:
REMARK  status: ('A' for Active; 'I' for Inactive)
REMARK    1  A    between atoms: C_2  and  C_4
REMARK    2  A    between atoms: C_7  and  N_8
REMARK    3  A    between atoms: N_11  and  C_12
REMARK    4  A    between atoms: C_12  and  C_13
REMARK    5  A    between atoms: C_20  and  C_21
REMARK    6  A    between atoms: C_23  and  C_28
REMARK                            x       y       z     vdW  Elec       q    Type
REMARK                         _______ _______ _______ _____ _____    ______ ____
ROOT
ATOM     13  C   UNL     1      13.278  -5.571  31.543  0.00  0.00    +0.079 C 
ATOM     14  C   UNL     1      12.913  -5.983  30.993  0.00  0.00    +0.018 C 
ATOM     15  C   UNL     1      12.474  -6.652  31.117  0.00  0.00    +0.010 C 
ATOM     16  C   UNL     1      12.136  -6.976  30.352  0.00  0.00    +0.018 C 
ATOM     17  C   UNL     1      12.477  -6.560  30.723  0.00  0.00    +0.072 C 
ATOM     18  N   UNL     1      12.829  -6.254  31.662  0.00  0.00    -0.272 NA
ATOM     19  C   UNL     1      12.621  -6.725  32.416  0.00  0.00    +0.078 C 
ATOM     20  C   UNL     1      12.278  -7.100  31.846  0.00  0.00    +0.056 C 
ENDROOT
BRANCH  20  21
ATOM     21  C   UNL     1      11.819  -7.783  31.904  0.00  0.00    +0.063 A 
ATOM     22  C   UNL     1      11.006  -7.724  32.030  0.00  0.00    +0.037 A 
ATOM     23  C   UNL     1      10.548  -8.407  32.087  0.00  0.00    +0.118 A 
ATOM     24  N   UNL     1      10.902  -9.149  32.019  0.00  0.00    -0.228 NA
ATOM     25  C   UNL     1      11.715  -9.208  31.893  0.00  0.00    +0.139 A 
ATOM     26  C   UNL     1      12.070  -9.950  31.824  0.00  0.00    +0.074 C 
ATOM     27  N   UNL     1      12.174  -8.524  31.835  0.00  0.00    -0.235 NA
BRANCH  23  28
ATOM     28  C   UNL     1       9.734  -8.349  32.213  0.00  0.00    +0.163 A 
ATOM     29  C   UNL     1       9.369  -8.015  32.873  0.00  0.00    +0.042 A 
ATOM     30  C   UNL     1       8.553  -8.074  32.769  0.00  0.00    +0.044 A 
ATOM     31  C   UNL     1       8.414  -8.445  32.046  0.00  0.00    +0.180 A 
ATOM     32  O   UNL     1       9.144  -8.615  31.702  0.00  0.00    -0.449 OA
ENDBRANCH  23  28
ENDBRANCH  20  21
BRANCH  13  12
ATOM     12  C   UNL     1      13.746  -4.945  31.805  0.00  0.00    +0.133 C 
BRANCH  12  11
ATOM      8  N   UNL     1      15.504  -3.826  31.154  0.00  0.00    -0.161 NA
ATOM      9  C   UNL     1      14.826  -4.037  31.574  0.00  0.00    +0.344 C 
ATOM     10  O   UNL     1      14.549  -3.553  32.181  0.00  0.00    -0.249 OA
ATOM     11  N   UNL     1      14.424  -4.734  31.385  0.00  0.00    -0.185 NA
BRANCH   8   7
ATOM      4  C   UNL     1      16.708  -1.740  31.718  0.00  0.00    +0.035 A 
ATOM      5  C   UNL     1      16.339  -1.817  30.985  0.00  0.00    +0.004 A 
ATOM      6  C   UNL     1      15.937  -2.513  30.797  0.00  0.00    +0.017 A 
ATOM      7  C   UNL     1      15.905  -3.131  31.342  0.00  0.00    +0.075 A 
ATOM     33  C   UNL     1      16.275  -3.053  32.076  0.00  0.00    +0.017 A 
ATOM     34  C   UNL     1      16.676  -2.358  32.264  0.00  0.00    +0.004 A 
BRANCH   4   2
ATOM      1  C   UNL     1      17.405  -0.930  32.668  0.00  0.00    +0.077 C 
ATOM      2  C   UNL     1      17.110  -1.043  31.906  0.00  0.00    +0.173 C 
ATOM      3  O   UNL     1      17.215  -0.460  31.332  0.00  0.00    -0.291 OA
ENDBRANCH   4   2
ENDBRANCH   8   7
ENDBRANCH  12  11
ENDBRANCH  13  12
TORSDOF 6
ENDMDL
