REMARK  Name = 
REMARK  9 active torsions:
REMARK  status: ('A' for Active; 'I' for Inactive)
REMARK    1  A    between atoms: N_2  and  C_3
REMARK    2  A    between atoms: N_2  and  C_22
REMARK    3  A    between atoms: C_3  and  C_4
REMARK    4  A    between atoms: C_6  and  C_7
REMARK    5  A    between atoms: C_7  and  C_8
REMARK    6  A    between atoms: C_8  and  N_12
REMARK    7  A    between atoms: N_12  and  C_13
REMARK    8  A    between atoms: C_13  and  C_14
REMARK    9  A    between atoms: C_22  and  C_23
REMARK                            x       y       z     vdW  Elec       q    Type
REMARK                         _______ _______ _______ _____ _____    ______ ____
ROOT
ATOM      4  C   UNL     1      -6.645  -2.092   0.000  0.00  0.00    +0.170 A 
ATOM      5  C   UNL     1      -5.953  -1.642   0.000  0.00  0.00    +0.055 A 
ATOM      6  C   UNL     1      -5.312  -2.162   0.000  0.00  0.00    +0.102 A 
ATOM     20  N   UNL     1      -5.607  -2.932   0.000  0.00  0.00    -0.082 NA
ATOM     21  O   UNL     1      -6.431  -2.889   0.000  0.00  0.00    -0.357 OA
ENDROOT
BRANCH   4   3
ATOM      3  C   UNL     1      -7.415  -1.796   0.000  0.00  0.00    +0.141 C 
BRANCH   3   2
ATOM      1  C   UNL     1      -6.903  -0.462   0.000  0.00  0.00    +0.090 C 
ATOM      2  N   UNL     1      -7.544  -0.981   0.000  0.00  0.00    -0.261 NA
BRANCH   2  22
ATOM     22  C   UNL     1      -8.314  -0.686   0.000  0.00  0.00    +0.100 C 
BRANCH  22  23
ATOM     23  C   UNL     1      -8.956  -1.205   0.000  0.00  0.00    -0.006 A 
ATOM     24  C   UNL     1      -8.826  -2.020   0.000  0.00  0.00    -0.003 A 
ATOM     25  C   UNL     1      -9.467  -2.539   0.000  0.00  0.00    -0.000 A 
ATOM     26  C   UNL     1     -10.238  -2.243   0.000  0.00  0.00    -0.000 A 
ATOM     27  C   UNL     1     -10.367  -1.428   0.000  0.00  0.00    -0.000 A 
ATOM     28  C   UNL     1      -9.726  -0.909   0.000  0.00  0.00    -0.003 A 
ENDBRANCH  22  23
ENDBRANCH   2  22
ENDBRANCH   3   2
ENDBRANCH   4   3
BRANCH   6   7
ATOM      7  C   UNL     1      -4.515  -1.948   0.000  0.00  0.00    +0.070 C 
BRANCH   7   8
ATOM      8  C   UNL     1      -3.932  -2.531   0.000  0.00  0.00    +0.119 C 
ATOM      9  C   UNL     1      -3.348  -3.115   0.000  0.00  0.00    +0.161 C 
ATOM     10  O   UNL     1      -3.932  -3.698   0.000  0.00  0.00    -0.351 OA
ATOM     11  C   UNL     1      -4.515  -3.115   0.000  0.00  0.00    +0.161 C 
BRANCH   8  12
ATOM     12  N   UNL     1      -3.348  -1.948   0.000  0.00  0.00    -0.215 NA
BRANCH  12  13
ATOM     13  C   UNL     1      -3.562  -1.151   0.000  0.00  0.00    +0.089 C 
BRANCH  13  14
ATOM     14  C   UNL     1      -2.978  -0.568   0.000  0.00  0.00    +0.017 C 
ATOM     15  C   UNL     1      -3.192   0.229   0.000  0.00  0.00    +0.001 C 
ATOM     16  C   UNL     1      -2.608   0.812   0.000  0.00  0.00    +0.000 C 
ATOM     17  C   UNL     1      -1.812   0.599   0.000  0.00  0.00    +0.000 C 
ATOM     18  C   UNL     1      -1.598  -0.198   0.000  0.00  0.00    +0.000 C 
ATOM     19  C   UNL     1      -2.182  -0.781   0.000  0.00  0.00    +0.001 C 
ENDBRANCH  13  14
ENDBRANCH  12  13
ENDBRANCH   8  12
ENDBRANCH   7   8
ENDBRANCH   6   7
TORSDOF 9
