REMARK  Name = 
REMARK  8 active torsions:
REMARK  status: ('A' for Active; 'I' for Inactive)
REMARK    1  A    between atoms: C_2  and  C_5
REMARK    2  A    between atoms: C_5  and  C_6
REMARK    3  A    between atoms: N_8  and  C_9
REMARK    4  A    between atoms: C_9  and  C_10
REMARK    5  A    between atoms: C_13  and  N_14
REMARK    6  A    between atoms: N_14  and  C_15
REMARK    7  A    between atoms: C_15  and  C_16
REMARK    8  A    between atoms: C_20  and  C_22
REMARK                            x       y       z     vdW  Elec       q    Type
REMARK                         _______ _______ _______ _____ _____    ______ ____
ROOT
ATOM     10  C   UNL     1       0.000  -2.475   0.000  0.00  0.00    +0.169 C 
ATOM     11  O   UNL     1       0.667  -2.960   0.000  0.00  0.00    -0.350 OA
ATOM     12  C   UNL     1       0.412  -3.744   0.000  0.00  0.00    +0.162 C 
ATOM     13  C   UNL     1      -0.412  -3.744   0.000  0.00  0.00    +0.135 C 
ATOM     24  C   UNL     1      -0.667  -2.960   0.000  0.00  0.00    +0.199 C 
ATOM     25  O   UNL     1      -1.452  -2.705   0.000  0.00  0.00    -0.219 OA
ENDROOT
BRANCH  10   9
ATOM      9  C   UNL     1       0.000  -1.650   0.000  0.00  0.00    +0.147 C 
BRANCH   9   8
ATOM      6  C   UNL     1       0.715  -0.412   0.000  0.00  0.00    +0.241 C 
ATOM      7  O   UNL     1       0.000   0.000   0.000  0.00  0.00    -0.273 OA
ATOM      8  N   UNL     1       0.715  -1.238   0.000  0.00  0.00    -0.203 NA
BRANCH   6   5
ATOM      5  C   UNL     1       1.429   0.000   0.000  0.00  0.00    +0.087 C 
BRANCH   5   2
ATOM      1  C   UNL     1       1.429   1.650   0.000  0.00  0.00    +0.000 C 
ATOM      2  C   UNL     1       1.429   0.825   0.000  0.00  0.00    +0.009 C 
ATOM      3  C   UNL     1       0.604   0.825   0.000  0.00  0.00    +0.000 C 
ATOM      4  C   UNL     1       2.254   0.825   0.000  0.00  0.00    +0.000 C 
ENDBRANCH   5   2
ENDBRANCH   6   5
ENDBRANCH   9   8
ENDBRANCH  10   9
BRANCH  13  14
ATOM     14  N   UNL     1      -0.897  -4.412   0.000  0.00  0.00    -0.209 NA
BRANCH  14  15
ATOM     15  C   UNL     1      -1.718  -4.326   0.000  0.00  0.00    +0.115 C 
BRANCH  15  16
ATOM     16  C   UNL     1      -2.203  -4.993   0.000  0.00  0.00    -0.004 A 
ATOM     17  C   UNL     1      -1.867  -5.747   0.000  0.00  0.00    -0.003 A 
ATOM     18  C   UNL     1      -2.352  -6.414   0.000  0.00  0.00    +0.000 A 
ATOM     19  C   UNL     1      -3.173  -6.328   0.000  0.00  0.00    +0.010 A 
ATOM     20  C   UNL     1      -3.508  -5.574   0.000  0.00  0.00    +0.068 A 
ATOM     21  C   UNL     1      -3.023  -4.907   0.000  0.00  0.00    +0.007 A 
BRANCH  20  22
ATOM     22  C   UNL     1      -4.329  -5.488   0.000  0.00  0.00    +0.100 C 
ATOM     23  N   UNL     1      -5.149  -5.402   0.000  0.00  0.00    -0.191 NA
ENDBRANCH  20  22
ENDBRANCH  15  16
ENDBRANCH  14  15
ENDBRANCH  13  14
TORSDOF 8
