MODEL 1
REMARK VINA RESULT:      -9.9      0.000      0.000
REMARK  Name = 
REMARK  7 active torsions:
REMARK  status: ('A' for Active; 'I' for Inactive)
REMARK    1  A    between atoms: N_4  and  C_24
REMARK    2  A    between atoms: C_7  and  C_8
REMARK    3  A    between atoms: C_10  and  N_11
REMARK    4  A    between atoms: C_12  and  C_14
REMARK    5  A    between atoms: C_14  and  O_15
REMARK    6  A    between atoms: O_15  and  C_16
REMARK    7  A    between atoms: C_27  and  C_30
REMARK                            x       y       z     vdW  Elec       q    Type
REMARK                         _______ _______ _______ _____ _____    ______ ____
ROOT
ATOM      1  C   UNL     1      -2.112   1.560  22.255  0.00  0.00    +0.054 C 
ATOM      2  C   UNL     1      -2.407   1.699  23.014  0.00  0.00    +0.077 A 
ATOM      3  N   UNL     1      -3.120   2.071  23.196  0.00  0.00    -0.170 NA
ATOM      4  N   UNL     1      -3.193   2.092  24.017  0.00  0.00    -0.234 N 
ATOM      5  C   UNL     1      -2.526   1.733  24.343  0.00  0.00    +0.058 A 
ATOM      6  C   UNL     1      -2.372   1.634  25.148  0.00  0.00    +0.052 C 
ATOM      7  C   UNL     1      -2.039   1.490  23.722  0.00  0.00    +0.010 A 
ENDROOT
BRANCH   4  24
ATOM     24  C   UNL     1      -3.824   2.416  24.440  0.00  0.00    +0.082 A 
ATOM     25  C   UNL     1      -3.755   3.167  24.772  0.00  0.00    +0.019 A 
ATOM     26  C   UNL     1      -4.386   3.491  25.195  0.00  0.00    +0.005 A 
ATOM     27  C   UNL     1      -5.085   3.063  25.285  0.00  0.00    +0.072 A 
ATOM     28  C   UNL     1      -5.154   2.311  24.952  0.00  0.00    +0.005 A 
ATOM     29  C   UNL     1      -4.523   1.987  24.529  0.00  0.00    +0.019 A 
BRANCH  27  30
ATOM     30  C   UNL     1      -5.716   3.387  25.707  0.00  0.00    +0.419 C 
ATOM     31  F   UNL     1      -6.346   3.709  26.130  0.00  0.00    -0.166 F 
ATOM     32  F   UNL     1      -5.632   4.094  25.290  0.00  0.00    -0.166 F 
ATOM     33  F   UNL     1      -5.799   2.680  26.124  0.00  0.00    -0.166 F 
ENDBRANCH  27  30
ENDBRANCH   4  24
BRANCH   7   8
ATOM      8  C   UNL     1      -1.313   1.105  23.798  0.00  0.00    +0.048 C 
ATOM      9  C   UNL     1      -0.570   1.456  23.741  0.00  0.00    +0.035 C 
ATOM     10  C   UNL     1      -0.001   0.869  23.852  0.00  0.00    +0.118 C 
ATOM     22  C   UNL     1      -0.394   0.154  23.978  0.00  0.00    -0.009 C 
ATOM     23  C   UNL     1      -1.205   0.300  23.944  0.00  0.00    -0.025 C 
BRANCH  10  11
ATOM     11  N   UNL     1       0.817   0.976  23.840  0.00  0.00    -0.200 NA
ATOM     12  C   UNL     1       1.275   0.594  23.270  0.00  0.00    +0.286 C 
ATOM     13  O   UNL     1       0.916   0.105  22.712  0.00  0.00    -0.269 OA
BRANCH  12  14
ATOM     14  C   UNL     1       2.093   0.702  23.259  0.00  0.00    +0.291 C 
BRANCH  14  15
ATOM     15  O   UNL     1       2.574   0.165  22.858  0.00  0.00    -0.466 OA
BRANCH  15  16
ATOM     16  C   UNL     1       3.391   0.182  22.968  0.00  0.00    +0.139 A 
ATOM     17  C   UNL     1       3.775  -0.460  23.317  0.00  0.00    +0.037 A 
ATOM     18  C   UNL     1       4.592  -0.443  23.427  0.00  0.00    +0.003 A 
ATOM     19  C   UNL     1       5.027   0.217  23.189  0.00  0.00    +0.000 A 
ATOM     20  C   UNL     1       4.644   0.859  22.840  0.00  0.00    +0.003 A 
ATOM     21  C   UNL     1       3.827   0.842  22.730  0.00  0.00    +0.037 A 
ENDBRANCH  15  16
ENDBRANCH  14  15
ENDBRANCH  12  14
ENDBRANCH  10  11
ENDBRANCH   7   8
TORSDOF 7
ENDMDL
MODEL 2
REMARK VINA RESULT:      -9.2      3.782      4.646
REMARK  Name = 
REMARK  7 active torsions:
REMARK  status: ('A' for Active; 'I' for Inactive)
REMARK    1  A    between atoms: N_4  and  C_24
REMARK    2  A    between atoms: C_7  and  C_8
REMARK    3  A    between atoms: C_10  and  N_11
REMARK    4  A    between atoms: C_12  and  C_14
REMARK    5  A    between atoms: C_14  and  O_15
REMARK    6  A    between atoms: O_15  and  C_16
REMARK    7  A    between atoms: C_27  and  C_30
REMARK                            x       y       z     vdW  Elec       q    Type
REMARK                         _______ _______ _______ _____ _____    ______ ____
ROOT
ATOM      1  C   UNL     1      -3.630   2.731  24.573  0.00  0.00    +0.054 C 
ATOM      2  C   UNL     1      -3.358   1.953  24.609  0.00  0.00    +0.077 A 
ATOM      3  N   UNL     1      -3.796   1.278  24.430  0.00  0.00    -0.170 NA
ATOM      4  N   UNL     1      -3.308   0.621  24.540  0.00  0.00    -0.234 N 
ATOM      5  C   UNL     1      -2.569   0.891  24.788  0.00  0.00    +0.058 A 
ATOM      6  C   UNL     1      -1.914   0.420  24.962  0.00  0.00    +0.052 C 
ATOM      7  C   UNL     1      -2.600   1.715  24.831  0.00  0.00    +0.010 A 
ENDROOT
BRANCH   4  24
ATOM     24  C   UNL     1      -3.522  -0.168  24.424  0.00  0.00    +0.082 A 
ATOM     25  C   UNL     1      -3.661  -0.657  25.073  0.00  0.00    +0.019 A 
ATOM     26  C   UNL     1      -3.875  -1.445  24.956  0.00  0.00    +0.005 A 
ATOM     27  C   UNL     1      -3.950  -1.744  24.192  0.00  0.00    +0.072 A 
ATOM     28  C   UNL     1      -3.811  -1.254  23.542  0.00  0.00    +0.005 A 
ATOM     29  C   UNL     1      -3.597  -0.465  23.658  0.00  0.00    +0.019 A 
BRANCH  27  30
ATOM     30  C   UNL     1      -4.164  -2.532  24.075  0.00  0.00    +0.419 C 
ATOM     31  F   UNL     1      -4.377  -3.320  23.959  0.00  0.00    -0.166 F 
ATOM     32  F   UNL     1      -4.753  -2.295  23.548  0.00  0.00    -0.166 F 
ATOM     33  F   UNL     1      -3.575  -2.769  24.602  0.00  0.00    -0.166 F 
ENDBRANCH  27  30
ENDBRANCH   4  24
BRANCH   7   8
ATOM      8  C   UNL     1      -1.980   2.211  25.055  0.00  0.00    +0.048 C 
ATOM      9  C   UNL     1      -1.644   2.260  25.806  0.00  0.00    +0.035 C 
ATOM     10  C   UNL     1      -1.045   2.825  25.782  0.00  0.00    +0.118 C 
ATOM     22  C   UNL     1      -1.010   3.127  25.015  0.00  0.00    -0.009 C 
ATOM     23  C   UNL     1      -1.587   2.748  24.566  0.00  0.00    -0.025 C 
BRANCH  10  11
ATOM     11  N   UNL     1      -0.564   3.050  26.414  0.00  0.00    -0.200 NA
ATOM     12  C   UNL     1       0.176   2.699  26.515  0.00  0.00    +0.286 C 
ATOM     13  O   UNL     1       0.435   2.122  25.986  0.00  0.00    -0.269 OA
BRANCH  12  14
ATOM     14  C   UNL     1       0.656   2.925  27.147  0.00  0.00    +0.291 C 
BRANCH  14  15
ATOM     15  O   UNL     1       1.175   2.381  27.486  0.00  0.00    -0.466 OA
BRANCH  15  16
ATOM     16  C   UNL     1       1.476   2.514  28.242  0.00  0.00    +0.139 A 
ATOM     17  C   UNL     1       1.025   2.320  28.906  0.00  0.00    +0.037 A 
ATOM     18  C   UNL     1       1.326   2.453  29.663  0.00  0.00    +0.003 A 
ATOM     19  C   UNL     1       2.077   2.780  29.756  0.00  0.00    +0.000 A 
ATOM     20  C   UNL     1       2.528   2.973  29.093  0.00  0.00    +0.003 A 
ATOM     21  C   UNL     1       2.228   2.841  28.337  0.00  0.00    +0.037 A 
ENDBRANCH  15  16
ENDBRANCH  14  15
ENDBRANCH  12  14
ENDBRANCH  10  11
ENDBRANCH   7   8
TORSDOF 7
ENDMDL
MODEL 3
REMARK VINA RESULT:      -9.1      4.078      5.124
REMARK  Name = 
REMARK  7 active torsions:
REMARK  status: ('A' for Active; 'I' for Inactive)
REMARK    1  A    between atoms: N_4  and  C_24
REMARK    2  A    between atoms: C_7  and  C_8
REMARK    3  A    between atoms: C_10  and  N_11
REMARK    4  A    between atoms: C_12  and  C_14
REMARK    5  A    between atoms: C_14  and  O_15
REMARK    6  A    between atoms: O_15  and  C_16
REMARK    7  A    between atoms: C_27  and  C_30
REMARK                            x       y       z     vdW  Elec       q    Type
REMARK                         _______ _______ _______ _____ _____    ______ ____
ROOT
ATOM      1  C   UNL     1      -5.533   3.197  25.743  0.00  0.00    +0.054 C 
ATOM      2  C   UNL     1      -4.751   3.213  25.479  0.00  0.00    +0.077 A 
ATOM      3  N   UNL     1      -4.239   3.858  25.520  0.00  0.00    -0.170 NA
ATOM      4  N   UNL     1      -3.516   3.631  25.194  0.00  0.00    -0.234 N 
ATOM      5  C   UNL     1      -3.581   2.845  24.952  0.00  0.00    +0.058 A 
ATOM      6  C   UNL     1      -2.987   2.396  24.596  0.00  0.00    +0.052 C 
ATOM      7  C   UNL     1      -4.345   2.587  25.129  0.00  0.00    +0.010 A 
ENDROOT
BRANCH   4  24
ATOM     24  C   UNL     1      -2.845   4.106  25.123  0.00  0.00    +0.082 A 
ATOM     25  C   UNL     1      -2.298   4.140  25.739  0.00  0.00    +0.019 A 
ATOM     26  C   UNL     1      -1.626   4.615  25.668  0.00  0.00    +0.005 A 
ATOM     27  C   UNL     1      -1.503   5.055  24.982  0.00  0.00    +0.072 A 
ATOM     28  C   UNL     1      -2.051   5.021  24.365  0.00  0.00    +0.005 A 
ATOM     29  C   UNL     1      -2.722   4.545  24.436  0.00  0.00    +0.019 A 
BRANCH  27  30
ATOM     30  C   UNL     1      -0.832   5.530  24.911  0.00  0.00    +0.419 C 
ATOM     31  F   UNL     1      -0.162   6.005  24.839  0.00  0.00    -0.166 F 
ATOM     32  F   UNL     1      -0.404   4.883  24.629  0.00  0.00    -0.166 F 
ATOM     33  F   UNL     1      -1.260   6.176  25.192  0.00  0.00    -0.166 F 
ENDBRANCH  27  30
ENDBRANCH   4  24
BRANCH   7   8
ATOM      8  C   UNL     1      -4.648   1.834  24.979  0.00  0.00    +0.048 C 
ATOM      9  C   UNL     1      -4.210   1.164  24.782  0.00  0.00    +0.035 C 
ATOM     10  C   UNL     1      -4.734   0.536  24.682  0.00  0.00    +0.118 C 
ATOM     22  C   UNL     1      -5.498   0.817  24.819  0.00  0.00    -0.009 C 
ATOM     23  C   UNL     1      -5.445   1.619  25.002  0.00  0.00    -0.025 C 
BRANCH  10  11
ATOM     11  N   UNL     1      -4.532  -0.238  24.482  0.00  0.00    -0.200 NA
ATOM     12  C   UNL     1      -4.250  -0.755  25.060  0.00  0.00    +0.286 C 
ATOM     13  O   UNL     1      -4.169  -0.498  25.840  0.00  0.00    -0.269 OA
BRANCH  12  14
ATOM     14  C   UNL     1      -4.048  -1.529  24.858  0.00  0.00    +0.291 C 
BRANCH  14  15
ATOM     15  O   UNL     1      -3.458  -1.924  25.278  0.00  0.00    -0.466 OA
BRANCH  15  16
ATOM     16  C   UNL     1      -2.829  -2.273  24.875  0.00  0.00    +0.139 A 
ATOM     17  C   UNL     1      -2.967  -2.902  24.359  0.00  0.00    +0.037 A 
ATOM     18  C   UNL     1      -2.337  -3.252  23.956  0.00  0.00    +0.003 A 
ATOM     19  C   UNL     1      -1.570  -2.972  24.069  0.00  0.00    +0.000 A 
ATOM     20  C   UNL     1      -1.431  -2.343  24.584  0.00  0.00    +0.003 A 
ATOM     21  C   UNL     1      -2.060  -1.994  24.987  0.00  0.00    +0.037 A 
ENDBRANCH  15  16
ENDBRANCH  14  15
ENDBRANCH  12  14
ENDBRANCH  10  11
ENDBRANCH   7   8
TORSDOF 7
ENDMDL
MODEL 4
REMARK VINA RESULT:      -9.1      4.351      5.619
REMARK  Name = 
REMARK  7 active torsions:
REMARK  status: ('A' for Active; 'I' for Inactive)
REMARK    1  A    between atoms: N_4  and  C_24
REMARK    2  A    between atoms: C_7  and  C_8
REMARK    3  A    between atoms: C_10  and  N_11
REMARK    4  A    between atoms: C_12  and  C_14
REMARK    5  A    between atoms: C_14  and  O_15
REMARK    6  A    between atoms: O_15  and  C_16
REMARK    7  A    between atoms: C_27  and  C_30
REMARK                            x       y       z     vdW  Elec       q    Type
REMARK                         _______ _______ _______ _____ _____    ______ ____
ROOT
ATOM      1  C   UNL     1      -6.390   1.285  24.997  0.00  0.00    +0.054 C 
ATOM      2  C   UNL     1      -5.652   0.920  24.936  0.00  0.00    +0.077 A 
ATOM      3  N   UNL     1      -5.519   0.116  24.808  0.00  0.00    -0.170 NA
ATOM      4  N   UNL     1      -4.703  -0.006  24.786  0.00  0.00    -0.234 N 
ATOM      5  C   UNL     1      -4.332   0.723  24.900  0.00  0.00    +0.058 A 
ATOM      6  C   UNL     1      -3.518   0.855  24.918  0.00  0.00    +0.052 C 
ATOM      7  C   UNL     1      -4.920   1.295  24.993  0.00  0.00    +0.010 A 
ENDROOT
BRANCH   4  24
ATOM     24  C   UNL     1      -4.323  -0.730  24.670  0.00  0.00    +0.082 A 
ATOM     25  C   UNL     1      -4.334  -1.085  23.926  0.00  0.00    +0.019 A 
ATOM     26  C   UNL     1      -3.954  -1.809  23.809  0.00  0.00    +0.005 A 
ATOM     27  C   UNL     1      -3.565  -2.176  24.436  0.00  0.00    +0.072 A 
ATOM     28  C   UNL     1      -3.555  -1.820  25.181  0.00  0.00    +0.005 A 
ATOM     29  C   UNL     1      -3.934  -1.096  25.297  0.00  0.00    +0.019 A 
BRANCH  27  30
ATOM     30  C   UNL     1      -3.186  -2.900  24.320  0.00  0.00    +0.419 C 
ATOM     31  F   UNL     1      -2.806  -3.623  24.204  0.00  0.00    -0.166 F 
ATOM     32  F   UNL     1      -3.919  -3.272  24.245  0.00  0.00    -0.166 F 
ATOM     33  F   UNL     1      -2.454  -2.527  24.395  0.00  0.00    -0.166 F 
ENDBRANCH  27  30
ENDBRANCH   4  24
BRANCH   7   8
ATOM      8  C   UNL     1      -4.795   2.101  25.120  0.00  0.00    +0.048 C 
ATOM      9  C   UNL     1      -4.110   2.521  24.937  0.00  0.00    +0.035 C 
ATOM     10  C   UNL     1      -4.225   3.307  25.157  0.00  0.00    +0.118 C 
ATOM     22  C   UNL     1      -4.983   3.373  25.477  0.00  0.00    -0.009 C 
ATOM     23  C   UNL     1      -5.335   2.628  25.455  0.00  0.00    -0.025 C 
BRANCH  10  11
ATOM     11  N   UNL     1      -3.680   3.920  25.072  0.00  0.00    -0.200 NA
ATOM     12  C   UNL     1      -3.242   4.177  25.722  0.00  0.00    +0.286 C 
ATOM     13  O   UNL     1      -3.348   3.820  26.458  0.00  0.00    -0.269 OA
BRANCH  12  14
ATOM     14  C   UNL     1      -2.697   4.791  25.637  0.00  0.00    +0.291 C 
BRANCH  14  15
ATOM     15  O   UNL     1      -1.911   4.679  25.861  0.00  0.00    -0.466 OA
BRANCH  15  16
ATOM     16  C   UNL     1      -1.306   4.789  25.312  0.00  0.00    +0.139 A 
ATOM     17  C   UNL     1      -1.192   5.529  24.966  0.00  0.00    +0.037 A 
ATOM     18  C   UNL     1      -0.587   5.638  24.416  0.00  0.00    +0.003 A 
ATOM     19  C   UNL     1      -0.095   5.008  24.212  0.00  0.00    +0.000 A 
ATOM     20  C   UNL     1      -0.209   4.268  24.559  0.00  0.00    +0.003 A 
ATOM     21  C   UNL     1      -0.814   4.158  25.108  0.00  0.00    +0.037 A 
ENDBRANCH  15  16
ENDBRANCH  14  15
ENDBRANCH  12  14
ENDBRANCH  10  11
ENDBRANCH   7   8
TORSDOF 7
ENDMDL
MODEL 5
REMARK VINA RESULT:      -6.1     17.238     19.121
REMARK  Name = 
REMARK  7 active torsions:
REMARK  status: ('A' for Active; 'I' for Inactive)
REMARK    1  A    between atoms: N_4  and  C_24
REMARK    2  A    between atoms: C_7  and  C_8
REMARK    3  A    between atoms: C_10  and  N_11
REMARK    4  A    between atoms: C_12  and  C_14
REMARK    5  A    between atoms: C_14  and  O_15
REMARK    6  A    between atoms: O_15  and  C_16
REMARK    7  A    between atoms: C_27  and  C_30
REMARK                            x       y       z     vdW  Elec       q    Type
REMARK                         _______ _______ _______ _____ _____    ______ ____
ROOT
ATOM      1  C   UNL     1      -5.161 -10.760  11.402  0.00  0.00    +0.054 C 
ATOM      2  C   UNL     1      -4.547 -10.323  11.064  0.00  0.00    +0.077 A 
ATOM      3  N   UNL     1      -3.783 -10.249  11.365  0.00  0.00    -0.170 NA
ATOM      4  N   UNL     1      -3.354  -9.764  10.854  0.00  0.00    -0.234 N 
ATOM      5  C   UNL     1      -3.853  -9.539  10.237  0.00  0.00    +0.058 A 
ATOM      6  C   UNL     1      -3.649  -9.053   9.601  0.00  0.00    +0.052 C 
ATOM      7  C   UNL     1      -4.591  -9.885  10.367  0.00  0.00    +0.010 A 
ENDROOT
BRANCH   4  24
ATOM     24  C   UNL     1      -2.563  -9.543  10.944  0.00  0.00    +0.082 A 
ATOM     25  C   UNL     1      -2.038 -10.044  11.336  0.00  0.00    +0.019 A 
ATOM     26  C   UNL     1      -1.248  -9.823  11.425  0.00  0.00    +0.005 A 
ATOM     27  C   UNL     1      -0.984  -9.103  11.124  0.00  0.00    +0.072 A 
ATOM     28  C   UNL     1      -1.510  -8.602  10.731  0.00  0.00    +0.005 A 
ATOM     29  C   UNL     1      -2.300  -8.823  10.642  0.00  0.00    +0.019 A 
BRANCH  27  30
ATOM     30  C   UNL     1      -0.194  -8.882  11.214  0.00  0.00    +0.419 C 
ATOM     31  F   UNL     1       0.596  -8.661  11.304  0.00  0.00    -0.166 F 
ATOM     32  F   UNL     1      -0.062  -9.027  10.412  0.00  0.00    -0.166 F 
ATOM     33  F   UNL     1      -0.326  -8.737  12.015  0.00  0.00    -0.166 F 
ENDBRANCH  27  30
ENDBRANCH   4  24
BRANCH   7   8
ATOM      8  C   UNL     1      -5.255  -9.805   9.883  0.00  0.00    +0.048 C 
ATOM      9  C   UNL     1      -5.589  -9.095   9.631  0.00  0.00    +0.035 C 
ATOM     10  C   UNL     1      -6.241  -9.273   9.160  0.00  0.00    +0.118 C 
ATOM     22  C   UNL     1      -6.310 -10.095   9.121  0.00  0.00    -0.009 C 
ATOM     23  C   UNL     1      -5.701 -10.423   9.568  0.00  0.00    -0.025 C 
BRANCH  10  11
ATOM     11  N   UNL     1      -6.738  -8.728   8.791  0.00  0.00    -0.200 NA
ATOM     12  C   UNL     1      -7.413  -8.455   9.180  0.00  0.00    +0.286 C 
ATOM     13  O   UNL     1      -7.591  -8.727   9.937  0.00  0.00    -0.269 OA
BRANCH  12  14
ATOM     14  C   UNL     1      -7.909  -7.909   8.810  0.00  0.00    +0.291 C 
BRANCH  14  15
ATOM     15  O   UNL     1      -8.579  -7.629   9.202  0.00  0.00    -0.466 OA
BRANCH  15  16
ATOM     16  C   UNL     1      -9.061  -7.065   8.843  0.00  0.00    +0.139 A 
ATOM     17  C   UNL     1      -9.875  -7.189   8.792  0.00  0.00    +0.037 A 
ATOM     18  C   UNL     1     -10.358  -6.624   8.432  0.00  0.00    +0.003 A 
ATOM     19  C   UNL     1     -10.026  -5.935   8.124  0.00  0.00    +0.000 A 
ATOM     20  C   UNL     1      -9.212  -5.811   8.175  0.00  0.00    +0.003 A 
ATOM     21  C   UNL     1      -8.730  -6.375   8.534  0.00  0.00    +0.037 A 
ENDBRANCH  15  16
ENDBRANCH  14  15
ENDBRANCH  12  14
ENDBRANCH  10  11
ENDBRANCH   7   8
TORSDOF 7
ENDMDL
MODEL 6
REMARK VINA RESULT:      -6.0     15.699     17.366
REMARK  Name = 
REMARK  7 active torsions:
REMARK  status: ('A' for Active; 'I' for Inactive)
REMARK    1  A    between atoms: N_4  and  C_24
REMARK    2  A    between atoms: C_7  and  C_8
REMARK    3  A    between atoms: C_10  and  N_11
REMARK    4  A    between atoms: C_12  and  C_14
REMARK    5  A    between atoms: C_14  and  O_15
REMARK    6  A    between atoms: O_15  and  C_16
REMARK    7  A    between atoms: C_27  and  C_30
REMARK                            x       y       z     vdW  Elec       q    Type
REMARK                         _______ _______ _______ _____ _____    ______ ____
ROOT
ATOM      1  C   UNL     1      -2.938 -10.781  14.132  0.00  0.00    +0.054 C 
ATOM      2  C   UNL     1      -3.444 -10.564  13.517  0.00  0.00    +0.077 A 
ATOM      3  N   UNL     1      -3.229 -10.452  12.729  0.00  0.00    -0.170 NA
ATOM      4  N   UNL     1      -3.906 -10.239  12.308  0.00  0.00    -0.234 N 
ATOM      5  C   UNL     1      -4.540 -10.219  12.837  0.00  0.00    +0.058 A 
ATOM      6  C   UNL     1      -5.321 -10.032  12.650  0.00  0.00    +0.052 C 
ATOM      7  C   UNL     1      -4.254 -10.420  13.585  0.00  0.00    +0.010 A 
ENDROOT
BRANCH   4  24
ATOM     24  C   UNL     1      -3.944 -10.075  11.500  0.00  0.00    +0.082 A 
ATOM     25  C   UNL     1      -3.922 -10.691  10.953  0.00  0.00    +0.019 A 
ATOM     26  C   UNL     1      -3.960 -10.527  10.145  0.00  0.00    +0.005 A 
ATOM     27  C   UNL     1      -4.019  -9.747   9.885  0.00  0.00    +0.072 A 
ATOM     28  C   UNL     1      -4.041  -9.130  10.433  0.00  0.00    +0.005 A 
ATOM     29  C   UNL     1      -4.003  -9.294  11.241  0.00  0.00    +0.019 A 
BRANCH  27  30
ATOM     30  C   UNL     1      -4.056  -9.583   9.077  0.00  0.00    +0.419 C 
ATOM     31  F   UNL     1      -4.094  -9.419   8.270  0.00  0.00    -0.166 F 
ATOM     32  F   UNL     1      -3.579  -8.919   9.190  0.00  0.00    -0.166 F 
ATOM     33  F   UNL     1      -4.533 -10.246   8.965  0.00  0.00    -0.166 F 
ENDBRANCH  27  30
ENDBRANCH   4  24
BRANCH   7   8
ATOM      8  C   UNL     1      -4.700 -10.468  14.277  0.00  0.00    +0.048 C 
ATOM      9  C   UNL     1      -5.518 -10.383  14.334  0.00  0.00    +0.035 C 
ATOM     10  C   UNL     1      -5.730 -10.472  15.125  0.00  0.00    +0.118 C 
ATOM     22  C   UNL     1      -5.041 -10.613  15.559  0.00  0.00    -0.009 C 
ATOM     23  C   UNL     1      -4.406 -10.610  15.034  0.00  0.00    -0.025 C 
BRANCH  10  11
ATOM     11  N   UNL     1      -6.494 -10.429  15.432  0.00  0.00    -0.200 NA
ATOM     12  C   UNL     1      -6.691  -9.835  15.969  0.00  0.00    +0.286 C 
ATOM     13  O   UNL     1      -6.124  -9.282  16.200  0.00  0.00    -0.269 OA
BRANCH  12  14
ATOM     14  C   UNL     1      -7.457  -9.792  16.275  0.00  0.00    +0.291 C 
BRANCH  14  15
ATOM     15  O   UNL     1      -7.587  -9.447  17.013  0.00  0.00    -0.466 OA
BRANCH  15  16
ATOM     16  C   UNL     1      -8.347  -9.431  17.332  0.00  0.00    +0.139 A 
ATOM     17  C   UNL     1      -8.582 -10.011  17.870  0.00  0.00    +0.037 A 
ATOM     18  C   UNL     1      -9.343  -9.994  18.189  0.00  0.00    +0.003 A 
ATOM     19  C   UNL     1      -9.869  -9.399  17.970  0.00  0.00    +0.000 A 
ATOM     20  C   UNL     1      -9.635  -8.819  17.431  0.00  0.00    +0.003 A 
ATOM     21  C   UNL     1      -8.875  -8.835  17.112  0.00  0.00    +0.037 A 
ENDBRANCH  15  16
ENDBRANCH  14  15
ENDBRANCH  12  14
ENDBRANCH  10  11
ENDBRANCH   7   8
TORSDOF 7
ENDMDL
