MODEL 1
REMARK VINA RESULT:     -12.0      0.000      0.000
REMARK  Name = 
REMARK  5 active torsions:
REMARK  status: ('A' for Active; 'I' for Inactive)
REMARK    1  A    between atoms: O_2  and  C_3
REMARK    2  A    between atoms: C_6  and  C_9
REMARK    3  A    between atoms: N_11  and  C_12
REMARK    4  A    between atoms: C_14  and  C_17
REMARK    5  A    between atoms: N_20  and  C_24
REMARK                            x       y       z     vdW  Elec       q    Type
REMARK                         _______ _______ _______ _____ _____    ______ ____
ROOT
ATOM     12  C   UNL     1      -4.132   1.102  24.470  0.00  0.00    +0.118 C 
ATOM     13  C   UNL     1      -3.547   1.617  24.738  0.00  0.00    +0.035 C 
ATOM     14  C   UNL     1      -3.892   2.360  24.844  0.00  0.00    +0.048 C 
ATOM     15  C   UNL     1      -4.690   2.302  24.642  0.00  0.00    -0.025 C 
ATOM     16  C   UNL     1      -4.838   1.523  24.411  0.00  0.00    -0.009 C 
ENDROOT
BRANCH  14  17
ATOM     17  C   UNL     1      -3.506   3.040  25.107  0.00  0.00    +0.010 A 
ATOM     18  C   UNL     1      -2.794   3.337  24.814  0.00  0.00    +0.058 A 
ATOM     19  C   UNL     1      -2.343   3.007  24.208  0.00  0.00    +0.052 C 
ATOM     20  N   UNL     1      -2.613   4.024  25.235  0.00  0.00    -0.234 N 
ATOM     21  N   UNL     1      -3.212   4.151  25.787  0.00  0.00    -0.170 NA
ATOM     22  C   UNL     1      -3.765   3.542  25.708  0.00  0.00    +0.077 A 
ATOM     23  C   UNL     1      -4.455   3.452  26.152  0.00  0.00    +0.054 C 
BRANCH  20  24
ATOM     24  C   UNL     1      -1.948   4.500  25.123  0.00  0.00    +0.082 A 
ATOM     25  C   UNL     1      -1.194   4.166  25.139  0.00  0.00    +0.019 A 
ATOM     26  C   UNL     1      -0.531   4.642  25.027  0.00  0.00    +0.002 A 
ATOM     27  C   UNL     1      -0.620   5.452  24.899  0.00  0.00    +0.000 A 
ATOM     28  C   UNL     1      -1.374   5.786  24.883  0.00  0.00    +0.002 A 
ATOM     29  C   UNL     1      -2.039   5.310  24.995  0.00  0.00    +0.019 A 
ENDBRANCH  20  24
ENDBRANCH  14  17
BRANCH  12  11
ATOM      9  C   UNL     1      -4.106  -0.266  24.885  0.00  0.00    +0.265 C 
ATOM     10  O   UNL     1      -4.286  -0.034  25.656  0.00  0.00    -0.268 OA
ATOM     11  N   UNL     1      -4.029   0.303  24.292  0.00  0.00    -0.199 NA
BRANCH   9   6
ATOM      3  C   UNL     1      -3.796  -2.663  24.352  0.00  0.00    +0.139 A 
ATOM      4  C   UNL     1      -4.245  -2.184  23.853  0.00  0.00    +0.037 A 
ATOM      5  C   UNL     1      -4.348  -1.384  24.031  0.00  0.00    +0.008 A 
ATOM      6  C   UNL     1      -4.003  -1.065  24.708  0.00  0.00    +0.055 A 
ATOM      7  C   UNL     1      -3.554  -1.543  25.207  0.00  0.00    +0.008 A 
ATOM      8  C   UNL     1      -3.451  -2.343  25.029  0.00  0.00    +0.037 A 
BRANCH   3   2
ATOM      1  C   UNL     1      -2.968  -3.730  23.890  0.00  0.00    +0.252 C 
ATOM      2  O   UNL     1      -3.693  -3.462  24.175  0.00  0.00    -0.471 OA
ENDBRANCH   3   2
ENDBRANCH   9   6
ENDBRANCH  12  11
TORSDOF 5
ENDMDL
MODEL 2
REMARK VINA RESULT:     -11.0      1.738      2.376
REMARK  Name = 
REMARK  5 active torsions:
REMARK  status: ('A' for Active; 'I' for Inactive)
REMARK    1  A    between atoms: O_2  and  C_3
REMARK    2  A    between atoms: C_6  and  C_9
REMARK    3  A    between atoms: N_11  and  C_12
REMARK    4  A    between atoms: C_14  and  C_17
REMARK    5  A    between atoms: N_20  and  C_24
REMARK                            x       y       z     vdW  Elec       q    Type
REMARK                         _______ _______ _______ _____ _____    ______ ____
ROOT
ATOM     12  C   UNL     1      -1.198   0.300  24.543  0.00  0.00    +0.118 C 
ATOM     13  C   UNL     1      -1.429   1.031  24.850  0.00  0.00    +0.035 C 
ATOM     14  C   UNL     1      -0.753   1.495  24.937  0.00  0.00    +0.048 C 
ATOM     15  C   UNL     1      -0.105   1.052  24.684  0.00  0.00    -0.025 C 
ATOM     16  C   UNL     1      -0.381   0.313  24.441  0.00  0.00    -0.009 C 
ENDROOT
BRANCH  14  17
ATOM     17  C   UNL     1      -0.729   2.267  25.226  0.00  0.00    +0.010 A 
ATOM     18  C   UNL     1      -1.079   2.927  24.876  0.00  0.00    +0.058 A 
ATOM     19  C   UNL     1      -1.515   2.931  24.176  0.00  0.00    +0.052 C 
ATOM     20  N   UNL     1      -0.917   3.583  25.350  0.00  0.00    -0.234 N 
ATOM     21  N   UNL     1      -0.467   3.329  25.993  0.00  0.00    -0.170 NA
ATOM     22  C   UNL     1      -0.350   2.515  25.916  0.00  0.00    +0.077 A 
ATOM     23  C   UNL     1       0.071   2.034  26.438  0.00  0.00    +0.054 C 
BRANCH  20  24
ATOM     24  C   UNL     1      -1.163   4.358  25.206  0.00  0.00    +0.082 A 
ATOM     25  C   UNL     1      -1.917   4.601  25.435  0.00  0.00    +0.019 A 
ATOM     26  C   UNL     1      -2.162   5.375  25.291  0.00  0.00    +0.002 A 
ATOM     27  C   UNL     1      -1.653   5.907  24.919  0.00  0.00    +0.000 A 
ATOM     28  C   UNL     1      -0.898   5.664  24.691  0.00  0.00    +0.002 A 
ATOM     29  C   UNL     1      -0.653   4.889  24.834  0.00  0.00    +0.019 A 
ENDBRANCH  20  24
ENDBRANCH  14  17
BRANCH  12  11
ATOM      9  C   UNL     1      -2.003  -0.797  24.979  0.00  0.00    +0.265 C 
ATOM     10  O   UNL     1      -1.806  -0.629  25.762  0.00  0.00    -0.268 OA
ATOM     11  N   UNL     1      -1.699  -0.332  24.370  0.00  0.00    -0.199 NA
BRANCH   9   6
ATOM      3  C   UNL     1      -3.505  -2.694  24.458  0.00  0.00    +0.139 A 
ATOM      4  C   UNL     1      -3.817  -1.938  24.562  0.00  0.00    +0.037 A 
ATOM      5  C   UNL     1      -3.316  -1.305  24.736  0.00  0.00    +0.008 A 
ATOM      6  C   UNL     1      -2.504  -1.430  24.806  0.00  0.00    +0.055 A 
ATOM      7  C   UNL     1      -2.192  -2.186  24.702  0.00  0.00    +0.008 A 
ATOM      8  C   UNL     1      -2.693  -2.819  24.528  0.00  0.00    +0.037 A 
BRANCH   3   2
ATOM      1  C   UNL     1      -4.430  -3.334  23.578  0.00  0.00    +0.252 C 
ATOM      2  O   UNL     1      -4.006  -3.327  24.285  0.00  0.00    -0.471 OA
ENDBRANCH   3   2
ENDBRANCH   9   6
ENDBRANCH  12  11
TORSDOF 5
ENDMDL
MODEL 3
REMARK VINA RESULT:     -10.5      2.362      6.398
REMARK  Name = 
REMARK  5 active torsions:
REMARK  status: ('A' for Active; 'I' for Inactive)
REMARK    1  A    between atoms: O_2  and  C_3
REMARK    2  A    between atoms: C_6  and  C_9
REMARK    3  A    between atoms: N_11  and  C_12
REMARK    4  A    between atoms: C_14  and  C_17
REMARK    5  A    between atoms: N_20  and  C_24
REMARK                            x       y       z     vdW  Elec       q    Type
REMARK                         _______ _______ _______ _____ _____    ______ ____
ROOT
ATOM     12  C   UNL     1      -1.209   1.461  25.564  0.00  0.00    +0.118 C 
ATOM     13  C   UNL     1      -1.610   0.922  25.085  0.00  0.00    +0.035 C 
ATOM     14  C   UNL     1      -1.329   0.166  25.262  0.00  0.00    +0.048 C 
ATOM     15  C   UNL     1      -0.756   0.239  25.851  0.00  0.00    -0.025 C 
ATOM     16  C   UNL     1      -0.682   1.040  26.037  0.00  0.00    -0.009 C 
ENDROOT
BRANCH  14  17
ATOM     17  C   UNL     1      -1.578  -0.538  24.912  0.00  0.00    +0.010 A 
ATOM     18  C   UNL     1      -2.347  -0.836  24.916  0.00  0.00    +0.058 A 
ATOM     19  C   UNL     1      -3.002  -0.483  25.271  0.00  0.00    +0.052 C 
ATOM     20  N   UNL     1      -2.346  -1.550  24.503  0.00  0.00    -0.234 N 
ATOM     21  N   UNL     1      -1.576  -1.694  24.244  0.00  0.00    -0.170 NA
ATOM     22  C   UNL     1      -1.101  -1.068  24.497  0.00  0.00    +0.077 A 
ATOM     23  C   UNL     1      -0.291  -0.986  24.358  0.00  0.00    +0.054 C 
BRANCH  20  24
ATOM     24  C   UNL     1      -3.000  -2.036  24.372  0.00  0.00    +0.082 A 
ATOM     25  C   UNL     1      -3.035  -2.783  24.721  0.00  0.00    +0.019 A 
ATOM     26  C   UNL     1      -3.689  -3.268  24.590  0.00  0.00    +0.002 A 
ATOM     27  C   UNL     1      -4.307  -3.008  24.110  0.00  0.00    +0.000 A 
ATOM     28  C   UNL     1      -4.272  -2.261  23.761  0.00  0.00    +0.002 A 
ATOM     29  C   UNL     1      -3.617  -1.775  23.892  0.00  0.00    +0.019 A 
ENDBRANCH  20  24
ENDBRANCH  14  17
BRANCH  12  11
ATOM      9  C   UNL     1      -0.911   2.753  25.031  0.00  0.00    +0.265 C 
ATOM     10  O   UNL     1      -0.394   2.408  24.488  0.00  0.00    -0.268 OA
ATOM     11  N   UNL     1      -1.318   2.279  25.569  0.00  0.00    -0.199 NA
BRANCH   9   6
ATOM      3  C   UNL     1      -1.238   5.206  25.044  0.00  0.00    +0.139 A 
ATOM      4  C   UNL     1      -1.812   4.712  25.370  0.00  0.00    +0.037 A 
ATOM      5  C   UNL     1      -1.703   3.893  25.365  0.00  0.00    +0.008 A 
ATOM      6  C   UNL     1      -1.020   3.570  25.035  0.00  0.00    +0.055 A 
ATOM      7  C   UNL     1      -0.446   4.064  24.710  0.00  0.00    +0.008 A 
ATOM      8  C   UNL     1      -0.555   4.883  24.714  0.00  0.00    +0.037 A 
BRANCH   3   2
ATOM      1  C   UNL     1      -2.100   6.340  24.936  0.00  0.00    +0.252 C 
ATOM      2  O   UNL     1      -1.347   6.024  25.049  0.00  0.00    -0.471 OA
ENDBRANCH   3   2
ENDBRANCH   9   6
ENDBRANCH  12  11
TORSDOF 5
ENDMDL
MODEL 4
REMARK VINA RESULT:     -10.5      3.419      5.015
REMARK  Name = 
REMARK  5 active torsions:
REMARK  status: ('A' for Active; 'I' for Inactive)
REMARK    1  A    between atoms: O_2  and  C_3
REMARK    2  A    between atoms: C_6  and  C_9
REMARK    3  A    between atoms: N_11  and  C_12
REMARK    4  A    between atoms: C_14  and  C_17
REMARK    5  A    between atoms: N_20  and  C_24
REMARK                            x       y       z     vdW  Elec       q    Type
REMARK                         _______ _______ _______ _____ _____    ______ ____
ROOT
ATOM     12  C   UNL     1      -0.992  -0.307  24.447  0.00  0.00    +0.118 C 
ATOM     13  C   UNL     1      -1.730  -0.058  24.175  0.00  0.00    +0.035 C 
ATOM     14  C   UNL     1      -2.267  -0.123  24.798  0.00  0.00    +0.048 C 
ATOM     15  C   UNL     1      -1.860  -0.413  25.455  0.00  0.00    -0.025 C 
ATOM     16  C   UNL     1      -1.072  -0.526  25.237  0.00  0.00    -0.009 C 
ENDROOT
BRANCH  14  17
ATOM     17  C   UNL     1      -3.068   0.067  24.770  0.00  0.00    +0.010 A 
ATOM     18  C   UNL     1      -3.401   0.798  24.959  0.00  0.00    +0.058 A 
ATOM     19  C   UNL     1      -2.989   1.467  25.210  0.00  0.00    +0.052 C 
ATOM     20  N   UNL     1      -4.217   0.742  24.853  0.00  0.00    -0.234 N 
ATOM     21  N   UNL     1      -4.390  -0.023  24.598  0.00  0.00    -0.170 NA
ATOM     22  C   UNL     1      -3.680  -0.441  24.546  0.00  0.00    +0.077 A 
ATOM     23  C   UNL     1      -3.596  -1.228  24.313  0.00  0.00    +0.054 C 
BRANCH  20  24
ATOM     24  C   UNL     1      -4.765   1.347  24.979  0.00  0.00    +0.082 A 
ATOM     25  C   UNL     1      -5.317   1.282  25.589  0.00  0.00    +0.019 A 
ATOM     26  C   UNL     1      -5.864   1.886  25.715  0.00  0.00    +0.002 A 
ATOM     27  C   UNL     1      -5.860   2.554  25.232  0.00  0.00    +0.000 A 
ATOM     28  C   UNL     1      -5.308   2.619  24.622  0.00  0.00    +0.002 A 
ATOM     29  C   UNL     1      -4.761   2.015  24.495  0.00  0.00    +0.019 A 
ENDBRANCH  20  24
ENDBRANCH  14  17
BRANCH  12  11
ATOM      9  C   UNL     1       0.167   0.346  23.924  0.00  0.00    +0.265 C 
ATOM     10  O   UNL     1      -0.067   1.049  24.287  0.00  0.00    -0.268 OA
ATOM     11  N   UNL     1      -0.296  -0.332  24.005  0.00  0.00    -0.199 NA
BRANCH   9   6
ATOM      3  C   UNL     1       2.255   0.270  22.598  0.00  0.00    +0.139 A 
ATOM      4  C   UNL     1       2.165   0.833  23.194  0.00  0.00    +0.037 A 
ATOM      5  C   UNL     1       1.468   0.858  23.637  0.00  0.00    +0.008 A 
ATOM      6  C   UNL     1       0.863   0.321  23.482  0.00  0.00    +0.055 A 
ATOM      7  C   UNL     1       0.952  -0.242  22.887  0.00  0.00    +0.008 A 
ATOM      8  C   UNL     1       1.649  -0.267  22.444  0.00  0.00    +0.037 A 
BRANCH   3   2
ATOM      1  C   UNL     1       3.644   0.572  22.460  0.00  0.00    +0.252 C 
ATOM      2  O   UNL     1       2.951   0.245  22.156  0.00  0.00    -0.471 OA
ENDBRANCH   3   2
ENDBRANCH   9   6
ENDBRANCH  12  11
TORSDOF 5
ENDMDL
MODEL 5
REMARK VINA RESULT:     -10.4      3.175      4.606
REMARK  Name = 
REMARK  5 active torsions:
REMARK  status: ('A' for Active; 'I' for Inactive)
REMARK    1  A    between atoms: O_2  and  C_3
REMARK    2  A    between atoms: C_6  and  C_9
REMARK    3  A    between atoms: N_11  and  C_12
REMARK    4  A    between atoms: C_14  and  C_17
REMARK    5  A    between atoms: N_20  and  C_24
REMARK                            x       y       z     vdW  Elec       q    Type
REMARK                         _______ _______ _______ _____ _____    ______ ____
ROOT
ATOM     12  C   UNL     1      -0.532   2.215  24.715  0.00  0.00    +0.118 C 
ATOM     13  C   UNL     1      -1.297   2.415  24.481  0.00  0.00    +0.035 C 
ATOM     14  C   UNL     1      -1.703   2.685  25.147  0.00  0.00    +0.048 C 
ATOM     15  C   UNL     1      -1.189   2.650  25.791  0.00  0.00    -0.025 C 
ATOM     16  C   UNL     1      -0.464   2.360  25.524  0.00  0.00    -0.009 C 
ENDROOT
BRANCH  14  17
ATOM     17  C   UNL     1      -2.487   2.943  25.165  0.00  0.00    +0.010 A 
ATOM     18  C   UNL     1      -3.155   2.461  25.204  0.00  0.00    +0.058 A 
ATOM     19  C   UNL     1      -3.159   1.637  25.231  0.00  0.00    +0.052 C 
ATOM     20  N   UNL     1      -3.821   2.949  25.210  0.00  0.00    -0.234 N 
ATOM     21  N   UNL     1      -3.564   3.732  25.176  0.00  0.00    -0.170 NA
ATOM     22  C   UNL     1      -2.739   3.729  25.148  0.00  0.00    +0.077 A 
ATOM     23  C   UNL     1      -2.251   4.394  25.109  0.00  0.00    +0.054 C 
BRANCH  20  24
ATOM     24  C   UNL     1      -4.606   2.698  25.245  0.00  0.00    +0.082 A 
ATOM     25  C   UNL     1      -4.940   2.298  24.606  0.00  0.00    +0.019 A 
ATOM     26  C   UNL     1      -5.725   2.047  24.641  0.00  0.00    +0.002 A 
ATOM     27  C   UNL     1      -6.176   2.196  25.315  0.00  0.00    +0.000 A 
ATOM     28  C   UNL     1      -5.843   2.597  25.954  0.00  0.00    +0.002 A 
ATOM     29  C   UNL     1      -5.057   2.848  25.920  0.00  0.00    +0.019 A 
ENDBRANCH  20  24
ENDBRANCH  14  17
BRANCH  12  11
ATOM      9  C   UNL     1       0.202   1.109  24.186  0.00  0.00    +0.265 C 
ATOM     10  O   UNL     1      -0.254   0.591  24.638  0.00  0.00    -0.268 OA
ATOM     11  N   UNL     1       0.063   1.921  24.224  0.00  0.00    -0.199 NA
BRANCH   9   6
ATOM      3  C   UNL     1       1.986   0.226  22.714  0.00  0.00    +0.139 A 
ATOM      4  C   UNL     1       1.247  -0.139  22.730  0.00  0.00    +0.037 A 
ATOM      5  C   UNL     1       0.651   0.156  23.221  0.00  0.00    +0.008 A 
ATOM      6  C   UNL     1       0.797   0.814  23.695  0.00  0.00    +0.055 A 
ATOM      7  C   UNL     1       1.536   1.179  23.679  0.00  0.00    +0.008 A 
ATOM      8  C   UNL     1       2.131   0.885  23.188  0.00  0.00    +0.037 A 
BRANCH   3   2
ATOM      1  C   UNL     1       3.343   0.241  22.270  0.00  0.00    +0.252 C 
ATOM      2  O   UNL     1       2.580  -0.068  22.223  0.00  0.00    -0.471 OA
ENDBRANCH   3   2
ENDBRANCH   9   6
ENDBRANCH  12  11
TORSDOF 5
ENDMDL
MODEL 6
REMARK VINA RESULT:     -10.3      1.643      5.897
REMARK  Name = 
REMARK  5 active torsions:
REMARK  status: ('A' for Active; 'I' for Inactive)
REMARK    1  A    between atoms: O_2  and  C_3
REMARK    2  A    between atoms: C_6  and  C_9
REMARK    3  A    between atoms: N_11  and  C_12
REMARK    4  A    between atoms: C_14  and  C_17
REMARK    5  A    between atoms: N_20  and  C_24
REMARK                            x       y       z     vdW  Elec       q    Type
REMARK                         _______ _______ _______ _____ _____    ______ ____
ROOT
ATOM     12  C   UNL     1      -3.554   2.596  24.369  0.00  0.00    +0.118 C 
ATOM     13  C   UNL     1      -3.451   1.810  24.596  0.00  0.00    +0.035 C 
ATOM     14  C   UNL     1      -4.182   1.431  24.535  0.00  0.00    +0.048 C 
ATOM     15  C   UNL     1      -4.735   1.983  24.271  0.00  0.00    -0.025 C 
ATOM     16  C   UNL     1      -4.346   2.704  24.168  0.00  0.00    -0.009 C 
ENDROOT
BRANCH  14  17
ATOM     17  C   UNL     1      -4.332   0.638  24.708  0.00  0.00    +0.010 A 
ATOM     18  C   UNL     1      -3.932  -0.011  24.394  0.00  0.00    +0.058 A 
ATOM     19  C   UNL     1      -3.312   0.017  23.851  0.00  0.00    +0.052 C 
ATOM     20  N   UNL     1      -4.262  -0.695  24.718  0.00  0.00    -0.234 N 
ATOM     21  N   UNL     1      -4.865  -0.468  25.233  0.00  0.00    -0.170 NA
ATOM     22  C   UNL     1      -4.909   0.356  25.227  0.00  0.00    +0.077 A 
ATOM     23  C   UNL     1      -5.436   0.818  25.663  0.00  0.00    +0.054 C 
BRANCH  20  24
ATOM     24  C   UNL     1      -4.029  -1.470  24.556  0.00  0.00    +0.082 A 
ATOM     25  C   UNL     1      -4.321  -1.857  23.889  0.00  0.00    +0.019 A 
ATOM     26  C   UNL     1      -4.088  -2.631  23.727  0.00  0.00    +0.002 A 
ATOM     27  C   UNL     1      -3.564  -3.019  24.232  0.00  0.00    +0.000 A 
ATOM     28  C   UNL     1      -3.272  -2.632  24.899  0.00  0.00    +0.002 A 
ATOM     29  C   UNL     1      -3.505  -1.857  25.062  0.00  0.00    +0.019 A 
ENDBRANCH  20  24
ENDBRANCH  14  17
BRANCH  12  11
ATOM      9  C   UNL     1      -2.661   3.480  25.050  0.00  0.00    +0.265 C 
ATOM     10  O   UNL     1      -2.944   3.206  25.774  0.00  0.00    -0.268 OA
ATOM     11  N   UNL     1      -2.966   3.175  24.347  0.00  0.00    -0.199 NA
BRANCH   9   6
ATOM      3  C   UNL     1      -0.897   5.215  24.984  0.00  0.00    +0.139 A 
ATOM      4  C   UNL     1      -0.700   4.423  24.872  0.00  0.00    +0.037 A 
ATOM      5  C   UNL     1      -1.288   3.843  24.894  0.00  0.00    +0.008 A 
ATOM      6  C   UNL     1      -2.073   4.058  25.028  0.00  0.00    +0.055 A 
ATOM      7  C   UNL     1      -2.270   4.851  25.140  0.00  0.00    +0.008 A 
ATOM      8  C   UNL     1      -1.681   5.430  25.118  0.00  0.00    +0.037 A 
BRANCH   3   2
ATOM      1  C   UNL     1       0.110   5.929  24.265  0.00  0.00    +0.252 C 
ATOM      2  O   UNL     1      -0.309   5.793  24.962  0.00  0.00    -0.471 OA
ENDBRANCH   3   2
ENDBRANCH   9   6
ENDBRANCH  12  11
TORSDOF 5
ENDMDL
MODEL 7
REMARK VINA RESULT:      -9.9      3.878      5.137
REMARK  Name = 
REMARK  5 active torsions:
REMARK  status: ('A' for Active; 'I' for Inactive)
REMARK    1  A    between atoms: O_2  and  C_3
REMARK    2  A    between atoms: C_6  and  C_9
REMARK    3  A    between atoms: N_11  and  C_12
REMARK    4  A    between atoms: C_14  and  C_17
REMARK    5  A    between atoms: N_20  and  C_24
REMARK                            x       y       z     vdW  Elec       q    Type
REMARK                         _______ _______ _______ _____ _____    ______ ____
ROOT
ATOM     12  C   UNL     1      -0.331   0.812  23.825  0.00  0.00    +0.118 C 
ATOM     13  C   UNL     1      -0.893   1.401  23.691  0.00  0.00    +0.035 C 
ATOM     14  C   UNL     1      -1.629   1.109  23.925  0.00  0.00    +0.048 C 
ATOM     15  C   UNL     1      -1.521   0.340  24.203  0.00  0.00    -0.025 C 
ATOM     16  C   UNL     1      -0.719   0.156  24.141  0.00  0.00    -0.009 C 
ENDROOT
BRANCH  14  17
ATOM     17  C   UNL     1      -2.345   1.516  23.887  0.00  0.00    +0.010 A 
ATOM     18  C   UNL     1      -2.796   1.766  24.531  0.00  0.00    +0.058 A 
ATOM     19  C   UNL     1      -2.608   1.654  25.327  0.00  0.00    +0.052 C 
ATOM     20  N   UNL     1      -3.467   2.148  24.240  0.00  0.00    -0.234 N 
ATOM     21  N   UNL     1      -3.431   2.134  23.416  0.00  0.00    -0.170 NA
ATOM     22  C   UNL     1      -2.738   1.743  23.198  0.00  0.00    +0.077 A 
ATOM     23  C   UNL     1      -2.482   1.604  22.425  0.00  0.00    +0.054 C 
BRANCH  20  24
ATOM     24  C   UNL     1      -4.068   2.486  24.694  0.00  0.00    +0.082 A 
ATOM     25  C   UNL     1      -3.986   3.254  24.982  0.00  0.00    +0.019 A 
ATOM     26  C   UNL     1      -4.587   3.591  25.435  0.00  0.00    +0.002 A 
ATOM     27  C   UNL     1      -5.270   3.159  25.601  0.00  0.00    +0.000 A 
ATOM     28  C   UNL     1      -5.352   2.391  25.313  0.00  0.00    +0.002 A 
ATOM     29  C   UNL     1      -4.751   2.053  24.860  0.00  0.00    +0.019 A 
ENDBRANCH  20  24
ENDBRANCH  14  17
BRANCH  12  11
ATOM      9  C   UNL     1       0.829   0.363  23.122  0.00  0.00    +0.265 C 
ATOM     10  O   UNL     1       0.372  -0.201  22.730  0.00  0.00    -0.268 OA
ATOM     11  N   UNL     1       0.477   0.869  23.670  0.00  0.00    -0.199 NA
BRANCH   9   6
ATOM      3  C   UNL     1       3.254   0.533  22.657  0.00  0.00    +0.139 A 
ATOM      4  C   UNL     1       2.895   1.066  23.174  0.00  0.00    +0.037 A 
ATOM      5  C   UNL     1       2.086   1.009  23.329  0.00  0.00    +0.008 A 
ATOM      6  C   UNL     1       1.637   0.420  22.967  0.00  0.00    +0.055 A 
ATOM      7  C   UNL     1       1.996  -0.113  22.450  0.00  0.00    +0.008 A 
ATOM      8  C   UNL     1       2.805  -0.056  22.295  0.00  0.00    +0.037 A 
BRANCH   3   2
ATOM      1  C   UNL     1       4.607   0.484  23.111  0.00  0.00    +0.252 C 
ATOM      2  O   UNL     1       4.062   0.590  22.502  0.00  0.00    -0.471 OA
ENDBRANCH   3   2
ENDBRANCH   9   6
ENDBRANCH  12  11
TORSDOF 5
ENDMDL
MODEL 8
REMARK VINA RESULT:      -9.5      3.126      4.998
REMARK  Name = 
REMARK  5 active torsions:
REMARK  status: ('A' for Active; 'I' for Inactive)
REMARK    1  A    between atoms: O_2  and  C_3
REMARK    2  A    between atoms: C_6  and  C_9
REMARK    3  A    between atoms: N_11  and  C_12
REMARK    4  A    between atoms: C_14  and  C_17
REMARK    5  A    between atoms: N_20  and  C_24
REMARK                            x       y       z     vdW  Elec       q    Type
REMARK                         _______ _______ _______ _____ _____    ______ ____
ROOT
ATOM     12  C   UNL     1      -2.937   0.459  24.908  0.00  0.00    +0.118 C 
ATOM     13  C   UNL     1      -2.118   0.528  24.842  0.00  0.00    +0.035 C 
ATOM     14  C   UNL     1      -1.828  -0.180  24.531  0.00  0.00    +0.048 C 
ATOM     15  C   UNL     1      -2.468  -0.684  24.405  0.00  0.00    -0.025 C 
ATOM     16  C   UNL     1      -3.154  -0.289  24.639  0.00  0.00    -0.009 C 
ENDROOT
BRANCH  14  17
ATOM     17  C   UNL     1      -1.037  -0.351  24.373  0.00  0.00    +0.010 A 
ATOM     18  C   UNL     1      -0.558   0.032  23.821  0.00  0.00    +0.058 A 
ATOM     19  C   UNL     1      -0.786   0.655  23.330  0.00  0.00    +0.052 C 
ATOM     20  N   UNL     1       0.190  -0.317  23.847  0.00  0.00    -0.234 N 
ATOM     21  N   UNL     1       0.173  -0.915  24.413  0.00  0.00    -0.170 NA
ATOM     22  C   UNL     1      -0.585  -0.937  24.739  0.00  0.00    +0.077 A 
ATOM     23  C   UNL     1      -0.846  -1.454  25.327  0.00  0.00    +0.054 C 
BRANCH  20  24
ATOM     24  C   UNL     1       0.841  -0.104  23.385  0.00  0.00    +0.082 A 
ATOM     25  C   UNL     1       0.983  -0.489  22.670  0.00  0.00    +0.019 A 
ATOM     26  C   UNL     1       1.633  -0.276  22.210  0.00  0.00    +0.002 A 
ATOM     27  C   UNL     1       2.141   0.323  22.464  0.00  0.00    +0.000 A 
ATOM     28  C   UNL     1       1.998   0.708  23.179  0.00  0.00    +0.002 A 
ATOM     29  C   UNL     1       1.348   0.495  23.640  0.00  0.00    +0.019 A 
ENDBRANCH  20  24
ENDBRANCH  14  17
BRANCH  12  11
ATOM      9  C   UNL     1      -3.971   1.419  24.681  0.00  0.00    +0.265 C 
ATOM     10  O   UNL     1      -3.979   1.219  23.881  0.00  0.00    -0.268 OA
ATOM     11  N   UNL     1      -3.450   1.038  25.195  0.00  0.00    -0.199 NA
BRANCH   9   6
ATOM      3  C   UNL     1      -5.510   3.157  25.540  0.00  0.00    +0.139 A 
ATOM      4  C   UNL     1      -4.751   3.364  25.291  0.00  0.00    +0.037 A 
ATOM      5  C   UNL     1      -4.238   2.784  25.005  0.00  0.00    +0.008 A 
ATOM      6  C   UNL     1      -4.484   1.998  24.967  0.00  0.00    +0.055 A 
ATOM      7  C   UNL     1      -5.242   1.791  25.216  0.00  0.00    +0.008 A 
ATOM      8  C   UNL     1      -5.756   2.371  25.503  0.00  0.00    +0.037 A 
BRANCH   3   2
ATOM      1  C   UNL     1      -5.932   4.520  25.588  0.00  0.00    +0.252 C 
ATOM      2  O   UNL     1      -6.022   3.736  25.826  0.00  0.00    -0.471 OA
ENDBRANCH   3   2
ENDBRANCH   9   6
ENDBRANCH  12  11
TORSDOF 5
ENDMDL
