MODEL 1
REMARK VINA RESULT:      -8.0      0.000      0.000
REMARK  Name = 
REMARK  8 active torsions:
REMARK  status: ('A' for Active; 'I' for Inactive)
REMARK    1  A    between atoms: C_2  and  C_4
REMARK    2  A    between atoms: C_6  and  C_7
REMARK    3  A    between atoms: C_7  and  C_8
REMARK    4  A    between atoms: C_25  and  C_26
REMARK    5  A    between atoms: C_26  and  N_27
REMARK    6  A    between atoms: N_27  and  S_28
REMARK    7  A    between atoms: S_28  and  C_31
REMARK    8  A    between atoms: C_31  and  C_32
REMARK                            x       y       z     vdW  Elec       q    Type
REMARK                         _______ _______ _______ _____ _____    ______ ____
ROOT
ATOM      4  C   UNL     1       0.142   0.502  23.609  0.00  0.00    +0.006 C 
ATOM      5  C   UNL     1      -0.544   0.889  23.856  0.00  0.00    +0.005 C 
ATOM      6  C   UNL     1      -0.509   1.677  24.097  0.00  0.00    +0.027 C 
ATOM     22  C   UNL     1       0.212   2.078  24.092  0.00  0.00    -0.048 C 
ATOM     23  C   UNL     1       0.247   2.866  24.333  0.00  0.00    +0.026 C 
ATOM     24  C   UNL     1       0.897   1.691  23.846  0.00  0.00    -0.033 C 
ATOM     25  C   UNL     1       0.862   0.903  23.605  0.00  0.00    +0.041 C 
ENDROOT
BRANCH   4   2
ATOM      1  C   UNL     1       0.096  -0.472  22.565  0.00  0.00    +0.000 C 
ATOM      2  C   UNL     1       0.107  -0.287  23.368  0.00  0.00    +0.000 C 
ATOM      3  C   UNL     1       0.083  -0.889  23.931  0.00  0.00    +0.000 C 
ENDBRANCH   4   2
BRANCH   6   7
ATOM      7  C   UNL     1      -1.195   2.063  24.343  0.00  0.00    +0.089 C 
BRANCH   7   8
ATOM      8  C   UNL     1      -1.845   2.111  23.837  0.00  0.00    +0.226 C 
ATOM      9  O   UNL     1      -1.731   2.170  23.022  0.00  0.00    -0.275 OA
ATOM     10  N   UNL     1      -2.611   2.101  24.146  0.00  0.00    -0.276 N 
ATOM     11  C   UNL     1      -2.725   2.043  24.961  0.00  0.00    +0.115 C 
ATOM     12  C   UNL     1      -3.490   2.033  25.271  0.00  0.00    +0.114 C 
ATOM     13  N   UNL     1      -4.140   2.081  24.765  0.00  0.00    -0.290 N 
ATOM     14  C   UNL     1      -4.026   2.139  23.949  0.00  0.00    +0.114 C 
ATOM     15  C   UNL     1      -3.261   2.149  23.641  0.00  0.00    +0.115 C 
ATOM     16  C   UNL     1      -4.905   2.071  25.074  0.00  0.00    +0.132 A 
ATOM     17  N   UNL     1      -5.020   2.012  25.889  0.00  0.00    -0.229 NA
ATOM     18  C   UNL     1      -5.784   2.002  26.198  0.00  0.00    +0.100 A 
ATOM     19  C   UNL     1      -6.435   2.050  25.692  0.00  0.00    +0.021 A 
ATOM     20  C   UNL     1      -6.320   2.109  24.878  0.00  0.00    +0.004 A 
ATOM     21  C   UNL     1      -5.555   2.119  24.568  0.00  0.00    +0.034 A 
ENDBRANCH   7   8
ENDBRANCH   6   7
BRANCH  25  26
ATOM     26  C   UNL     1       1.549   0.517  23.359  0.00  0.00    +0.119 C 
BRANCH  26  27
ATOM     27  N   UNL     1       2.282   0.888  23.440  0.00  0.00    -0.081 NA
BRANCH  27  28
ATOM     28  S   UNL     1       2.948   0.570  23.071  0.00  0.00    +0.062 S 
ATOM     29  O   UNL     1       3.140   1.316  22.775  0.00  0.00    -0.156 OA
ATOM     30  O   UNL     1       2.756  -0.176  23.368  0.00  0.00    -0.156 OA
BRANCH  28  31
ATOM     31  C   UNL     1       3.613   0.252  22.703  0.00  0.00    +0.197 C 
BRANCH  31  32
ATOM     32  C   UNL     1       4.302   0.118  23.138  0.00  0.00    +0.003 A 
ATOM     33  C   UNL     1       4.832   0.736  23.271  0.00  0.00    -0.003 A 
ATOM     34  C   UNL     1       5.520   0.603  23.706  0.00  0.00    -0.000 A 
ATOM     35  C   UNL     1       5.678  -0.150  24.008  0.00  0.00    -0.000 A 
ATOM     36  C   UNL     1       5.147  -0.767  23.875  0.00  0.00    -0.000 A 
ATOM     37  C   UNL     1       4.459  -0.633  23.440  0.00  0.00    -0.003 A 
ENDBRANCH  31  32
ENDBRANCH  28  31
ENDBRANCH  27  28
ENDBRANCH  26  27
ENDBRANCH  25  26
TORSDOF 8
ENDMDL
MODEL 2
REMARK VINA RESULT:      -7.9      1.816      7.470
REMARK  Name = 
REMARK  8 active torsions:
REMARK  status: ('A' for Active; 'I' for Inactive)
REMARK    1  A    between atoms: C_2  and  C_4
REMARK    2  A    between atoms: C_6  and  C_7
REMARK    3  A    between atoms: C_7  and  C_8
REMARK    4  A    between atoms: C_25  and  C_26
REMARK    5  A    between atoms: C_26  and  N_27
REMARK    6  A    between atoms: N_27  and  S_28
REMARK    7  A    between atoms: S_28  and  C_31
REMARK    8  A    between atoms: C_31  and  C_32
REMARK                            x       y       z     vdW  Elec       q    Type
REMARK                         _______ _______ _______ _____ _____    ______ ____
ROOT
ATOM      4  C   UNL     1      -1.229  -0.030  24.457  0.00  0.00    +0.006 C 
ATOM      5  C   UNL     1      -0.477   0.122  24.152  0.00  0.00    +0.005 C 
ATOM      6  C   UNL     1      -0.351   0.787  23.680  0.00  0.00    +0.027 C 
ATOM     22  C   UNL     1      -0.976   1.299  23.514  0.00  0.00    -0.048 C 
ATOM     23  C   UNL     1      -0.850   1.964  23.042  0.00  0.00    +0.026 C 
ATOM     24  C   UNL     1      -1.727   1.147  23.819  0.00  0.00    -0.033 C 
ATOM     25  C   UNL     1      -1.853   0.482  24.291  0.00  0.00    +0.041 C 
ENDROOT
BRANCH   4   2
ATOM      1  C   UNL     1      -1.623  -1.397  24.590  0.00  0.00    +0.000 C 
ATOM      2  C   UNL     1      -1.355  -0.696  24.930  0.00  0.00    +0.000 C 
ATOM      3  C   UNL     1      -1.214  -0.657  25.742  0.00  0.00    +0.000 C 
ENDBRANCH   4   2
BRANCH   6   7
ATOM      7  C   UNL     1       0.400   0.939  23.375  0.00  0.00    +0.089 C 
BRANCH   7   8
ATOM      8  C   UNL     1       0.820   0.338  22.997  0.00  0.00    +0.226 C 
ATOM      9  O   UNL     1       0.418  -0.243  22.571  0.00  0.00    -0.275 OA
ATOM     10  N   UNL     1       1.644   0.318  23.044  0.00  0.00    -0.276 N 
ATOM     11  C   UNL     1       2.047   0.899  23.470  0.00  0.00    +0.115 C 
ATOM     12  C   UNL     1       2.871   0.879  23.517  0.00  0.00    +0.114 C 
ATOM     13  N   UNL     1       3.291   0.279  23.139  0.00  0.00    -0.290 N 
ATOM     14  C   UNL     1       2.888  -0.302  22.712  0.00  0.00    +0.114 C 
ATOM     15  C   UNL     1       2.065  -0.282  22.666  0.00  0.00    +0.115 C 
ATOM     16  C   UNL     1       4.115   0.259  23.185  0.00  0.00    +0.132 A 
ATOM     17  N   UNL     1       4.518   0.840  23.612  0.00  0.00    -0.229 NA
ATOM     18  C   UNL     1       5.341   0.820  23.658  0.00  0.00    +0.100 A 
ATOM     19  C   UNL     1       5.761   0.219  23.280  0.00  0.00    +0.021 A 
ATOM     20  C   UNL     1       5.359  -0.361  22.855  0.00  0.00    +0.004 A 
ATOM     21  C   UNL     1       4.535  -0.342  22.807  0.00  0.00    +0.034 A 
ENDBRANCH   7   8
ENDBRANCH   6   7
BRANCH  25  26
ATOM     26  C   UNL     1      -2.605   0.330  24.596  0.00  0.00    +0.119 C 
BRANCH  26  27
ATOM     27  N   UNL     1      -3.236   0.828  24.405  0.00  0.00    -0.081 NA
BRANCH  27  28
ATOM     28  S   UNL     1      -3.940   0.783  24.832  0.00  0.00    +0.062 S 
ATOM     29  O   UNL     1      -3.606   1.241  25.432  0.00  0.00    -0.156 OA
ATOM     30  O   UNL     1      -4.274   0.325  24.232  0.00  0.00    -0.156 OA
BRANCH  28  31
ATOM     31  C   UNL     1      -4.643   0.738  25.258  0.00  0.00    +0.197 C 
BRANCH  31  32
ATOM     32  C   UNL     1      -5.159   1.384  25.273  0.00  0.00    +0.003 A 
ATOM     33  C   UNL     1      -5.882   1.343  24.878  0.00  0.00    -0.003 A 
ATOM     34  C   UNL     1      -6.396   1.988  24.893  0.00  0.00    -0.000 A 
ATOM     35  C   UNL     1      -6.188   2.673  25.303  0.00  0.00    -0.000 A 
ATOM     36  C   UNL     1      -5.465   2.712  25.699  0.00  0.00    -0.000 A 
ATOM     37  C   UNL     1      -4.951   2.068  25.684  0.00  0.00    -0.003 A 
ENDBRANCH  31  32
ENDBRANCH  28  31
ENDBRANCH  27  28
ENDBRANCH  26  27
ENDBRANCH  25  26
TORSDOF 8
ENDMDL
MODEL 3
REMARK VINA RESULT:      -6.9      1.991      7.432
REMARK  Name = 
REMARK  8 active torsions:
REMARK  status: ('A' for Active; 'I' for Inactive)
REMARK    1  A    between atoms: C_2  and  C_4
REMARK    2  A    between atoms: C_6  and  C_7
REMARK    3  A    between atoms: C_7  and  C_8
REMARK    4  A    between atoms: C_25  and  C_26
REMARK    5  A    between atoms: C_26  and  N_27
REMARK    6  A    between atoms: N_27  and  S_28
REMARK    7  A    between atoms: S_28  and  C_31
REMARK    8  A    between atoms: C_31  and  C_32
REMARK                            x       y       z     vdW  Elec       q    Type
REMARK                         _______ _______ _______ _____ _____    ______ ____
ROOT
ATOM      4  C   UNL     1      -2.322   2.143  23.907  0.00  0.00    +0.006 C 
ATOM      5  C   UNL     1      -1.560   1.828  23.927  0.00  0.00    +0.005 C 
ATOM      6  C   UNL     1      -1.065   1.985  24.568  0.00  0.00    +0.027 C 
ATOM     22  C   UNL     1      -1.334   2.458  25.189  0.00  0.00    -0.048 C 
ATOM     23  C   UNL     1      -0.840   2.616  25.831  0.00  0.00    +0.026 C 
ATOM     24  C   UNL     1      -2.096   2.773  25.169  0.00  0.00    -0.033 C 
ATOM     25  C   UNL     1      -2.590   2.616  24.527  0.00  0.00    +0.041 C 
ENDROOT
BRANCH   4   2
ATOM      1  C   UNL     1      -2.846   2.510  22.629  0.00  0.00    +0.000 C 
ATOM      2  C   UNL     1      -2.817   1.986  23.265  0.00  0.00    +0.000 C 
ATOM      3  C   UNL     1      -3.282   1.304  23.260  0.00  0.00    +0.000 C 
ENDBRANCH   4   2
BRANCH   6   7
ATOM      7  C   UNL     1      -0.304   1.670  24.589  0.00  0.00    +0.089 C 
BRANCH   7   8
ATOM      8  C   UNL     1      -0.128   0.988  24.159  0.00  0.00    +0.226 C 
ATOM      9  O   UNL     1      -0.703   0.406  24.055  0.00  0.00    -0.275 OA
ATOM     10  N   UNL     1       0.624   0.888  23.833  0.00  0.00    -0.276 N 
ATOM     11  C   UNL     1       1.199   1.470  23.938  0.00  0.00    +0.115 C 
ATOM     12  C   UNL     1       1.951   1.369  23.612  0.00  0.00    +0.114 C 
ATOM     13  N   UNL     1       2.127   0.687  23.182  0.00  0.00    -0.290 N 
ATOM     14  C   UNL     1       1.551   0.105  23.078  0.00  0.00    +0.114 C 
ATOM     15  C   UNL     1       0.800   0.206  23.404  0.00  0.00    +0.115 C 
ATOM     16  C   UNL     1       2.878   0.586  22.856  0.00  0.00    +0.132 A 
ATOM     17  N   UNL     1       3.454   1.169  22.961  0.00  0.00    -0.229 NA
ATOM     18  C   UNL     1       4.205   1.068  22.635  0.00  0.00    +0.100 A 
ATOM     19  C   UNL     1       4.381   0.386  22.205  0.00  0.00    +0.021 A 
ATOM     20  C   UNL     1       3.805  -0.195  22.101  0.00  0.00    +0.004 A 
ATOM     21  C   UNL     1       3.053  -0.096  22.427  0.00  0.00    +0.034 A 
ENDBRANCH   7   8
ENDBRANCH   6   7
BRANCH  25  26
ATOM     26  C   UNL     1      -3.352   2.931  24.507  0.00  0.00    +0.119 C 
BRANCH  26  27
ATOM     27  N   UNL     1      -3.611   3.422  25.119  0.00  0.00    -0.081 NA
BRANCH  27  28
ATOM     28  S   UNL     1      -4.417   3.483  25.285  0.00  0.00    +0.062 S 
ATOM     29  O   UNL     1      -4.286   3.168  26.037  0.00  0.00    -0.156 OA
ATOM     30  O   UNL     1      -4.548   3.798  24.533  0.00  0.00    -0.156 OA
BRANCH  28  31
ATOM     31  C   UNL     1      -5.222   3.544  25.451  0.00  0.00    +0.197 C 
BRANCH  31  32
ATOM     32  C   UNL     1      -5.679   2.861  25.534  0.00  0.00    +0.003 A 
ATOM     33  C   UNL     1      -6.031   2.518  24.871  0.00  0.00    -0.003 A 
ATOM     34  C   UNL     1      -6.487   1.836  24.954  0.00  0.00    -0.000 A 
ATOM     35  C   UNL     1      -6.593   1.497  25.700  0.00  0.00    -0.000 A 
ATOM     36  C   UNL     1      -6.241   1.842  26.362  0.00  0.00    -0.000 A 
ATOM     37  C   UNL     1      -5.784   2.524  26.279  0.00  0.00    -0.003 A 
ENDBRANCH  31  32
ENDBRANCH  28  31
ENDBRANCH  27  28
ENDBRANCH  26  27
ENDBRANCH  25  26
TORSDOF 8
ENDMDL
MODEL 4
REMARK VINA RESULT:      -5.4     15.937     17.939
REMARK  Name = 
REMARK  8 active torsions:
REMARK  status: ('A' for Active; 'I' for Inactive)
REMARK    1  A    between atoms: C_2  and  C_4
REMARK    2  A    between atoms: C_6  and  C_7
REMARK    3  A    between atoms: C_7  and  C_8
REMARK    4  A    between atoms: C_25  and  C_26
REMARK    5  A    between atoms: C_26  and  N_27
REMARK    6  A    between atoms: N_27  and  S_28
REMARK    7  A    between atoms: S_28  and  C_31
REMARK    8  A    between atoms: C_31  and  C_32
REMARK                            x       y       z     vdW  Elec       q    Type
REMARK                         _______ _______ _______ _____ _____    ______ ____
ROOT
ATOM      4  C   UNL     1      -6.287  -9.021  11.118  0.00  0.00    +0.006 C 
ATOM      5  C   UNL     1      -6.160  -9.287  11.889  0.00  0.00    +0.005 C 
ATOM      6  C   UNL     1      -6.784  -9.612  12.320  0.00  0.00    +0.027 C 
ATOM     22  C   UNL     1      -7.534  -9.669  11.981  0.00  0.00    -0.048 C 
ATOM     23  C   UNL     1      -8.157  -9.994  12.413  0.00  0.00    +0.026 C 
ATOM     24  C   UNL     1      -7.660  -9.403  11.212  0.00  0.00    -0.033 C 
ATOM     25  C   UNL     1      -7.037  -9.078  10.780  0.00  0.00    +0.041 C 
ENDROOT
BRANCH   4   2
ATOM      1  C   UNL     1      -5.427  -7.918  10.824  0.00  0.00    +0.000 C 
ATOM      2  C   UNL     1      -5.663  -8.696  10.686  0.00  0.00    +0.000 C 
ATOM      3  C   UNL     1      -5.277  -9.150  10.115  0.00  0.00    +0.000 C 
ENDBRANCH   4   2
BRANCH   6   7
ATOM      7  C   UNL     1      -6.657  -9.878  13.090  0.00  0.00    +0.089 C 
BRANCH   7   8
ATOM      8  C   UNL     1      -5.934 -10.220  13.295  0.00  0.00    +0.226 C 
ATOM      9  O   UNL     1      -5.439 -10.520  12.707  0.00  0.00    -0.275 OA
ATOM     10  N   UNL     1      -5.706 -10.261  14.087  0.00  0.00    -0.276 N 
ATOM     11  C   UNL     1      -6.202  -9.960  14.674  0.00  0.00    +0.115 C 
ATOM     12  C   UNL     1      -5.974 -10.002  15.467  0.00  0.00    +0.114 C 
ATOM     13  N   UNL     1      -5.251 -10.343  15.671  0.00  0.00    -0.290 N 
ATOM     14  C   UNL     1      -4.755 -10.644  15.083  0.00  0.00    +0.114 C 
ATOM     15  C   UNL     1      -4.984 -10.603  14.291  0.00  0.00    +0.115 C 
ATOM     16  C   UNL     1      -5.023 -10.385  16.463  0.00  0.00    +0.132 A 
ATOM     17  N   UNL     1      -5.518 -10.084  17.051  0.00  0.00    -0.229 NA
ATOM     18  C   UNL     1      -5.290 -10.125  17.842  0.00  0.00    +0.100 A 
ATOM     19  C   UNL     1      -4.568 -10.467  18.046  0.00  0.00    +0.021 A 
ATOM     20  C   UNL     1      -4.073 -10.767  17.459  0.00  0.00    +0.004 A 
ATOM     21  C   UNL     1      -4.300 -10.726  16.667  0.00  0.00    +0.034 A 
ENDBRANCH   7   8
ENDBRANCH   6   7
BRANCH  25  26
ATOM     26  C   UNL     1      -7.164  -8.812  10.009  0.00  0.00    +0.119 C 
BRANCH  26  27
ATOM     27  N   UNL     1      -7.929  -8.801   9.698  0.00  0.00    -0.081 NA
BRANCH  27  28
ATOM     28  S   UNL     1      -8.077  -8.422   8.981  0.00  0.00    +0.062 S 
ATOM     29  O   UNL     1      -7.793  -9.081   8.573  0.00  0.00    -0.156 OA
ATOM     30  O   UNL     1      -8.361  -7.762   9.387  0.00  0.00    -0.156 OA
BRANCH  28  31
ATOM     31  C   UNL     1      -8.224  -8.043   8.264  0.00  0.00    +0.197 C 
BRANCH  31  32
ATOM     32  C   UNL     1      -8.448  -7.248   8.255  0.00  0.00    +0.003 A 
ATOM     33  C   UNL     1      -9.239  -7.041   8.365  0.00  0.00    -0.003 A 
ATOM     34  C   UNL     1      -9.462  -6.247   8.356  0.00  0.00    -0.000 A 
ATOM     35  C   UNL     1      -8.894  -5.660   8.238  0.00  0.00    -0.000 A 
ATOM     36  C   UNL     1      -8.103  -5.868   8.129  0.00  0.00    -0.000 A 
ATOM     37  C   UNL     1      -7.880  -6.662   8.137  0.00  0.00    -0.003 A 
ENDBRANCH  31  32
ENDBRANCH  28  31
ENDBRANCH  27  28
ENDBRANCH  26  27
ENDBRANCH  25  26
TORSDOF 8
ENDMDL
