MODEL 1
REMARK VINA RESULT:     -12.8      0.000      0.000
REMARK  Name = 
REMARK  7 active torsions:
REMARK  status: ('A' for Active; 'I' for Inactive)
REMARK    1  A    between atoms: C_2  and  N_4
REMARK    2  A    between atoms: C_5  and  C_7
REMARK    3  A    between atoms: C_7  and  C_8
REMARK    4  A    between atoms: C_13  and  C_14
REMARK    5  A    between atoms: C_14  and  C_15
REMARK    6  A    between atoms: C_18  and  C_20
REMARK    7  A    between atoms: C_23  and  C_26
REMARK                            x       y       z     vdW  Elec       q    Type
REMARK                         _______ _______ _______ _____ _____    ______ ____
ROOT
ATOM     15  C   UNL     1      -4.461   1.941  24.550  0.00  0.00    +0.101 A 
ATOM     16  N   UNL     1      -5.244   1.706  24.655  0.00  0.00    -0.081 NA
ATOM     17  O   UNL     1      -5.258   0.882  24.695  0.00  0.00    -0.354 OA
ATOM     18  C   UNL     1      -4.484   0.609  24.614  0.00  0.00    +0.177 A 
ATOM     19  C   UNL     1      -3.991   1.263  24.525  0.00  0.00    +0.058 A 
ENDROOT
BRANCH  18  20
ATOM     20  C   UNL     1      -4.245  -0.181  24.622  0.00  0.00    +0.037 A 
ATOM     21  C   UNL     1      -4.343  -0.648  23.949  0.00  0.00    +0.003 A 
ATOM     22  C   UNL     1      -4.103  -1.437  23.957  0.00  0.00    -0.004 A 
ATOM     23  C   UNL     1      -3.766  -1.759  24.637  0.00  0.00    -0.023 A 
ATOM     24  C   UNL     1      -3.668  -1.293  25.309  0.00  0.00    -0.004 A 
ATOM     25  C   UNL     1      -3.907  -0.503  25.302  0.00  0.00    +0.003 A 
BRANCH  23  26
ATOM     26  C   UNL     1      -3.526  -2.549  24.644  0.00  0.00    +0.019 C 
ATOM     27  C   UNL     1      -3.287  -3.338  24.651  0.00  0.00    +0.004 C 
ATOM     28  C   UNL     1      -3.053  -2.399  25.303  0.00  0.00    +0.004 C 
ATOM     29  C   UNL     1      -3.999  -2.699  23.984  0.00  0.00    +0.004 C 
ENDBRANCH  23  26
ENDBRANCH  18  20
BRANCH  15  14
ATOM     14  C   UNL     1      -4.193   2.719  24.481  0.00  0.00    +0.051 C 
BRANCH  14  13
ATOM      8  C   UNL     1      -3.483   3.670  25.277  0.00  0.00    +0.012 C 
ATOM      9  C   UNL     1      -3.439   4.151  25.946  0.00  0.00    +0.019 C 
ATOM     10  C   UNL     1      -4.060   4.161  26.488  0.00  0.00    +0.089 C 
ATOM     11  N   UNL     1      -4.726   3.691  26.362  0.00  0.00    -0.218 NA
ATOM     12  C   UNL     1      -4.770   3.210  25.693  0.00  0.00    +0.089 C 
ATOM     13  C   UNL     1      -4.149   3.200  25.150  0.00  0.00    +0.024 C 
BRANCH   8   7
ATOM      7  C   UNL     1      -2.861   3.660  24.734  0.00  0.00    +0.087 C 
BRANCH   7   5
ATOM      4  N   UNL     1      -1.465   3.371  24.836  0.00  0.00    -0.207 NA
ATOM      5  C   UNL     1      -2.103   3.879  24.973  0.00  0.00    +0.241 C 
ATOM      6  O   UNL     1      -1.980   4.603  25.348  0.00  0.00    -0.273 OA
BRANCH   4   2
ATOM      1  C   UNL     1      -0.323   3.164  25.669  0.00  0.00    +0.023 C 
ATOM      2  C   UNL     1      -0.707   3.590  25.075  0.00  0.00    +0.095 C 
ATOM      3  C   UNL     1      -0.332   4.234  24.720  0.00  0.00    +0.023 C 
ENDBRANCH   4   2
ENDBRANCH   7   5
ENDBRANCH   8   7
ENDBRANCH  14  13
ENDBRANCH  15  14
TORSDOF 7
ENDMDL
MODEL 2
REMARK VINA RESULT:     -11.2      1.595      2.986
REMARK  Name = 
REMARK  7 active torsions:
REMARK  status: ('A' for Active; 'I' for Inactive)
REMARK    1  A    between atoms: C_2  and  N_4
REMARK    2  A    between atoms: C_5  and  C_7
REMARK    3  A    between atoms: C_7  and  C_8
REMARK    4  A    between atoms: C_13  and  C_14
REMARK    5  A    between atoms: C_14  and  C_15
REMARK    6  A    between atoms: C_18  and  C_20
REMARK    7  A    between atoms: C_23  and  C_26
REMARK                            x       y       z     vdW  Elec       q    Type
REMARK                         _______ _______ _______ _____ _____    ______ ____
ROOT
ATOM     15  C   UNL     1      -0.978   1.027  25.465  0.00  0.00    +0.101 A 
ATOM     16  N   UNL     1      -0.370   0.518  25.238  0.00  0.00    -0.081 NA
ATOM     17  O   UNL     1      -0.713  -0.186  24.976  0.00  0.00    -0.354 OA
ATOM     18  C   UNL     1      -1.531  -0.111  25.042  0.00  0.00    +0.177 A 
ATOM     19  C   UNL     1      -1.696   0.639  25.344  0.00  0.00    +0.058 A 
ENDROOT
BRANCH  18  20
ATOM     20  C   UNL     1      -2.089  -0.685  24.841  0.00  0.00    +0.037 A 
ATOM     21  C   UNL     1      -2.873  -0.467  24.703  0.00  0.00    +0.003 A 
ATOM     22  C   UNL     1      -3.431  -1.041  24.502  0.00  0.00    -0.004 A 
ATOM     23  C   UNL     1      -3.205  -1.831  24.439  0.00  0.00    -0.023 A 
ATOM     24  C   UNL     1      -2.422  -2.049  24.577  0.00  0.00    -0.004 A 
ATOM     25  C   UNL     1      -1.863  -1.476  24.778  0.00  0.00    +0.003 A 
BRANCH  23  26
ATOM     26  C   UNL     1      -3.764  -2.405  24.238  0.00  0.00    +0.019 C 
ATOM     27  C   UNL     1      -4.322  -2.977  24.037  0.00  0.00    +0.004 C 
ATOM     28  C   UNL     1      -4.177  -1.845  23.794  0.00  0.00    +0.004 C 
ATOM     29  C   UNL     1      -3.350  -2.964  24.682  0.00  0.00    +0.004 C 
ENDBRANCH  23  26
ENDBRANCH  18  20
BRANCH  15  14
ATOM     14  C   UNL     1      -0.885   1.791  25.762  0.00  0.00    +0.051 C 
BRANCH  14  13
ATOM      8  C   UNL     1      -1.105   3.125  25.297  0.00  0.00    +0.012 C 
ATOM      9  C   UNL     1      -0.914   3.744  24.786  0.00  0.00    +0.019 C 
ATOM     10  C   UNL     1      -0.312   3.650  24.231  0.00  0.00    +0.089 C 
ATOM     11  N   UNL     1       0.100   2.937  24.186  0.00  0.00    -0.218 NA
ATOM     12  C   UNL     1      -0.090   2.317  24.696  0.00  0.00    +0.089 C 
ATOM     13  C   UNL     1      -0.694   2.411  25.252  0.00  0.00    +0.024 C 
BRANCH   8   7
ATOM      7  C   UNL     1      -1.708   3.218  25.853  0.00  0.00    +0.087 C 
BRANCH   7   5
ATOM      4  N   UNL     1      -3.113   3.293  25.603  0.00  0.00    -0.207 NA
ATOM      5  C   UNL     1      -2.377   3.662  25.663  0.00  0.00    +0.241 C 
ATOM      6  O   UNL     1      -2.311   4.475  25.535  0.00  0.00    -0.273 OA
BRANCH   4   2
ATOM      1  C   UNL     1      -4.195   4.135  26.008  0.00  0.00    +0.023 C 
ATOM      2  C   UNL     1      -3.782   3.737  25.414  0.00  0.00    +0.095 C 
ATOM      3  C   UNL     1      -4.039   3.784  24.631  0.00  0.00    +0.023 C 
ENDBRANCH   4   2
ENDBRANCH   7   5
ENDBRANCH   8   7
ENDBRANCH  14  13
ENDBRANCH  15  14
TORSDOF 7
ENDMDL
