MODEL 1
REMARK VINA RESULT:      -9.9      0.000      0.000
REMARK  Name = 
REMARK  6 active torsions:
REMARK  status: ('A' for Active; 'I' for Inactive)
REMARK    1  A    between atoms: N_2  and  C_4
REMARK    2  A    between atoms: C_7  and  C_10
REMARK    3  A    between atoms: C_13  and  C_15
REMARK    4  A    between atoms: N_19  and  C_20
REMARK    5  A    between atoms: C_20  and  C_21
REMARK    6  A    between atoms: C_24  and  C_25
REMARK                            x       y       z     vdW  Elec       q    Type
REMARK                         _______ _______ _______ _____ _____    ______ ____
ROOT
ATOM     10  C   UNL     1      -4.081   0.421  24.836  0.00  0.00    +0.205 A 
ATOM     11  N   UNL     1      -4.650   0.682  25.373  0.00  0.00    -0.056 NA
ATOM     12  O   UNL     1      -4.762   1.491  25.252  0.00  0.00    -0.336 OA
ATOM     13  C   UNL     1      -4.263   1.729  24.640  0.00  0.00    +0.251 A 
ATOM     14  N   UNL     1      -3.841   1.068  24.383  0.00  0.00    -0.190 NA
ENDROOT
BRANCH  10   7
ATOM      4  C   UNL     1      -3.239  -1.897  24.621  0.00  0.00    +0.132 A 
ATOM      5  C   UNL     1      -3.863  -1.640  24.148  0.00  0.00    +0.034 A 
ATOM      6  C   UNL     1      -4.144  -0.867  24.220  0.00  0.00    +0.008 A 
ATOM      7  C   UNL     1      -3.800  -0.352  24.765  0.00  0.00    +0.058 A 
ATOM      8  C   UNL     1      -3.175  -0.610  25.238  0.00  0.00    +0.103 A 
ATOM      9  N   UNL     1      -2.894  -1.382  25.167  0.00  0.00    -0.229 NA
BRANCH   4   2
ATOM      1  C   UNL     1      -2.150  -2.807  24.447  0.00  0.00    +0.114 C 
ATOM      2  N   UNL     1      -2.958  -2.669  24.550  0.00  0.00    -0.290 N 
ATOM      3  C   UNL     1      -3.484  -3.304  24.580  0.00  0.00    +0.114 C 
ENDBRANCH   4   2
ENDBRANCH  10   7
BRANCH  13  15
ATOM     15  C   UNL     1      -4.196   2.494  24.339  0.00  0.00    +0.138 C 
ATOM     16  C   UNL     1      -4.617   2.801  23.700  0.00  0.00    +0.027 C 
ATOM     17  C   UNL     1      -4.377   3.583  23.589  0.00  0.00    +0.019 C 
ATOM     18  C   UNL     1      -3.808   3.758  24.160  0.00  0.00    +0.073 C 
ATOM     19  N   UNL     1      -3.696   3.085  24.623  0.00  0.00    -0.260 NA
BRANCH  19  20
ATOM     20  C   UNL     1      -3.175   3.016  25.259  0.00  0.00    +0.138 C 
BRANCH  20  21
ATOM     21  C   UNL     1      -2.568   3.566  25.357  0.00  0.00    +0.139 A 
ATOM     22  C   UNL     1      -2.581   4.219  25.860  0.00  0.00    +0.037 A 
ATOM     23  C   UNL     1      -1.862   4.616  25.783  0.00  0.00    +0.038 A 
ATOM     24  C   UNL     1      -1.404   4.207  25.232  0.00  0.00    +0.156 A 
ATOM     27  O   UNL     1      -1.840   3.558  24.969  0.00  0.00    -0.458 OA
BRANCH  24  25
ATOM     25  C   UNL     1      -0.644   4.412  24.987  0.00  0.00    +0.246 C 
ATOM     26  O   UNL     1      -0.489   5.174  24.711  0.00  0.00    -0.212 OA
ENDBRANCH  24  25
ENDBRANCH  20  21
ENDBRANCH  19  20
ENDBRANCH  13  15
TORSDOF 6
ENDMDL
MODEL 2
REMARK VINA RESULT:      -9.0      1.723      2.652
REMARK  Name = 
REMARK  6 active torsions:
REMARK  status: ('A' for Active; 'I' for Inactive)
REMARK    1  A    between atoms: N_2  and  C_4
REMARK    2  A    between atoms: C_7  and  C_10
REMARK    3  A    between atoms: C_13  and  C_15
REMARK    4  A    between atoms: N_19  and  C_20
REMARK    5  A    between atoms: C_20  and  C_21
REMARK    6  A    between atoms: C_24  and  C_25
REMARK                            x       y       z     vdW  Elec       q    Type
REMARK                         _______ _______ _______ _____ _____    ______ ____
ROOT
ATOM     10  C   UNL     1      -1.601  -0.207  25.218  0.00  0.00    +0.205 A 
ATOM     11  N   UNL     1      -1.168  -0.174  25.918  0.00  0.00    -0.056 NA
ATOM     12  O   UNL     1      -0.727   0.523  25.913  0.00  0.00    -0.336 OA
ATOM     13  C   UNL     1      -0.888   0.922  25.209  0.00  0.00    +0.251 A 
ATOM     14  N   UNL     1      -1.429   0.471  24.779  0.00  0.00    -0.190 NA
ENDROOT
BRANCH  10   7
ATOM      4  C   UNL     1      -3.149  -2.018  24.547  0.00  0.00    +0.132 A 
ATOM      5  C   UNL     1      -3.445  -1.326  24.883  0.00  0.00    +0.034 A 
ATOM      6  C   UNL     1      -2.929  -0.723  25.107  0.00  0.00    +0.008 A 
ATOM      7  C   UNL     1      -2.117  -0.811  24.994  0.00  0.00    +0.058 A 
ATOM      8  C   UNL     1      -1.820  -1.504  24.657  0.00  0.00    +0.103 A 
ATOM      9  N   UNL     1      -2.336  -2.107  24.434  0.00  0.00    -0.229 NA
BRANCH   4   2
ATOM      1  C   UNL     1      -3.551  -3.389  24.608  0.00  0.00    +0.114 C 
ATOM      2  N   UNL     1      -3.665  -2.622  24.323  0.00  0.00    -0.290 N 
ATOM      3  C   UNL     1      -4.294  -2.460  23.815  0.00  0.00    +0.114 C 
ENDBRANCH   4   2
ENDBRANCH  10   7
BRANCH  13  15
ATOM     15  C   UNL     1      -0.566   1.645  24.976  0.00  0.00    +0.138 C 
ATOM     16  C   UNL     1       0.080   1.747  24.473  0.00  0.00    +0.027 C 
ATOM     17  C   UNL     1       0.212   2.558  24.391  0.00  0.00    +0.019 C 
ATOM     18  C   UNL     1      -0.351   2.955  24.844  0.00  0.00    +0.073 C 
ATOM     19  N   UNL     1      -0.832   2.391  25.205  0.00  0.00    -0.260 NA
BRANCH  19  20
ATOM     20  C   UNL     1      -1.467   2.546  25.707  0.00  0.00    +0.138 C 
BRANCH  20  21
ATOM     21  C   UNL     1      -1.987   3.163  25.537  0.00  0.00    +0.139 A 
ATOM     22  C   UNL     1      -1.933   3.936  25.822  0.00  0.00    +0.037 A 
ATOM     23  C   UNL     1      -2.565   4.367  25.513  0.00  0.00    +0.038 A 
ATOM     24  C   UNL     1      -3.009   3.861  25.036  0.00  0.00    +0.156 A 
ATOM     27  O   UNL     1      -2.652   3.117  25.051  0.00  0.00    -0.458 OA
BRANCH  24  25
ATOM     25  C   UNL     1      -3.691   4.063  24.618  0.00  0.00    +0.246 C 
ATOM     26  O   UNL     1      -4.434   3.884  24.928  0.00  0.00    -0.212 OA
ENDBRANCH  24  25
ENDBRANCH  20  21
ENDBRANCH  19  20
ENDBRANCH  13  15
TORSDOF 6
ENDMDL
MODEL 3
REMARK VINA RESULT:      -8.8      1.767      3.095
REMARK  Name = 
REMARK  6 active torsions:
REMARK  status: ('A' for Active; 'I' for Inactive)
REMARK    1  A    between atoms: N_2  and  C_4
REMARK    2  A    between atoms: C_7  and  C_10
REMARK    3  A    between atoms: C_13  and  C_15
REMARK    4  A    between atoms: N_19  and  C_20
REMARK    5  A    between atoms: C_20  and  C_21
REMARK    6  A    between atoms: C_24  and  C_25
REMARK                            x       y       z     vdW  Elec       q    Type
REMARK                         _______ _______ _______ _____ _____    ______ ____
ROOT
ATOM     10  C   UNL     1      -1.435   1.341  24.391  0.00  0.00    +0.205 A 
ATOM     11  N   UNL     1      -1.297   1.750  23.688  0.00  0.00    -0.056 NA
ATOM     12  O   UNL     1      -1.487   2.543  23.812  0.00  0.00    -0.336 OA
ATOM     13  C   UNL     1      -1.743   2.625  24.592  0.00  0.00    +0.251 A 
ATOM     14  N   UNL     1      -1.711   1.882  24.950  0.00  0.00    -0.190 NA
ENDROOT
BRANCH  10   7
ATOM      4  C   UNL     1      -1.086  -1.081  24.759  0.00  0.00    +0.132 A 
ATOM      5  C   UNL     1      -1.803  -0.732  24.969  0.00  0.00    +0.034 A 
ATOM      6  C   UNL     1      -1.919   0.076  24.846  0.00  0.00    +0.008 A 
ATOM      7  C   UNL     1      -1.319   0.534  24.513  0.00  0.00    +0.058 A 
ATOM      8  C   UNL     1      -0.601   0.183  24.304  0.00  0.00    +0.103 A 
ATOM      9  N   UNL     1      -0.485  -0.624  24.426  0.00  0.00    -0.229 NA
BRANCH   4   2
ATOM      1  C   UNL     1      -1.497  -2.436  24.558  0.00  0.00    +0.114 C 
ATOM      2  N   UNL     1      -0.970  -1.889  24.882  0.00  0.00    -0.290 N 
ATOM      3  C   UNL     1      -0.327  -2.150  25.328  0.00  0.00    +0.114 C 
ENDBRANCH   4   2
ENDBRANCH  10   7
BRANCH  13  15
ATOM     15  C   UNL     1      -1.987   3.326  24.951  0.00  0.00    +0.138 C 
ATOM     16  C   UNL     1      -1.514   3.830  25.401  0.00  0.00    +0.027 C 
ATOM     17  C   UNL     1      -1.982   4.462  25.652  0.00  0.00    +0.019 C 
ATOM     18  C   UNL     1      -2.744   4.348  25.356  0.00  0.00    +0.073 C 
ATOM     19  N   UNL     1      -2.747   3.646  24.924  0.00  0.00    -0.260 NA
BRANCH  19  20
ATOM     20  C   UNL     1      -3.396   3.322  24.532  0.00  0.00    +0.138 C 
BRANCH  20  21
ATOM     21  C   UNL     1      -4.136   3.316  24.895  0.00  0.00    +0.139 A 
ATOM     22  C   UNL     1      -4.644   3.962  24.971  0.00  0.00    +0.037 A 
ATOM     23  C   UNL     1      -5.321   3.709  25.369  0.00  0.00    +0.038 A 
ATOM     24  C   UNL     1      -5.232   2.906  25.538  0.00  0.00    +0.156 A 
ATOM     27  O   UNL     1      -4.500   2.663  25.244  0.00  0.00    -0.458 OA
BRANCH  24  25
ATOM     25  C   UNL     1      -5.779   2.430  25.930  0.00  0.00    +0.246 C 
ATOM     26  O   UNL     1      -5.983   2.594  26.713  0.00  0.00    -0.212 OA
ENDBRANCH  24  25
ENDBRANCH  20  21
ENDBRANCH  19  20
ENDBRANCH  13  15
TORSDOF 6
ENDMDL
MODEL 4
REMARK VINA RESULT:      -8.7      2.170      5.859
REMARK  Name = 
REMARK  6 active torsions:
REMARK  status: ('A' for Active; 'I' for Inactive)
REMARK    1  A    between atoms: N_2  and  C_4
REMARK    2  A    between atoms: C_7  and  C_10
REMARK    3  A    between atoms: C_13  and  C_15
REMARK    4  A    between atoms: N_19  and  C_20
REMARK    5  A    between atoms: C_20  and  C_21
REMARK    6  A    between atoms: C_24  and  C_25
REMARK                            x       y       z     vdW  Elec       q    Type
REMARK                         _______ _______ _______ _____ _____    ______ ____
ROOT
ATOM     10  C   UNL     1      -1.199   1.699  24.311  0.00  0.00    +0.205 A 
ATOM     11  N   UNL     1      -1.149   1.438  23.530  0.00  0.00    -0.056 NA
ATOM     12  O   UNL     1      -1.003   0.626  23.541  0.00  0.00    -0.336 OA
ATOM     13  C   UNL     1      -0.963   0.384  24.328  0.00  0.00    +0.251 A 
ATOM     14  N   UNL     1      -1.084   1.047  24.805  0.00  0.00    -0.190 NA
ENDROOT
BRANCH  10   7
ATOM      4  C   UNL     1      -1.620   4.024  25.047  0.00  0.00    +0.132 A 
ATOM      5  C   UNL     1      -0.884   3.677  25.179  0.00  0.00    +0.034 A 
ATOM      6  C   UNL     1      -0.744   2.902  24.934  0.00  0.00    +0.008 A 
ATOM      7  C   UNL     1      -1.339   2.474  24.557  0.00  0.00    +0.058 A 
ATOM      8  C   UNL     1      -2.076   2.822  24.424  0.00  0.00    +0.103 A 
ATOM      9  N   UNL     1      -2.216   3.597  24.669  0.00  0.00    -0.229 NA
BRANCH   4   2
ATOM      1  C   UNL     1      -2.401   4.967  25.784  0.00  0.00    +0.114 C 
ATOM      2  N   UNL     1      -1.760   4.799  25.292  0.00  0.00    -0.290 N 
ATOM      3  C   UNL     1      -1.260   5.407  25.046  0.00  0.00    +0.114 C 
ENDBRANCH   4   2
ENDBRANCH  10   7
BRANCH  13  15
ATOM     15  C   UNL     1      -0.826  -0.384  24.593  0.00  0.00    +0.138 C 
ATOM     16  C   UNL     1      -0.095  -0.765  24.617  0.00  0.00    +0.027 C 
ATOM     17  C   UNL     1      -0.213  -1.524  24.920  0.00  0.00    +0.019 C 
ATOM     18  C   UNL     1      -1.017  -1.611  25.082  0.00  0.00    +0.073 C 
ATOM     19  N   UNL     1      -1.395  -0.907  24.881  0.00  0.00    -0.260 NA
BRANCH  19  20
ATOM     20  C   UNL     1      -2.202  -0.754  24.954  0.00  0.00    +0.138 C 
BRANCH  20  21
ATOM     21  C   UNL     1      -2.745  -1.374  24.925  0.00  0.00    +0.139 A 
ATOM     22  C   UNL     1      -3.084  -1.752  25.575  0.00  0.00    +0.037 A 
ATOM     23  C   UNL     1      -3.593  -2.337  25.294  0.00  0.00    +0.038 A 
ATOM     24  C   UNL     1      -3.568  -2.321  24.469  0.00  0.00    +0.156 A 
ATOM     27  O   UNL     1      -3.044  -1.725  24.242  0.00  0.00    -0.458 OA
BRANCH  24  25
ATOM     25  C   UNL     1      -3.993  -2.813  23.962  0.00  0.00    +0.246 C 
ATOM     26  O   UNL     1      -4.662  -2.527  23.572  0.00  0.00    -0.212 OA
ENDBRANCH  24  25
ENDBRANCH  20  21
ENDBRANCH  19  20
ENDBRANCH  13  15
TORSDOF 6
ENDMDL
MODEL 5
REMARK VINA RESULT:      -8.7      2.860      3.940
REMARK  Name = 
REMARK  6 active torsions:
REMARK  status: ('A' for Active; 'I' for Inactive)
REMARK    1  A    between atoms: N_2  and  C_4
REMARK    2  A    between atoms: C_7  and  C_10
REMARK    3  A    between atoms: C_13  and  C_15
REMARK    4  A    between atoms: N_19  and  C_20
REMARK    5  A    between atoms: C_20  and  C_21
REMARK    6  A    between atoms: C_24  and  C_25
REMARK                            x       y       z     vdW  Elec       q    Type
REMARK                         _______ _______ _______ _____ _____    ______ ____
ROOT
ATOM     10  C   UNL     1      -0.982   0.086  24.555  0.00  0.00    +0.205 A 
ATOM     11  N   UNL     1      -0.985   0.100  25.379  0.00  0.00    -0.056 NA
ATOM     12  O   UNL     1      -1.771   0.113  25.631  0.00  0.00    -0.336 OA
ATOM     13  C   UNL     1      -2.253   0.107  24.962  0.00  0.00    +0.251 A 
ATOM     14  N   UNL     1      -1.766   0.090  24.296  0.00  0.00    -0.190 NA
ENDROOT
BRANCH  10   7
ATOM      4  C   UNL     1       1.026   0.039  23.108  0.00  0.00    +0.132 A 
ATOM      5  C   UNL     1       0.716   0.760  23.359  0.00  0.00    +0.034 A 
ATOM      6  C   UNL     1       0.046   0.776  23.841  0.00  0.00    +0.008 A 
ATOM      7  C   UNL     1      -0.312   0.070  24.073  0.00  0.00    +0.058 A 
ATOM      8  C   UNL     1      -0.001  -0.652  23.821  0.00  0.00    +0.103 A 
ATOM      9  N   UNL     1       0.668  -0.668  23.339  0.00  0.00    -0.229 NA
BRANCH   4   2
ATOM      1  C   UNL     1       2.407   0.342  22.897  0.00  0.00    +0.114 C 
ATOM      2  N   UNL     1       1.696   0.024  22.626  0.00  0.00    -0.290 N 
ATOM      3  C   UNL     1       1.654  -0.310  21.873  0.00  0.00    +0.114 C 
ENDBRANCH   4   2
ENDBRANCH  10   7
BRANCH  13  15
ATOM     15  C   UNL     1      -3.078   0.115  24.958  0.00  0.00    +0.138 C 
ATOM     16  C   UNL     1      -3.569  -0.541  25.047  0.00  0.00    +0.027 C 
ATOM     17  C   UNL     1      -4.352  -0.280  25.009  0.00  0.00    +0.019 C 
ATOM     18  C   UNL     1      -4.343   0.537  24.896  0.00  0.00    +0.073 C 
ATOM     19  N   UNL     1      -3.556   0.781  24.865  0.00  0.00    -0.260 NA
BRANCH  19  20
ATOM     20  C   UNL     1      -3.293   1.556  24.759  0.00  0.00    +0.138 C 
BRANCH  20  21
ATOM     21  C   UNL     1      -3.829   2.181  24.787  0.00  0.00    +0.139 A 
ATOM     22  C   UNL     1      -4.215   2.519  24.141  0.00  0.00    +0.037 A 
ATOM     23  C   UNL     1      -4.699   3.126  24.421  0.00  0.00    +0.038 A 
ATOM     24  C   UNL     1      -4.612   3.163  25.241  0.00  0.00    +0.156 A 
ATOM     27  O   UNL     1      -4.075   2.579  25.467  0.00  0.00    -0.458 OA
BRANCH  24  25
ATOM     25  C   UNL     1      -4.996   3.691  25.745  0.00  0.00    +0.246 C 
ATOM     26  O   UNL     1      -5.818   3.757  25.727  0.00  0.00    -0.212 OA
ENDBRANCH  24  25
ENDBRANCH  20  21
ENDBRANCH  19  20
ENDBRANCH  13  15
TORSDOF 6
ENDMDL
MODEL 6
REMARK VINA RESULT:      -8.5      2.453      4.491
REMARK  Name = 
REMARK  6 active torsions:
REMARK  status: ('A' for Active; 'I' for Inactive)
REMARK    1  A    between atoms: N_2  and  C_4
REMARK    2  A    between atoms: C_7  and  C_10
REMARK    3  A    between atoms: C_13  and  C_15
REMARK    4  A    between atoms: N_19  and  C_20
REMARK    5  A    between atoms: C_20  and  C_21
REMARK    6  A    between atoms: C_24  and  C_25
REMARK                            x       y       z     vdW  Elec       q    Type
REMARK                         _______ _______ _______ _____ _____    ______ ____
ROOT
ATOM     10  C   UNL     1      -3.027   2.716  24.835  0.00  0.00    +0.205 A 
ATOM     11  N   UNL     1      -2.747   3.263  24.285  0.00  0.00    -0.056 NA
ATOM     12  O   UNL     1      -1.922   3.253  24.313  0.00  0.00    -0.336 OA
ATOM     13  C   UNL     1      -1.692   2.700  24.880  0.00  0.00    +0.251 A 
ATOM     14  N   UNL     1      -2.375   2.368  25.203  0.00  0.00    -0.190 NA
ENDROOT
BRANCH  10   7
ATOM      4  C   UNL     1      -5.404   2.206  25.299  0.00  0.00    +0.132 A 
ATOM      5  C   UNL     1      -4.929   1.647  24.922  0.00  0.00    +0.034 A 
ATOM      6  C   UNL     1      -4.136   1.817  24.767  0.00  0.00    +0.008 A 
ATOM      7  C   UNL     1      -3.819   2.546  24.989  0.00  0.00    +0.058 A 
ATOM      8  C   UNL     1      -4.295   3.105  25.367  0.00  0.00    +0.103 A 
ATOM      9  N   UNL     1      -5.088   2.935  25.522  0.00  0.00    -0.229 NA
BRANCH   4   2
ATOM      1  C   UNL     1      -6.465   1.994  26.234  0.00  0.00    +0.114 C 
ATOM      2  N   UNL     1      -6.196   2.036  25.454  0.00  0.00    -0.290 N 
ATOM      3  C   UNL     1      -6.721   1.908  24.830  0.00  0.00    +0.114 C 
ENDBRANCH   4   2
ENDBRANCH  10   7
BRANCH  13  15
ATOM     15  C   UNL     1      -0.917   2.512  25.089  0.00  0.00    +0.138 C 
ATOM     16  C   UNL     1      -0.481   2.860  25.696  0.00  0.00    +0.027 C 
ATOM     17  C   UNL     1       0.265   2.506  25.709  0.00  0.00    +0.019 C 
ATOM     18  C   UNL     1       0.289   1.941  25.109  0.00  0.00    +0.073 C 
ATOM     19  N   UNL     1      -0.441   1.944  24.726  0.00  0.00    -0.260 NA
BRANCH  19  20
ATOM     20  C   UNL     1      -0.657   1.464  24.091  0.00  0.00    +0.138 C 
BRANCH  20  21
ATOM     21  C   UNL     1      -0.413   0.677  24.067  0.00  0.00    +0.139 A 
ATOM     22  C   UNL     1       0.211   0.376  23.620  0.00  0.00    +0.037 A 
ATOM     23  C   UNL     1       0.261  -0.435  23.762  0.00  0.00    +0.038 A 
ATOM     24  C   UNL     1      -0.334  -0.636  24.299  0.00  0.00    +0.156 A 
ATOM     27  O   UNL     1      -0.749   0.052  24.487  0.00  0.00    -0.458 OA
BRANCH  24  25
ATOM     25  C   UNL     1      -0.484  -1.390  24.594  0.00  0.00    +0.246 C 
ATOM     26  O   UNL     1      -0.434  -1.534  25.405  0.00  0.00    -0.212 OA
ENDBRANCH  24  25
ENDBRANCH  20  21
ENDBRANCH  19  20
ENDBRANCH  13  15
TORSDOF 6
ENDMDL
MODEL 7
REMARK VINA RESULT:      -8.4      3.002      4.156
REMARK  Name = 
REMARK  6 active torsions:
REMARK  status: ('A' for Active; 'I' for Inactive)
REMARK    1  A    between atoms: N_2  and  C_4
REMARK    2  A    between atoms: C_7  and  C_10
REMARK    3  A    between atoms: C_13  and  C_15
REMARK    4  A    between atoms: N_19  and  C_20
REMARK    5  A    between atoms: C_20  and  C_21
REMARK    6  A    between atoms: C_24  and  C_25
REMARK                            x       y       z     vdW  Elec       q    Type
REMARK                         _______ _______ _______ _____ _____    ______ ____
ROOT
ATOM     10  C   UNL     1      -0.374   1.501  24.671  0.00  0.00    +0.205 A 
ATOM     11  N   UNL     1      -0.576   1.240  25.427  0.00  0.00    -0.056 NA
ATOM     12  O   UNL     1      -1.113   1.778  25.749  0.00  0.00    -0.336 OA
ATOM     13  C   UNL     1      -1.243   2.372  25.191  0.00  0.00    +0.251 A 
ATOM     14  N   UNL     1      -0.786   2.201  24.525  0.00  0.00    -0.190 NA
ENDROOT
BRANCH  10   7
ATOM      4  C   UNL     1       1.192   0.384  23.114  0.00  0.00    +0.132 A 
ATOM      5  C   UNL     1       0.480   0.020  23.314  0.00  0.00    +0.034 A 
ATOM      6  C   UNL     1      -0.042   0.392  23.833  0.00  0.00    +0.008 A 
ATOM      7  C   UNL     1       0.148   1.129  24.152  0.00  0.00    +0.058 A 
ATOM      8  C   UNL     1       0.861   1.493  23.952  0.00  0.00    +0.103 A 
ATOM      9  N   UNL     1       1.383   1.121  23.433  0.00  0.00    -0.229 NA
BRANCH   4   2
ATOM      1  C   UNL     1       1.423  -0.400  21.941  0.00  0.00    +0.114 C 
ATOM      2  N   UNL     1       1.714   0.011  22.595  0.00  0.00    -0.290 N 
ATOM      3  C   UNL     1       2.527   0.049  22.729  0.00  0.00    +0.114 C 
ENDBRANCH   4   2
ENDBRANCH  10   7
BRANCH  13  15
ATOM     15  C   UNL     1      -1.741   3.023  25.283  0.00  0.00    +0.138 C 
ATOM     16  C   UNL     1      -1.522   3.764  25.570  0.00  0.00    +0.027 C 
ATOM     17  C   UNL     1      -2.192   4.246  25.569  0.00  0.00    +0.019 C 
ATOM     18  C   UNL     1      -2.825   3.802  25.281  0.00  0.00    +0.073 C 
ATOM     19  N   UNL     1      -2.547   3.046  25.105  0.00  0.00    -0.260 NA
BRANCH  19  20
ATOM     20  C   UNL     1      -2.995   2.423  24.803  0.00  0.00    +0.138 C 
BRANCH  20  21
ATOM     21  C   UNL     1      -3.818   2.458  24.826  0.00  0.00    +0.139 A 
ATOM     22  C   UNL     1      -4.310   2.712  24.214  0.00  0.00    +0.037 A 
ATOM     23  C   UNL     1      -5.091   2.656  24.474  0.00  0.00    +0.038 A 
ATOM     24  C   UNL     1      -5.082   2.368  25.248  0.00  0.00    +0.156 A 
ATOM     27  O   UNL     1      -4.295   2.245  25.464  0.00  0.00    -0.458 OA
BRANCH  24  25
ATOM     25  C   UNL     1      -5.743   2.227  25.720  0.00  0.00    +0.246 C 
ATOM     26  O   UNL     1      -5.868   2.676  26.401  0.00  0.00    -0.212 OA
ENDBRANCH  24  25
ENDBRANCH  20  21
ENDBRANCH  19  20
ENDBRANCH  13  15
TORSDOF 6
ENDMDL
