MODEL 1
REMARK VINA RESULT:      -9.0      0.000      0.000
REMARK  Name = 
REMARK  5 active torsions:
REMARK  status: ('A' for Active; 'I' for Inactive)
REMARK    1  A    between atoms: O_2  and  C_3
REMARK    2  A    between atoms: C_6  and  C_9
REMARK    3  A    between atoms: C_15  and  C_18
REMARK    4  A    between atoms: C_21  and  C_23
REMARK    5  A    between atoms: N_27  and  C_28
REMARK                            x       y       z     vdW  Elec       q    Type
REMARK                         _______ _______ _______ _____ _____    ______ ____
ROOT
ATOM      9  C   UNL     1       1.773   0.409  23.057  0.00  0.00    +0.270 C 
ATOM     10  O   UNL     1       1.315  -0.068  22.565  0.00  0.00    -0.268 OA
ATOM     11  N   UNL     1       1.409   0.942  23.571  0.00  0.00    -0.157 NA
ATOM     12  C   UNL     1       0.586   0.998  23.593  0.00  0.00    +0.155 A 
ATOM     13  N   UNL     1       0.223   1.530  24.107  0.00  0.00    -0.227 NA
ATOM     14  C   UNL     1      -0.601   1.586  24.129  0.00  0.00    +0.103 A 
ATOM     15  C   UNL     1      -1.059   1.107  23.637  0.00  0.00    +0.058 A 
ATOM     16  C   UNL     1      -0.695   0.575  23.123  0.00  0.00    +0.008 A 
ATOM     17  C   UNL     1       0.128   0.520  23.101  0.00  0.00    +0.036 A 
ENDROOT
BRANCH   9   6
ATOM      3  C   UNL     1       4.242   0.244  22.991  0.00  0.00    +0.139 A 
ATOM      4  C   UNL     1       3.789  -0.420  23.177  0.00  0.00    +0.037 A 
ATOM      5  C   UNL     1       2.966  -0.365  23.199  0.00  0.00    +0.008 A 
ATOM      6  C   UNL     1       2.596   0.354  23.035  0.00  0.00    +0.056 A 
ATOM      7  C   UNL     1       3.049   1.018  22.849  0.00  0.00    +0.008 A 
ATOM      8  C   UNL     1       3.872   0.963  22.827  0.00  0.00    +0.037 A 
BRANCH   3   2
ATOM      1  C   UNL     1       5.495   0.164  23.673  0.00  0.00    +0.252 C 
ATOM      2  O   UNL     1       5.064   0.189  22.969  0.00  0.00    -0.471 OA
ENDBRANCH   3   2
ENDBRANCH   9   6
BRANCH  15  18
ATOM     18  C   UNL     1      -1.883   1.163  23.659  0.00  0.00    +0.205 A 
ATOM     19  N   UNL     1      -2.383   1.207  23.005  0.00  0.00    -0.056 NA
ATOM     20  O   UNL     1      -3.159   1.255  23.281  0.00  0.00    -0.336 OA
ATOM     21  C   UNL     1      -3.138   1.241  24.106  0.00  0.00    +0.251 A 
ATOM     22  N   UNL     1      -2.349   1.184  24.339  0.00  0.00    -0.190 NA
BRANCH  21  23
ATOM     23  C   UNL     1      -3.790   1.278  24.608  0.00  0.00    +0.138 C 
ATOM     24  C   UNL     1      -4.121   1.965  24.925  0.00  0.00    +0.027 C 
ATOM     25  C   UNL     1      -4.763   1.745  25.395  0.00  0.00    +0.019 C 
ATOM     26  C   UNL     1      -4.828   0.923  25.369  0.00  0.00    +0.072 C 
ATOM     27  N   UNL     1      -4.228   0.635  24.883  0.00  0.00    -0.268 NA
BRANCH  27  28
ATOM     28  C   UNL     1      -4.089  -0.159  24.703  0.00  0.00    +0.058 C 
ATOM     29  C   UNL     1      -4.308  -0.665  24.090  0.00  0.00    +0.016 C 
ATOM     30  C   UNL     1      -3.892  -1.280  24.449  0.00  0.00    +0.003 C 
ATOM     31  C   UNL     1      -3.672  -0.774  25.063  0.00  0.00    +0.016 C 
ENDBRANCH  27  28
ENDBRANCH  21  23
ENDBRANCH  15  18
TORSDOF 5
ENDMDL
MODEL 2
REMARK VINA RESULT:      -8.8      0.517      1.570
REMARK  Name = 
REMARK  5 active torsions:
REMARK  status: ('A' for Active; 'I' for Inactive)
REMARK    1  A    between atoms: O_2  and  C_3
REMARK    2  A    between atoms: C_6  and  C_9
REMARK    3  A    between atoms: C_15  and  C_18
REMARK    4  A    between atoms: C_21  and  C_23
REMARK    5  A    between atoms: N_27  and  C_28
REMARK                            x       y       z     vdW  Elec       q    Type
REMARK                         _______ _______ _______ _____ _____    ______ ____
ROOT
ATOM      9  C   UNL     1       1.851   0.444  23.061  0.00  0.00    +0.270 C 
ATOM     10  O   UNL     1       1.384  -0.022  22.568  0.00  0.00    -0.268 OA
ATOM     11  N   UNL     1       1.497   0.983  23.577  0.00  0.00    -0.157 NA
ATOM     12  C   UNL     1       0.675   1.054  23.599  0.00  0.00    +0.155 A 
ATOM     13  N   UNL     1       0.322   1.593  24.114  0.00  0.00    -0.227 NA
ATOM     14  C   UNL     1      -0.501   1.664  24.135  0.00  0.00    +0.103 A 
ATOM     15  C   UNL     1      -0.968   1.196  23.641  0.00  0.00    +0.058 A 
ATOM     16  C   UNL     1      -0.614   0.659  23.126  0.00  0.00    +0.008 A 
ATOM     17  C   UNL     1       0.208   0.587  23.105  0.00  0.00    +0.036 A 
ENDROOT
BRANCH   9   6
ATOM      3  C   UNL     1       4.316   0.231  22.998  0.00  0.00    +0.139 A 
ATOM      4  C   UNL     1       3.960   0.951  22.809  0.00  0.00    +0.037 A 
ATOM      5  C   UNL     1       3.138   1.022  22.830  0.00  0.00    +0.008 A 
ATOM      6  C   UNL     1       2.673   0.374  23.040  0.00  0.00    +0.056 A 
ATOM      7  C   UNL     1       3.030  -0.346  23.229  0.00  0.00    +0.008 A 
ATOM      8  C   UNL     1       3.851  -0.417  23.208  0.00  0.00    +0.037 A 
BRANCH   3   2
ATOM      1  C   UNL     1       5.571   0.168  23.680  0.00  0.00    +0.252 C 
ATOM      2  O   UNL     1       5.138   0.160  22.977  0.00  0.00    -0.471 OA
ENDBRANCH   3   2
ENDBRANCH   9   6
BRANCH  15  18
ATOM     18  C   UNL     1      -1.790   1.268  23.662  0.00  0.00    +0.205 A 
ATOM     19  N   UNL     1      -2.265   1.578  23.064  0.00  0.00    -0.056 NA
ATOM     20  O   UNL     1      -3.049   1.543  23.318  0.00  0.00    -0.336 OA
ATOM     21  C   UNL     1      -3.058   1.211  24.074  0.00  0.00    +0.251 A 
ATOM     22  N   UNL     1      -2.280   1.041  24.286  0.00  0.00    -0.190 NA
BRANCH  21  23
ATOM     23  C   UNL     1      -3.728   1.074  24.535  0.00  0.00    +0.138 C 
ATOM     24  C   UNL     1      -4.048   0.335  24.717  0.00  0.00    +0.027 C 
ATOM     25  C   UNL     1      -4.714   0.456  25.190  0.00  0.00    +0.019 C 
ATOM     26  C   UNL     1      -4.804   1.269  25.299  0.00  0.00    +0.072 C 
ATOM     27  N   UNL     1      -4.196   1.650  24.895  0.00  0.00    -0.268 NA
BRANCH  27  28
ATOM     28  C   UNL     1      -4.075   2.466  24.857  0.00  0.00    +0.058 C 
ATOM     29  C   UNL     1      -3.678   3.019  25.322  0.00  0.00    +0.016 C 
ATOM     30  C   UNL     1      -3.904   3.618  24.803  0.00  0.00    +0.003 C 
ATOM     31  C   UNL     1      -4.301   3.065  24.337  0.00  0.00    +0.016 C 
ENDBRANCH  27  28
ENDBRANCH  21  23
ENDBRANCH  15  18
TORSDOF 5
ENDMDL
MODEL 3
REMARK VINA RESULT:      -7.6      1.281      2.308
REMARK  Name = 
REMARK  5 active torsions:
REMARK  status: ('A' for Active; 'I' for Inactive)
REMARK    1  A    between atoms: O_2  and  C_3
REMARK    2  A    between atoms: C_6  and  C_9
REMARK    3  A    between atoms: C_15  and  C_18
REMARK    4  A    between atoms: C_21  and  C_23
REMARK    5  A    between atoms: N_27  and  C_28
REMARK                            x       y       z     vdW  Elec       q    Type
REMARK                         _______ _______ _______ _____ _____    ______ ____
ROOT
ATOM      9  C   UNL     1       0.403   0.295  23.510  0.00  0.00    +0.270 C 
ATOM     10  O   UNL     1       0.174  -0.305  24.028  0.00  0.00    -0.268 OA
ATOM     11  N   UNL     1      -0.114   0.917  23.344  0.00  0.00    -0.157 NA
ATOM     12  C   UNL     1      -0.860   0.939  23.696  0.00  0.00    +0.155 A 
ATOM     13  N   UNL     1      -1.376   1.560  23.530  0.00  0.00    -0.227 NA
ATOM     14  C   UNL     1      -2.123   1.582  23.882  0.00  0.00    +0.103 A 
ATOM     15  C   UNL     1      -2.351   0.981  24.400  0.00  0.00    +0.058 A 
ATOM     16  C   UNL     1      -1.835   0.360  24.566  0.00  0.00    +0.008 A 
ATOM     17  C   UNL     1      -1.089   0.339  24.214  0.00  0.00    +0.036 A 
ENDROOT
BRANCH   9   6
ATOM      3  C   UNL     1       2.639   0.231  22.453  0.00  0.00    +0.139 A 
ATOM      4  C   UNL     1       2.519   0.678  23.136  0.00  0.00    +0.037 A 
ATOM      5  C   UNL     1       1.773   0.700  23.488  0.00  0.00    +0.008 A 
ATOM      6  C   UNL     1       1.148   0.274  23.158  0.00  0.00    +0.056 A 
ATOM      7  C   UNL     1       1.270  -0.174  22.475  0.00  0.00    +0.008 A 
ATOM      8  C   UNL     1       2.015  -0.195  22.123  0.00  0.00    +0.037 A 
BRANCH   3   2
ATOM      1  C   UNL     1       3.998   0.670  22.404  0.00  0.00    +0.252 C 
ATOM      2  O   UNL     1       3.385   0.209  22.101  0.00  0.00    -0.471 OA
ENDBRANCH   3   2
ENDBRANCH   9   6
BRANCH  15  18
ATOM     18  C   UNL     1      -3.097   1.003  24.753  0.00  0.00    +0.205 A 
ATOM     19  N   UNL     1      -3.313   0.630  25.456  0.00  0.00    -0.056 NA
ATOM     20  O   UNL     1      -4.107   0.798  25.601  0.00  0.00    -0.336 OA
ATOM     21  C   UNL     1      -4.383   1.276  24.987  0.00  0.00    +0.251 A 
ATOM     22  N   UNL     1      -3.759   1.402  24.463  0.00  0.00    -0.190 NA
BRANCH  21  23
ATOM     23  C   UNL     1      -5.148   1.574  24.911  0.00  0.00    +0.138 C 
ATOM     24  C   UNL     1      -5.802   1.162  24.621  0.00  0.00    +0.027 C 
ATOM     25  C   UNL     1      -6.452   1.670  24.642  0.00  0.00    +0.019 C 
ATOM     26  C   UNL     1      -6.199   2.395  24.945  0.00  0.00    +0.072 C 
ATOM     27  N   UNL     1      -5.394   2.335  25.111  0.00  0.00    -0.268 NA
BRANCH  27  28
ATOM     28  C   UNL     1      -4.917   2.932  25.423  0.00  0.00    +0.058 C 
ATOM     29  C   UNL     1      -4.499   3.569  25.107  0.00  0.00    +0.016 C 
ATOM     30  C   UNL     1      -4.244   3.776  25.864  0.00  0.00    +0.003 C 
ATOM     31  C   UNL     1      -4.662   3.139  26.180  0.00  0.00    +0.016 C 
ENDBRANCH  27  28
ENDBRANCH  21  23
ENDBRANCH  15  18
TORSDOF 5
ENDMDL
MODEL 4
REMARK VINA RESULT:      -7.3     14.461     16.228
REMARK  Name = 
REMARK  5 active torsions:
REMARK  status: ('A' for Active; 'I' for Inactive)
REMARK    1  A    between atoms: O_2  and  C_3
REMARK    2  A    between atoms: C_6  and  C_9
REMARK    3  A    between atoms: C_15  and  C_18
REMARK    4  A    between atoms: C_21  and  C_23
REMARK    5  A    between atoms: N_27  and  C_28
REMARK                            x       y       z     vdW  Elec       q    Type
REMARK                         _______ _______ _______ _____ _____    ______ ____
ROOT
ATOM      9  C   UNL     1      -5.249 -10.494  16.125  0.00  0.00    +0.270 C 
ATOM     10  O   UNL     1      -4.535 -10.706  15.773  0.00  0.00    -0.268 OA
ATOM     11  N   UNL     1      -5.881 -10.238  15.659  0.00  0.00    -0.157 NA
ATOM     12  C   UNL     1      -5.797 -10.195  14.839  0.00  0.00    +0.155 A 
ATOM     13  N   UNL     1      -6.427  -9.940  14.373  0.00  0.00    -0.227 NA
ATOM     14  C   UNL     1      -6.343  -9.897  13.553  0.00  0.00    +0.103 A 
ATOM     15  C   UNL     1      -5.628 -10.110  13.200  0.00  0.00    +0.058 A 
ATOM     16  C   UNL     1      -4.998 -10.365  13.667  0.00  0.00    +0.008 A 
ATOM     17  C   UNL     1      -5.082 -10.408  14.487  0.00  0.00    +0.036 A 
ENDROOT
BRANCH   9   6
ATOM      3  C   UNL     1      -5.503 -10.621  18.584  0.00  0.00    +0.139 A 
ATOM      4  C   UNL     1      -4.772 -10.781  18.236  0.00  0.00    +0.037 A 
ATOM      5  C   UNL     1      -4.688 -10.738  17.417  0.00  0.00    +0.008 A 
ATOM      6  C   UNL     1      -5.334 -10.536  16.945  0.00  0.00    +0.056 A 
ATOM      7  C   UNL     1      -6.065 -10.377  17.293  0.00  0.00    +0.008 A 
ATOM      8  C   UNL     1      -6.149 -10.420  18.112  0.00  0.00    +0.037 A 
BRANCH   3   2
ATOM      1  C   UNL     1      -6.328 -10.546  19.749  0.00  0.00    +0.252 C 
ATOM      2  O   UNL     1      -5.588 -10.664  19.403  0.00  0.00    -0.471 OA
ENDBRANCH   3   2
ENDBRANCH   9   6
BRANCH  15  18
ATOM     18  C   UNL     1      -5.544 -10.067  12.380  0.00  0.00    +0.205 A 
ATOM     19  N   UNL     1      -5.570 -10.703  11.856  0.00  0.00    -0.056 NA
ATOM     20  O   UNL     1      -5.461 -10.410  11.093  0.00  0.00    -0.336 OA
ATOM     21  C   UNL     1      -5.368  -9.591  11.146  0.00  0.00    +0.251 A 
ATOM     22  N   UNL     1      -5.419  -9.380  11.941  0.00  0.00    -0.190 NA
BRANCH  21  23
ATOM     23  C   UNL     1      -5.245  -9.076  10.514  0.00  0.00    +0.138 C 
ATOM     24  C   UNL     1      -5.817  -8.597  10.160  0.00  0.00    +0.027 C 
ATOM     25  C   UNL     1      -5.454  -8.174   9.552  0.00  0.00    +0.019 C 
ATOM     26  C   UNL     1      -4.658  -8.391   9.530  0.00  0.00    +0.072 C 
ATOM     27  N   UNL     1      -4.530  -8.948  10.123  0.00  0.00    -0.268 NA
BRANCH  27  28
ATOM     28  C   UNL     1      -3.810  -9.315  10.298  0.00  0.00    +0.058 C 
ATOM     29  C   UNL     1      -3.457 -10.031  10.094  0.00  0.00    +0.016 C 
ATOM     30  C   UNL     1      -2.795  -9.832  10.544  0.00  0.00    +0.003 C 
ATOM     31  C   UNL     1      -3.148  -9.114  10.748  0.00  0.00    +0.016 C 
ENDBRANCH  27  28
ENDBRANCH  21  23
ENDBRANCH  15  18
TORSDOF 5
ENDMDL
MODEL 5
REMARK VINA RESULT:      -7.3     14.442     16.254
REMARK  Name = 
REMARK  5 active torsions:
REMARK  status: ('A' for Active; 'I' for Inactive)
REMARK    1  A    between atoms: O_2  and  C_3
REMARK    2  A    between atoms: C_6  and  C_9
REMARK    3  A    between atoms: C_15  and  C_18
REMARK    4  A    between atoms: C_21  and  C_23
REMARK    5  A    between atoms: N_27  and  C_28
REMARK                            x       y       z     vdW  Elec       q    Type
REMARK                         _______ _______ _______ _____ _____    ______ ____
ROOT
ATOM      9  C   UNL     1      -5.149 -10.569  16.252  0.00  0.00    +0.270 C 
ATOM     10  O   UNL     1      -4.388 -10.781  16.014  0.00  0.00    -0.268 OA
ATOM     11  N   UNL     1      -5.710 -10.345  15.690  0.00  0.00    -0.157 NA
ATOM     12  C   UNL     1      -5.510 -10.332  14.889  0.00  0.00    +0.155 A 
ATOM     13  N   UNL     1      -6.071 -10.108  14.328  0.00  0.00    -0.227 NA
ATOM     14  C   UNL     1      -5.871 -10.096  13.527  0.00  0.00    +0.103 A 
ATOM     15  C   UNL     1      -5.110 -10.309  13.289  0.00  0.00    +0.058 A 
ATOM     16  C   UNL     1      -4.550 -10.533  13.851  0.00  0.00    +0.008 A 
ATOM     17  C   UNL     1      -4.750 -10.545  14.652  0.00  0.00    +0.036 A 
ENDROOT
BRANCH   9   6
ATOM      3  C   UNL     1      -5.749 -10.605  18.653  0.00  0.00    +0.139 A 
ATOM      4  C   UNL     1      -6.341 -10.558  18.080  0.00  0.00    +0.037 A 
ATOM      5  C   UNL     1      -6.141 -10.546  17.280  0.00  0.00    +0.008 A 
ATOM      6  C   UNL     1      -5.349 -10.581  17.052  0.00  0.00    +0.056 A 
ATOM      7  C   UNL     1      -4.757 -10.628  17.625  0.00  0.00    +0.008 A 
ATOM      8  C   UNL     1      -4.957 -10.640  18.425  0.00  0.00    +0.037 A 
BRANCH   3   2
ATOM      1  C   UNL     1      -6.728 -10.478  19.686  0.00  0.00    +0.252 C 
ATOM      2  O   UNL     1      -5.949 -10.617  19.453  0.00  0.00    -0.471 OA
ENDBRANCH   3   2
ENDBRANCH   9   6
BRANCH  15  18
ATOM     18  C   UNL     1      -4.910 -10.296  12.488  0.00  0.00    +0.205 A 
ATOM     19  N   UNL     1      -5.249 -10.761  11.897  0.00  0.00    -0.056 NA
ATOM     20  O   UNL     1      -4.885 -10.569  11.183  0.00  0.00    -0.336 OA
ATOM     21  C   UNL     1      -4.320  -9.986  11.332  0.00  0.00    +0.251 A 
ATOM     22  N   UNL     1      -4.337  -9.817  12.139  0.00  0.00    -0.190 NA
BRANCH  21  23
ATOM     23  C   UNL     1      -3.828  -9.633  10.773  0.00  0.00    +0.138 C 
ATOM     24  C   UNL     1      -3.017  -9.764  10.689  0.00  0.00    +0.027 C 
ATOM     25  C   UNL     1      -2.747  -9.299  10.063  0.00  0.00    +0.019 C 
ATOM     26  C   UNL     1      -3.391  -8.881   9.760  0.00  0.00    +0.072 C 
ATOM     27  N   UNL     1      -4.058  -9.088  10.198  0.00  0.00    -0.268 NA
BRANCH  27  28
ATOM     28  C   UNL     1      -4.823  -8.799  10.083  0.00  0.00    +0.058 C 
ATOM     29  C   UNL     1      -5.253  -8.156  10.368  0.00  0.00    +0.016 C 
ATOM     30  C   UNL     1      -5.903  -8.392   9.920  0.00  0.00    +0.003 C 
ATOM     31  C   UNL     1      -5.474  -9.036   9.634  0.00  0.00    +0.016 C 
ENDBRANCH  27  28
ENDBRANCH  21  23
ENDBRANCH  15  18
TORSDOF 5
ENDMDL
MODEL 6
REMARK VINA RESULT:      -6.6     14.702     16.845
REMARK  Name = 
REMARK  5 active torsions:
REMARK  status: ('A' for Active; 'I' for Inactive)
REMARK    1  A    between atoms: O_2  and  C_3
REMARK    2  A    between atoms: C_6  and  C_9
REMARK    3  A    between atoms: C_15  and  C_18
REMARK    4  A    between atoms: C_21  and  C_23
REMARK    5  A    between atoms: N_27  and  C_28
REMARK                            x       y       z     vdW  Elec       q    Type
REMARK                         _______ _______ _______ _____ _____    ______ ____
ROOT
ATOM      9  C   UNL     1      -7.455 -10.023  15.388  0.00  0.00    +0.270 C 
ATOM     10  O   UNL     1      -7.883  -9.846  14.706  0.00  0.00    -0.268 OA
ATOM     11  N   UNL     1      -6.654 -10.216  15.335  0.00  0.00    -0.157 NA
ATOM     12  C   UNL     1      -6.282 -10.233  14.598  0.00  0.00    +0.155 A 
ATOM     13  N   UNL     1      -5.482 -10.426  14.545  0.00  0.00    -0.227 NA
ATOM     14  C   UNL     1      -5.110 -10.444  13.808  0.00  0.00    +0.103 A 
ATOM     15  C   UNL     1      -5.539 -10.267  13.126  0.00  0.00    +0.058 A 
ATOM     16  C   UNL     1      -6.339 -10.074  13.180  0.00  0.00    +0.008 A 
ATOM     17  C   UNL     1      -6.711 -10.057  13.916  0.00  0.00    +0.036 A 
ENDROOT
BRANCH   9   6
ATOM      3  C   UNL     1      -8.569  -9.971  17.597  0.00  0.00    +0.139 A 
ATOM      4  C   UNL     1      -8.849 -10.474  17.006  0.00  0.00    +0.037 A 
ATOM      5  C   UNL     1      -8.478 -10.491  16.269  0.00  0.00    +0.008 A 
ATOM      6  C   UNL     1      -7.826 -10.006  16.124  0.00  0.00    +0.056 A 
ATOM      7  C   UNL     1      -7.546  -9.504  16.716  0.00  0.00    +0.008 A 
ATOM      8  C   UNL     1      -7.917  -9.487  17.452  0.00  0.00    +0.037 A 
BRANCH   3   2
ATOM      1  C   UNL     1      -9.049 -10.654  18.757  0.00  0.00    +0.252 C 
ATOM      2  O   UNL     1      -8.940  -9.954  18.334  0.00  0.00    -0.471 OA
ENDBRANCH   3   2
ENDBRANCH   9   6
BRANCH  15  18
ATOM     18  C   UNL     1      -5.167 -10.284  12.389  0.00  0.00    +0.205 A 
ATOM     19  N   UNL     1      -5.360 -10.781  11.760  0.00  0.00    -0.056 NA
ATOM     20  O   UNL     1      -4.849 -10.611  11.135  0.00  0.00    -0.336 OA
ATOM     21  C   UNL     1      -4.340 -10.009  11.378  0.00  0.00    +0.251 A 
ATOM     22  N   UNL     1      -4.537  -9.807  12.153  0.00  0.00    -0.190 NA
BRANCH  21  23
ATOM     23  C   UNL     1      -3.740  -9.669  10.926  0.00  0.00    +0.138 C 
ATOM     24  C   UNL     1      -2.934  -9.836  10.984  0.00  0.00    +0.027 C 
ATOM     25  C   UNL     1      -2.537  -9.372  10.430  0.00  0.00    +0.019 C 
ATOM     26  C   UNL     1      -3.098  -8.918  10.029  0.00  0.00    +0.072 C 
ATOM     27  N   UNL     1      -3.840  -9.102  10.335  0.00  0.00    -0.268 NA
BRANCH  27  28
ATOM     28  C   UNL     1      -4.559  -8.775  10.094  0.00  0.00    +0.058 C 
ATOM     29  C   UNL     1      -5.017  -8.132  10.333  0.00  0.00    +0.016 C 
ATOM     30  C   UNL     1      -5.574  -8.314   9.752  0.00  0.00    +0.003 C 
ATOM     31  C   UNL     1      -5.116  -8.957   9.513  0.00  0.00    +0.016 C 
ENDBRANCH  27  28
ENDBRANCH  21  23
ENDBRANCH  15  18
TORSDOF 5
ENDMDL
MODEL 7
REMARK VINA RESULT:      -6.4     16.843     17.860
REMARK  Name = 
REMARK  5 active torsions:
REMARK  status: ('A' for Active; 'I' for Inactive)
REMARK    1  A    between atoms: O_2  and  C_3
REMARK    2  A    between atoms: C_6  and  C_9
REMARK    3  A    between atoms: C_15  and  C_18
REMARK    4  A    between atoms: C_21  and  C_23
REMARK    5  A    between atoms: N_27  and  C_28
REMARK                            x       y       z     vdW  Elec       q    Type
REMARK                         _______ _______ _______ _____ _____    ______ ____
ROOT
ATOM      9  C   UNL     1      -4.140  -9.407  10.275  0.00  0.00    +0.270 C 
ATOM     10  O   UNL     1      -4.099  -9.318   9.456  0.00  0.00    -0.268 OA
ATOM     11  N   UNL     1      -4.841  -9.234  10.675  0.00  0.00    -0.157 NA
ATOM     12  C   UNL     1      -5.502  -8.973  10.256  0.00  0.00    +0.155 A 
ATOM     13  N   UNL     1      -6.202  -8.800  10.656  0.00  0.00    -0.227 NA
ATOM     14  C   UNL     1      -6.863  -8.538  10.236  0.00  0.00    +0.103 A 
ATOM     15  C   UNL     1      -6.822  -8.450   9.416  0.00  0.00    +0.058 A 
ATOM     16  C   UNL     1      -6.122  -8.622   9.017  0.00  0.00    +0.008 A 
ATOM     17  C   UNL     1      -5.461  -8.884   9.437  0.00  0.00    +0.036 A 
ENDROOT
BRANCH   9   6
ATOM      3  C   UNL     1      -2.159 -10.192  11.535  0.00  0.00    +0.139 A 
ATOM      4  C   UNL     1      -2.095  -9.545  11.027  0.00  0.00    +0.037 A 
ATOM      5  C   UNL     1      -2.755  -9.283  10.607  0.00  0.00    +0.008 A 
ATOM      6  C   UNL     1      -3.480  -9.669  10.695  0.00  0.00    +0.056 A 
ATOM      7  C   UNL     1      -3.543 -10.316  11.203  0.00  0.00    +0.008 A 
ATOM      8  C   UNL     1      -2.883 -10.577  11.622  0.00  0.00    +0.037 A 
BRANCH   3   2
ATOM      1  C   UNL     1      -1.565 -10.634  12.757  0.00  0.00    +0.252 C 
ATOM      2  O   UNL     1      -1.499 -10.454  11.954  0.00  0.00    -0.471 OA
ENDBRANCH   3   2
ENDBRANCH   9   6
BRANCH  15  18
ATOM     18  C   UNL     1      -7.483  -8.188   8.997  0.00  0.00    +0.205 A 
ATOM     19  N   UNL     1      -7.856  -8.590   8.381  0.00  0.00    -0.056 NA
ATOM     20  O   UNL     1      -8.490  -8.129   8.124  0.00  0.00    -0.336 OA
ATOM     21  C   UNL     1      -8.508  -7.442   8.581  0.00  0.00    +0.251 A 
ATOM     22  N   UNL     1      -7.886  -7.479   9.120  0.00  0.00    -0.190 NA
BRANCH  21  23
ATOM     23  C   UNL     1      -9.053  -6.827   8.510  0.00  0.00    +0.138 C 
ATOM     24  C   UNL     1      -8.916  -6.097   8.151  0.00  0.00    +0.027 C 
ATOM     25  C   UNL     1      -9.609  -5.652   8.205  0.00  0.00    +0.019 C 
ATOM     26  C   UNL     1     -10.174  -6.108   8.598  0.00  0.00    +0.072 C 
ATOM     27  N   UNL     1      -9.830  -6.833   8.787  0.00  0.00    -0.268 NA
BRANCH  27  28
ATOM     28  C   UNL     1     -10.199  -7.457   9.183  0.00  0.00    +0.058 C 
ATOM     29  C   UNL     1     -10.446  -8.215   8.973  0.00  0.00    +0.016 C 
ATOM     30  C   UNL     1     -10.719  -8.338   9.742  0.00  0.00    +0.003 C 
ATOM     31  C   UNL     1     -10.472  -7.579   9.951  0.00  0.00    +0.016 C 
ENDBRANCH  27  28
ENDBRANCH  21  23
ENDBRANCH  15  18
TORSDOF 5
ENDMDL
MODEL 8
REMARK VINA RESULT:      -6.0     14.509     15.991
REMARK  Name = 
REMARK  5 active torsions:
REMARK  status: ('A' for Active; 'I' for Inactive)
REMARK    1  A    between atoms: O_2  and  C_3
REMARK    2  A    between atoms: C_6  and  C_9
REMARK    3  A    between atoms: C_15  and  C_18
REMARK    4  A    between atoms: C_21  and  C_23
REMARK    5  A    between atoms: N_27  and  C_28
REMARK                            x       y       z     vdW  Elec       q    Type
REMARK                         _______ _______ _______ _____ _____    ______ ____
ROOT
ATOM      9  C   UNL     1      -5.842  -9.476  11.973  0.00  0.00    +0.270 C 
ATOM     10  O   UNL     1      -5.474  -9.552  12.706  0.00  0.00    -0.268 OA
ATOM     11  N   UNL     1      -6.666  -9.496  11.920  0.00  0.00    -0.157 NA
ATOM     12  C   UNL     1      -7.121  -9.590  12.602  0.00  0.00    +0.155 A 
ATOM     13  N   UNL     1      -7.943  -9.610  12.549  0.00  0.00    -0.227 NA
ATOM     14  C   UNL     1      -8.399  -9.704  13.231  0.00  0.00    +0.103 A 
ATOM     15  C   UNL     1      -8.029  -9.780  13.966  0.00  0.00    +0.058 A 
ATOM     16  C   UNL     1      -7.207  -9.761  14.018  0.00  0.00    +0.008 A 
ATOM     17  C   UNL     1      -6.752  -9.666  13.336  0.00  0.00    +0.036 A 
ENDROOT
BRANCH   9   6
ATOM      3  C   UNL     1      -4.479  -9.193   9.927  0.00  0.00    +0.139 A 
ATOM      4  C   UNL     1      -4.808  -8.533  10.298  0.00  0.00    +0.037 A 
ATOM      5  C   UNL     1      -5.262  -8.628  10.979  0.00  0.00    +0.008 A 
ATOM      6  C   UNL     1      -5.388  -9.382  11.291  0.00  0.00    +0.056 A 
ATOM      7  C   UNL     1      -5.059 -10.041  10.919  0.00  0.00    +0.008 A 
ATOM      8  C   UNL     1      -4.604  -9.946  10.237  0.00  0.00    +0.037 A 
BRANCH   3   2
ATOM      1  C   UNL     1      -4.345  -9.281   8.507  0.00  0.00    +0.252 C 
ATOM      2  O   UNL     1      -4.025  -9.098   9.245  0.00  0.00    -0.471 OA
ENDBRANCH   3   2
ENDBRANCH   9   6
BRANCH  15  18
ATOM     18  C   UNL     1      -8.484  -9.875  14.648  0.00  0.00    +0.205 A 
ATOM     19  N   UNL     1      -8.787 -10.587  14.934  0.00  0.00    -0.056 NA
ATOM     20  O   UNL     1      -9.206 -10.426  15.625  0.00  0.00    -0.336 OA
ATOM     21  C   UNL     1      -9.162  -9.614  15.767  0.00  0.00    +0.251 A 
ATOM     22  N   UNL     1      -8.717  -9.274  15.163  0.00  0.00    -0.190 NA
BRANCH  21  23
ATOM     23  C   UNL     1      -9.505  -9.214  16.402  0.00  0.00    +0.138 C 
ATOM     24  C   UNL     1     -10.210  -8.785  16.381  0.00  0.00    +0.027 C 
ATOM     25  C   UNL     1     -10.343  -8.478  17.135  0.00  0.00    +0.019 C 
ATOM     26  C   UNL     1      -9.721  -8.717  17.622  0.00  0.00    +0.072 C 
ATOM     27  N   UNL     1      -9.203  -9.171  17.168  0.00  0.00    -0.268 NA
BRANCH  27  28
ATOM     28  C   UNL     1      -8.505  -9.522  17.435  0.00  0.00    +0.058 C 
ATOM     29  C   UNL     1      -7.719  -9.281  17.498  0.00  0.00    +0.016 C 
ATOM     30  C   UNL     1      -7.519 -10.018  17.811  0.00  0.00    +0.003 C 
ATOM     31  C   UNL     1      -8.305 -10.259  17.747  0.00  0.00    +0.016 C 
ENDBRANCH  27  28
ENDBRANCH  21  23
ENDBRANCH  15  18
TORSDOF 5
ENDMDL
MODEL 9
REMARK VINA RESULT:      -5.9     16.471     17.562
REMARK  Name = 
REMARK  5 active torsions:
REMARK  status: ('A' for Active; 'I' for Inactive)
REMARK    1  A    between atoms: O_2  and  C_3
REMARK    2  A    between atoms: C_6  and  C_9
REMARK    3  A    between atoms: C_15  and  C_18
REMARK    4  A    between atoms: C_21  and  C_23
REMARK    5  A    between atoms: N_27  and  C_28
REMARK                            x       y       z     vdW  Elec       q    Type
REMARK                         _______ _______ _______ _____ _____    ______ ____
ROOT
ATOM      9  C   UNL     1      -3.501 -10.496  12.882  0.00  0.00    +0.270 C 
ATOM     10  O   UNL     1      -4.311 -10.625  12.974  0.00  0.00    -0.268 OA
ATOM     11  N   UNL     1      -3.196 -10.301  12.141  0.00  0.00    -0.157 NA
ATOM     12  C   UNL     1      -3.701 -10.236  11.491  0.00  0.00    +0.155 A 
ATOM     13  N   UNL     1      -3.396 -10.041  10.750  0.00  0.00    -0.227 NA
ATOM     14  C   UNL     1      -3.900  -9.975  10.100  0.00  0.00    +0.103 A 
ATOM     15  C   UNL     1      -4.711 -10.105  10.193  0.00  0.00    +0.058 A 
ATOM     16  C   UNL     1      -5.015 -10.299  10.934  0.00  0.00    +0.008 A 
ATOM     17  C   UNL     1      -4.510 -10.365  11.584  0.00  0.00    +0.036 A 
ENDROOT
BRANCH   9   6
ATOM      3  C   UNL     1      -1.986 -10.693  14.829  0.00  0.00    +0.139 A 
ATOM      4  C   UNL     1      -2.801 -10.777  14.931  0.00  0.00    +0.037 A 
ATOM      5  C   UNL     1      -3.306 -10.711  14.282  0.00  0.00    +0.008 A 
ATOM      6  C   UNL     1      -2.997 -10.562  13.531  0.00  0.00    +0.056 A 
ATOM      7  C   UNL     1      -2.182 -10.478  13.431  0.00  0.00    +0.008 A 
ATOM      8  C   UNL     1      -1.677 -10.543  14.079  0.00  0.00    +0.037 A 
BRANCH   3   2
ATOM      1  C   UNL     1      -1.236 -10.081  15.880  0.00  0.00    +0.252 C 
ATOM      2  O   UNL     1      -1.481 -10.758  15.478  0.00  0.00    -0.471 OA
ENDBRANCH   3   2
ENDBRANCH   9   6
BRANCH  15  18
ATOM     18  C   UNL     1      -5.215 -10.039   9.543  0.00  0.00    +0.205 A 
ATOM     19  N   UNL     1      -4.991  -9.853   8.772  0.00  0.00    -0.056 NA
ATOM     20  O   UNL     1      -5.669  -9.847   8.303  0.00  0.00    -0.336 OA
ATOM     21  C   UNL     1      -6.314 -10.029   8.786  0.00  0.00    +0.251 A 
ATOM     22  N   UNL     1      -6.033 -10.147   9.552  0.00  0.00    -0.190 NA
BRANCH  21  23
ATOM     23  C   UNL     1      -7.101 -10.082   8.544  0.00  0.00    +0.138 C 
ATOM     24  C   UNL     1      -7.495 -10.773   8.324  0.00  0.00    +0.027 C 
ATOM     25  C   UNL     1      -8.269 -10.572   8.124  0.00  0.00    +0.019 C 
ATOM     26  C   UNL     1      -8.354  -9.757   8.220  0.00  0.00    +0.072 C 
ATOM     27  N   UNL     1      -7.632  -9.455   8.479  0.00  0.00    -0.268 NA
BRANCH  27  28
ATOM     28  C   UNL     1      -7.470  -8.662   8.645  0.00  0.00    +0.058 C 
ATOM     29  C   UNL     1      -7.140  -8.035   8.224  0.00  0.00    +0.016 C 
ATOM     30  C   UNL     1      -7.240  -7.544   8.879  0.00  0.00    +0.003 C 
ATOM     31  C   UNL     1      -7.570  -8.171   9.300  0.00  0.00    +0.016 C 
ENDBRANCH  27  28
ENDBRANCH  21  23
ENDBRANCH  15  18
TORSDOF 5
ENDMDL
