MODEL 1
REMARK VINA RESULT:     -16.2      0.000      0.000
REMARK  Name = 
REMARK  3 active torsions:
REMARK  status: ('A' for Active; 'I' for Inactive)
REMARK    1  A    between atoms: C_7  and  C_8
REMARK    2  A    between atoms: C_18  and  C_20
REMARK    3  A    between atoms: C_23  and  C_26
REMARK                            x       y       z     vdW  Elec       q    Type
REMARK                         _______ _______ _______ _____ _____    ______ ____
ROOT
ATOM      8  C   UNL     1      -2.638   2.683  24.889  0.00  0.00    +0.056 A 
ATOM      9  C   UNL     1      -2.852   3.468  25.026  0.00  0.00    +0.006 A 
ATOM     10  C   UNL     1      -3.638   3.659  25.188  0.00  0.00    +0.013 A 
ATOM     11  C   UNL     1      -4.210   3.065  25.213  0.00  0.00    +0.041 A 
ATOM     12  C   UNL     1      -5.110   2.947  25.355  0.00  0.00    +0.058 C 
ATOM     13  C   UNL     1      -5.696   3.304  25.503  0.00  0.00    +0.011 C 
ATOM     14  C   UNL     1      -5.481   2.530  25.368  0.00  0.00    +0.043 C 
ATOM     15  C   UNL     1      -5.421   1.553  25.234  0.00  0.00    +0.096 C 
ATOM     16  N   UNL     1      -4.602   1.483  25.082  0.00  0.00    -0.276 N 
ATOM     17  C   UNL     1      -5.068   2.001  25.229  0.00  0.00    +0.099 C 
ATOM     18  C   UNL     1      -3.879   1.124  24.910  0.00  0.00    +0.249 C 
ATOM     19  O   UNL     1      -3.195   1.582  24.848  0.00  0.00    -0.270 OA
ATOM     28  C   UNL     1      -4.540   2.644  25.217  0.00  0.00    +0.110 C 
ATOM     29  N   UNL     1      -3.996   2.280  25.076  0.00  0.00    -0.299 N 
ATOM     30  C   UNL     1      -3.210   2.089  24.914  0.00  0.00    +0.261 A 
ATOM     31  O   UNL     1      -2.765   1.414  24.751  0.00  0.00    -0.267 OA
ENDROOT
BRANCH   8   7
ATOM      1  C   UNL     1      -1.483   2.894  26.048  0.00  0.00    +0.031 C 
ATOM      2  C   UNL     1      -1.275   2.598  25.307  0.00  0.00    -0.022 A 
ATOM      3  C   UNL     1      -0.488   2.407  25.144  0.00  0.00    -0.004 A 
ATOM      4  C   UNL     1      -0.280   2.111  24.402  0.00  0.00    -0.000 A 
ATOM      5  C   UNL     1      -0.858   2.006  23.824  0.00  0.00    -0.000 A 
ATOM      6  C   UNL     1      -1.644   2.196  23.986  0.00  0.00    -0.000 A 
ATOM      7  C   UNL     1      -1.852   2.492  24.728  0.00  0.00    +0.001 A 
ENDBRANCH   8   7
BRANCH  18  20
ATOM     20  C   UNL     1      -3.841   0.308  24.800  0.00  0.00    +0.054 A 
ATOM     21  C   UNL     1      -3.681  -0.188  25.439  0.00  0.00    +0.005 A 
ATOM     22  C   UNL     1      -3.642  -1.005  25.329  0.00  0.00    +0.010 A 
ATOM     23  C   UNL     1      -3.763  -1.326  24.579  0.00  0.00    +0.068 A 
ATOM     24  C   UNL     1      -3.923  -0.831  23.939  0.00  0.00    +0.010 A 
ATOM     25  C   UNL     1      -3.962  -0.014  24.049  0.00  0.00    +0.005 A 
BRANCH  23  26
ATOM     26  C   UNL     1      -3.725  -2.143  24.469  0.00  0.00    +0.100 C 
ATOM     27  N   UNL     1      -3.686  -2.959  24.359  0.00  0.00    -0.191 NA
ENDBRANCH  23  26
ENDBRANCH  18  20
TORSDOF 3
ENDMDL
MODEL 2
REMARK VINA RESULT:     -15.8      1.219      3.468
REMARK  Name = 
REMARK  3 active torsions:
REMARK  status: ('A' for Active; 'I' for Inactive)
REMARK    1  A    between atoms: C_7  and  C_8
REMARK    2  A    between atoms: C_18  and  C_20
REMARK    3  A    between atoms: C_23  and  C_26
REMARK                            x       y       z     vdW  Elec       q    Type
REMARK                         _______ _______ _______ _____ _____    ______ ____
ROOT
ATOM      8  C   UNL     1      -4.124   0.035  25.021  0.00  0.00    +0.056 A 
ATOM      9  C   UNL     1      -4.927   0.180  25.143  0.00  0.00    +0.006 A 
ATOM     10  C   UNL     1      -5.212   0.954  25.143  0.00  0.00    +0.013 A 
ATOM     11  C   UNL     1      -4.693   1.583  25.020  0.00  0.00    +0.041 A 
ATOM     12  C   UNL     1      -4.685   2.501  24.963  0.00  0.00    +0.058 C 
ATOM     13  C   UNL     1      -5.110   3.058  24.999  0.00  0.00    +0.011 C 
ATOM     14  C   UNL     1      -4.318   2.912  24.879  0.00  0.00    +0.043 C 
ATOM     15  C   UNL     1      -3.343   2.939  24.718  0.00  0.00    +0.096 C 
ATOM     16  N   UNL     1      -3.175   2.122  24.740  0.00  0.00    -0.276 N 
ATOM     17  C   UNL     1      -3.744   2.544  24.808  0.00  0.00    +0.099 C 
ATOM     18  C   UNL     1      -2.731   1.426  24.710  0.00  0.00    +0.249 C 
ATOM     19  O   UNL     1      -3.102   0.696  24.815  0.00  0.00    -0.270 OA
ATOM     28  C   UNL     1      -4.317   1.953  24.936  0.00  0.00    +0.110 C 
ATOM     29  N   UNL     1      -3.890   1.439  24.898  0.00  0.00    -0.299 N 
ATOM     30  C   UNL     1      -3.605   0.665  24.898  0.00  0.00    +0.261 A 
ATOM     31  O   UNL     1      -2.884   0.277  24.804  0.00  0.00    -0.267 OA
ENDROOT
BRANCH   8   7
ATOM      1  C   UNL     1      -4.466  -0.971  23.758  0.00  0.00    +0.031 C 
ATOM      2  C   UNL     1      -4.011  -1.242  24.390  0.00  0.00    -0.022 A 
ATOM      3  C   UNL     1      -3.727  -2.017  24.392  0.00  0.00    -0.004 A 
ATOM      4  C   UNL     1      -3.272  -2.288  25.024  0.00  0.00    -0.000 A 
ATOM      5  C   UNL     1      -3.101  -1.785  25.655  0.00  0.00    -0.000 A 
ATOM      6  C   UNL     1      -3.385  -1.011  25.654  0.00  0.00    -0.000 A 
ATOM      7  C   UNL     1      -3.840  -0.739  25.021  0.00  0.00    +0.001 A 
ENDBRANCH   8   7
BRANCH  18  20
ATOM     20  C   UNL     1      -1.918   1.461  24.576  0.00  0.00    +0.054 A 
ATOM     21  C   UNL     1      -1.398   1.538  25.211  0.00  0.00    +0.005 A 
ATOM     22  C   UNL     1      -0.584   1.573  25.076  0.00  0.00    +0.010 A 
ATOM     23  C   UNL     1      -0.292   1.531  24.306  0.00  0.00    +0.068 A 
ATOM     24  C   UNL     1      -0.812   1.453  23.671  0.00  0.00    +0.010 A 
ATOM     25  C   UNL     1      -1.626   1.418  23.805  0.00  0.00    +0.005 A 
BRANCH  23  26
ATOM     26  C   UNL     1       0.522   1.566  24.171  0.00  0.00    +0.100 C 
ATOM     27  N   UNL     1       1.334   1.600  24.037  0.00  0.00    -0.191 NA
ENDBRANCH  23  26
ENDBRANCH  18  20
TORSDOF 3
ENDMDL
MODEL 3
REMARK VINA RESULT:     -14.8      1.477      2.974
REMARK  Name = 
REMARK  3 active torsions:
REMARK  status: ('A' for Active; 'I' for Inactive)
REMARK    1  A    between atoms: C_7  and  C_8
REMARK    2  A    between atoms: C_18  and  C_20
REMARK    3  A    between atoms: C_23  and  C_26
REMARK                            x       y       z     vdW  Elec       q    Type
REMARK                         _______ _______ _______ _____ _____    ______ ____
ROOT
ATOM      8  C   UNL     1      -4.572   2.387  24.455  0.00  0.00    +0.056 A 
ATOM      9  C   UNL     1      -4.438   3.122  24.106  0.00  0.00    +0.006 A 
ATOM     10  C   UNL     1      -3.829   3.214  23.558  0.00  0.00    +0.013 A 
ATOM     11  C   UNL     1      -3.354   2.570  23.358  0.00  0.00    +0.041 A 
ATOM     12  C   UNL     1      -2.641   2.348  22.822  0.00  0.00    +0.058 C 
ATOM     13  C   UNL     1      -2.197   2.625  22.354  0.00  0.00    +0.011 C 
ATOM     14  C   UNL     1      -2.332   1.900  22.701  0.00  0.00    +0.043 C 
ATOM     15  C   UNL     1      -2.337   0.960  23.004  0.00  0.00    +0.096 C 
ATOM     16  N   UNL     1      -2.977   0.990  23.540  0.00  0.00    -0.276 N 
ATOM     17  C   UNL     1      -2.633   1.437  23.105  0.00  0.00    +0.099 C 
ATOM     18  C   UNL     1      -3.529   0.727  24.095  0.00  0.00    +0.249 C 
ATOM     19  O   UNL     1      -4.087   1.253  24.402  0.00  0.00    -0.270 OA
ATOM     28  C   UNL     1      -3.077   2.123  23.264  0.00  0.00    +0.110 C 
ATOM     29  N   UNL     1      -3.488   1.835  23.707  0.00  0.00    -0.299 N 
ATOM     30  C   UNL     1      -4.097   1.743  24.255  0.00  0.00    +0.261 A 
ATOM     31  O   UNL     1      -4.418   1.142  24.720  0.00  0.00    -0.267 OA
ENDROOT
BRANCH   8   7
ATOM      1  C   UNL     1      -4.504   3.175  25.903  0.00  0.00    +0.031 C 
ATOM      2  C   UNL     1      -5.148   2.690  25.727  0.00  0.00    -0.022 A 
ATOM      3  C   UNL     1      -5.758   2.598  26.276  0.00  0.00    -0.004 A 
ATOM      4  C   UNL     1      -6.402   2.113  26.099  0.00  0.00    -0.000 A 
ATOM      5  C   UNL     1      -6.435   1.719  25.375  0.00  0.00    -0.000 A 
ATOM      6  C   UNL     1      -5.825   1.811  24.827  0.00  0.00    -0.000 A 
ATOM      7  C   UNL     1      -5.182   2.296  25.003  0.00  0.00    +0.001 A 
ENDBRANCH   8   7
BRANCH  18  20
ATOM     20  C   UNL     1      -3.524  -0.059  24.341  0.00  0.00    +0.054 A 
ATOM     21  C   UNL     1      -3.096  -0.280  25.010  0.00  0.00    +0.005 A 
ATOM     22  C   UNL     1      -3.091  -1.068  25.257  0.00  0.00    +0.010 A 
ATOM     23  C   UNL     1      -3.515  -1.634  24.834  0.00  0.00    +0.068 A 
ATOM     24  C   UNL     1      -3.944  -1.415  24.165  0.00  0.00    +0.010 A 
ATOM     25  C   UNL     1      -3.949  -0.627  23.918  0.00  0.00    +0.005 A 
BRANCH  23  26
ATOM     26  C   UNL     1      -3.510  -2.422  25.080  0.00  0.00    +0.100 C 
ATOM     27  N   UNL     1      -3.505  -3.209  25.327  0.00  0.00    -0.191 NA
ENDBRANCH  23  26
ENDBRANCH  18  20
TORSDOF 3
ENDMDL
MODEL 4
REMARK VINA RESULT:     -14.6      1.716      3.314
REMARK  Name = 
REMARK  3 active torsions:
REMARK  status: ('A' for Active; 'I' for Inactive)
REMARK    1  A    between atoms: C_7  and  C_8
REMARK    2  A    between atoms: C_18  and  C_20
REMARK    3  A    between atoms: C_23  and  C_26
REMARK                            x       y       z     vdW  Elec       q    Type
REMARK                         _______ _______ _______ _____ _____    ______ ____
ROOT
ATOM      8  C   UNL     1      -3.587   3.240  24.974  0.00  0.00    +0.056 A 
ATOM      9  C   UNL     1      -3.684   4.059  24.983  0.00  0.00    +0.006 A 
ATOM     10  C   UNL     1      -3.024   4.553  25.005  0.00  0.00    +0.013 A 
ATOM     11  C   UNL     1      -2.266   4.228  25.018  0.00  0.00    +0.041 A 
ATOM     12  C   UNL     1      -1.382   4.478  25.041  0.00  0.00    +0.058 C 
ATOM     13  C   UNL     1      -0.972   5.047  25.058  0.00  0.00    +0.011 C 
ATOM     14  C   UNL     1      -0.879   4.237  25.049  0.00  0.00    +0.043 C 
ATOM     15  C   UNL     1      -0.566   3.300  25.044  0.00  0.00    +0.096 C 
ATOM     16  N   UNL     1      -1.303   2.907  25.022  0.00  0.00    -0.276 N 
ATOM     17  C   UNL     1      -1.064   3.577  25.036  0.00  0.00    +0.099 C 
ATOM     18  C   UNL     1      -1.841   2.281  25.001  0.00  0.00    +0.249 C 
ATOM     19  O   UNL     1      -2.652   2.435  24.985  0.00  0.00    -0.270 OA
ATOM     28  C   UNL     1      -1.800   3.966  25.025  0.00  0.00    +0.110 C 
ATOM     29  N   UNL     1      -2.169   3.408  25.009  0.00  0.00    -0.299 N 
ATOM     30  C   UNL     1      -2.830   2.914  24.987  0.00  0.00    +0.261 A 
ATOM     31  O   UNL     1      -2.990   2.106  24.972  0.00  0.00    -0.267 OA
ENDROOT
BRANCH   8   7
ATOM      1  C   UNL     1      -4.662   3.244  26.227  0.00  0.00    +0.031 C 
ATOM      2  C   UNL     1      -4.785   2.749  25.578  0.00  0.00    -0.022 A 
ATOM      3  C   UNL     1      -5.447   2.255  25.556  0.00  0.00    -0.004 A 
ATOM      4  C   UNL     1      -5.570   1.761  24.907  0.00  0.00    -0.000 A 
ATOM      5  C   UNL     1      -5.032   1.759  24.282  0.00  0.00    -0.000 A 
ATOM      6  C   UNL     1      -4.372   2.252  24.304  0.00  0.00    -0.000 A 
ATOM      7  C   UNL     1      -4.248   2.747  24.952  0.00  0.00    +0.001 A 
ENDBRANCH   8   7
BRANCH  18  20
ATOM     20  C   UNL     1      -1.568   1.503  24.997  0.00  0.00    +0.054 A 
ATOM     21  C   UNL     1      -1.403   1.127  24.281  0.00  0.00    +0.005 A 
ATOM     22  C   UNL     1      -1.131   0.348  24.277  0.00  0.00    +0.010 A 
ATOM     23  C   UNL     1      -1.023  -0.055  24.989  0.00  0.00    +0.068 A 
ATOM     24  C   UNL     1      -1.187   0.320  25.704  0.00  0.00    +0.010 A 
ATOM     25  C   UNL     1      -1.460   1.100  25.709  0.00  0.00    +0.005 A 
BRANCH  23  26
ATOM     26  C   UNL     1      -0.750  -0.834  24.985  0.00  0.00    +0.100 C 
ATOM     27  N   UNL     1      -0.477  -1.612  24.980  0.00  0.00    -0.191 NA
ENDBRANCH  23  26
ENDBRANCH  18  20
TORSDOF 3
ENDMDL
MODEL 5
REMARK VINA RESULT:     -14.6      1.400      3.453
REMARK  Name = 
REMARK  3 active torsions:
REMARK  status: ('A' for Active; 'I' for Inactive)
REMARK    1  A    between atoms: C_7  and  C_8
REMARK    2  A    between atoms: C_18  and  C_20
REMARK    3  A    between atoms: C_23  and  C_26
REMARK                            x       y       z     vdW  Elec       q    Type
REMARK                         _______ _______ _______ _____ _____    ______ ____
ROOT
ATOM      8  C   UNL     1      -3.307   0.223  24.887  0.00  0.00    +0.056 A 
ATOM      9  C   UNL     1      -3.967  -0.272  24.870  0.00  0.00    +0.006 A 
ATOM     10  C   UNL     1      -4.726   0.052  24.884  0.00  0.00    +0.013 A 
ATOM     11  C   UNL     1      -4.825   0.870  24.915  0.00  0.00    +0.041 A 
ATOM     12  C   UNL     1      -5.485   1.509  24.941  0.00  0.00    +0.058 C 
ATOM     13  C   UNL     1      -6.183   1.579  24.946  0.00  0.00    +0.011 C 
ATOM     14  C   UNL     1      -5.529   2.064  24.963  0.00  0.00    +0.043 C 
ATOM     15  C   UNL     1      -4.876   2.805  24.989  0.00  0.00    +0.096 C 
ATOM     16  N   UNL     1      -4.165   2.365  24.971  0.00  0.00    -0.276 N 
ATOM     17  C   UNL     1      -4.866   2.235  24.968  0.00  0.00    +0.099 C 
ATOM     18  C   UNL     1      -3.354   2.214  24.963  0.00  0.00    +0.249 C 
ATOM     19  O   UNL     1      -3.080   1.435  24.933  0.00  0.00    -0.270 OA
ATOM     28  C   UNL     1      -4.833   1.404  24.936  0.00  0.00    +0.110 C 
ATOM     29  N   UNL     1      -4.164   1.365  24.933  0.00  0.00    -0.299 N 
ATOM     30  C   UNL     1      -3.406   1.041  24.918  0.00  0.00    +0.261 A 
ATOM     31  O   UNL     1      -2.626   1.308  24.927  0.00  0.00    -0.267 OA
ENDROOT
BRANCH   8   7
ATOM      1  C   UNL     1      -2.802  -0.750  26.121  0.00  0.00    +0.031 C 
ATOM      2  C   UNL     1      -2.296  -0.587  25.489  0.00  0.00    -0.022 A 
ATOM      3  C   UNL     1      -1.537  -0.912  25.474  0.00  0.00    -0.004 A 
ATOM      4  C   UNL     1      -1.032  -0.749  24.843  0.00  0.00    -0.000 A 
ATOM      5  C   UNL     1      -1.285  -0.263  24.226  0.00  0.00    -0.000 A 
ATOM      6  C   UNL     1      -2.043   0.061  24.241  0.00  0.00    -0.000 A 
ATOM      7  C   UNL     1      -2.549  -0.101  24.873  0.00  0.00    +0.001 A 
ENDBRANCH   8   7
BRANCH  18  20
ATOM     20  C   UNL     1      -2.818   2.839  24.986  0.00  0.00    +0.054 A 
ATOM     21  C   UNL     1      -2.543   3.122  25.710  0.00  0.00    +0.005 A 
ATOM     22  C   UNL     1      -2.006   3.748  25.733  0.00  0.00    +0.010 A 
ATOM     23  C   UNL     1      -1.744   4.092  25.030  0.00  0.00    +0.068 A 
ATOM     24  C   UNL     1      -2.018   3.810  24.305  0.00  0.00    +0.010 A 
ATOM     25  C   UNL     1      -2.555   3.183  24.283  0.00  0.00    +0.005 A 
BRANCH  23  26
ATOM     26  C   UNL     1      -1.207   4.718  25.052  0.00  0.00    +0.100 C 
ATOM     27  N   UNL     1      -0.670   5.344  25.075  0.00  0.00    -0.191 NA
ENDBRANCH  23  26
ENDBRANCH  18  20
TORSDOF 3
ENDMDL
MODEL 6
REMARK VINA RESULT:     -14.6      1.019      2.966
REMARK  Name = 
REMARK  3 active torsions:
REMARK  status: ('A' for Active; 'I' for Inactive)
REMARK    1  A    between atoms: C_7  and  C_8
REMARK    2  A    between atoms: C_18  and  C_20
REMARK    3  A    between atoms: C_23  and  C_26
REMARK                            x       y       z     vdW  Elec       q    Type
REMARK                         _______ _______ _______ _____ _____    ______ ____
ROOT
ATOM      8  C   UNL     1      -3.014   3.041  25.412  0.00  0.00    +0.056 A 
ATOM      9  C   UNL     1      -2.480   3.633  25.625  0.00  0.00    +0.006 A 
ATOM     10  C   UNL     1      -1.673   3.465  25.665  0.00  0.00    +0.013 A 
ATOM     11  C   UNL     1      -1.401   2.706  25.491  0.00  0.00    +0.041 A 
ATOM     12  C   UNL     1      -0.622   2.222  25.443  0.00  0.00    +0.058 C 
ATOM     13  C   UNL     1       0.072   2.284  25.532  0.00  0.00    +0.011 C 
ATOM     14  C   UNL     1      -0.458   1.702  25.322  0.00  0.00    +0.043 C 
ATOM     15  C   UNL     1      -0.933   0.879  25.053  0.00  0.00    +0.096 C 
ATOM     16  N   UNL     1      -1.718   1.165  25.048  0.00  0.00    -0.276 N 
ATOM     17  C   UNL     1      -1.066   1.417  25.183  0.00  0.00    +0.099 C 
ATOM     18  C   UNL     1      -2.539   1.159  24.961  0.00  0.00    +0.249 C 
ATOM     19  O   UNL     1      -2.973   1.848  25.099  0.00  0.00    -0.270 OA
ATOM     28  C   UNL     1      -1.278   2.201  25.369  0.00  0.00    +0.110 C 
ATOM     29  N   UNL     1      -1.935   2.115  25.278  0.00  0.00    -0.299 N 
ATOM     30  C   UNL     1      -2.742   2.282  25.238  0.00  0.00    +0.261 A 
ATOM     31  O   UNL     1      -3.442   1.885  25.060  0.00  0.00    -0.267 OA
ENDROOT
BRANCH   8   7
ATOM      1  C   UNL     1      -3.599   4.006  24.208  0.00  0.00    +0.031 C 
ATOM      2  C   UNL     1      -4.113   3.691  24.771  0.00  0.00    -0.022 A 
ATOM      3  C   UNL     1      -4.921   3.860  24.732  0.00  0.00    -0.004 A 
ATOM      4  C   UNL     1      -5.434   3.544  25.296  0.00  0.00    -0.000 A 
ATOM      5  C   UNL     1      -5.142   3.062  25.897  0.00  0.00    -0.000 A 
ATOM      6  C   UNL     1      -4.335   2.894  25.936  0.00  0.00    -0.000 A 
ATOM      7  C   UNL     1      -3.821   3.209  25.373  0.00  0.00    +0.001 A 
ENDBRANCH   8   7
BRANCH  18  20
ATOM     20  C   UNL     1      -2.925   0.466  24.736  0.00  0.00    +0.054 A 
ATOM     21  C   UNL     1      -3.133  -0.094  25.305  0.00  0.00    +0.005 A 
ATOM     22  C   UNL     1      -3.519  -0.788  25.079  0.00  0.00    +0.010 A 
ATOM     23  C   UNL     1      -3.697  -0.921  24.285  0.00  0.00    +0.068 A 
ATOM     24  C   UNL     1      -3.490  -0.362  23.716  0.00  0.00    +0.010 A 
ATOM     25  C   UNL     1      -3.103   0.332  23.941  0.00  0.00    +0.005 A 
BRANCH  23  26
ATOM     26  C   UNL     1      -4.083  -1.615  24.060  0.00  0.00    +0.100 C 
ATOM     27  N   UNL     1      -4.469  -2.308  23.835  0.00  0.00    -0.191 NA
ENDBRANCH  23  26
ENDBRANCH  18  20
TORSDOF 3
ENDMDL
MODEL 7
REMARK VINA RESULT:     -14.5      1.841      3.276
REMARK  Name = 
REMARK  3 active torsions:
REMARK  status: ('A' for Active; 'I' for Inactive)
REMARK    1  A    between atoms: C_7  and  C_8
REMARK    2  A    between atoms: C_18  and  C_20
REMARK    3  A    between atoms: C_23  and  C_26
REMARK                            x       y       z     vdW  Elec       q    Type
REMARK                         _______ _______ _______ _____ _____    ______ ____
ROOT
ATOM      8  C   UNL     1      -0.922   1.896  25.099  0.00  0.00    +0.056 A 
ATOM      9  C   UNL     1      -0.188   2.271  25.139  0.00  0.00    +0.006 A 
ATOM     10  C   UNL     1      -0.144   3.095  25.141  0.00  0.00    +0.013 A 
ATOM     11  C   UNL     1      -0.835   3.544  25.105  0.00  0.00    +0.041 A 
ATOM     12  C   UNL     1      -1.118   4.418  25.091  0.00  0.00    +0.058 C 
ATOM     13  C   UNL     1      -0.873   5.076  25.104  0.00  0.00    +0.011 C 
ATOM     14  C   UNL     1      -1.597   4.703  25.066  0.00  0.00    +0.043 C 
ATOM     15  C   UNL     1      -2.548   4.443  25.015  0.00  0.00    +0.096 C 
ATOM     16  N   UNL     1      -2.467   3.611  25.019  0.00  0.00    -0.276 N 
ATOM     17  C   UNL     1      -2.042   4.183  25.042  0.00  0.00    +0.099 C 
ATOM     18  C   UNL     1      -2.687   2.816  25.007  0.00  0.00    +0.249 C 
ATOM     19  O   UNL     1      -2.110   2.227  25.037  0.00  0.00    -0.270 OA
ATOM     28  C   UNL     1      -1.311   3.787  25.080  0.00  0.00    +0.110 C 
ATOM     29  N   UNL     1      -1.569   3.169  25.066  0.00  0.00    -0.299 N 
ATOM     30  C   UNL     1      -1.613   2.346  25.063  0.00  0.00    +0.261 A 
ATOM     31  O   UNL     1      -2.195   1.763  25.032  0.00  0.00    -0.267 OA
ENDROOT
BRANCH   8   7
ATOM      1  C   UNL     1      -0.369   1.046  23.798  0.00  0.00    +0.031 C 
ATOM      2  C   UNL     1      -0.688   0.647  24.447  0.00  0.00    -0.022 A 
ATOM      3  C   UNL     1      -0.731  -0.177  24.444  0.00  0.00    -0.004 A 
ATOM      4  C   UNL     1      -1.050  -0.575  25.093  0.00  0.00    -0.000 A 
ATOM      5  C   UNL     1      -1.327  -0.149  25.743  0.00  0.00    -0.000 A 
ATOM      6  C   UNL     1      -1.284   0.675  25.745  0.00  0.00    -0.000 A 
ATOM      7  C   UNL     1      -0.964   1.073  25.097  0.00  0.00    +0.001 A 
ENDBRANCH   8   7
BRANCH  18  20
ATOM     20  C   UNL     1      -3.485   2.610  24.965  0.00  0.00    +0.054 A 
ATOM     21  C   UNL     1      -3.829   2.440  24.235  0.00  0.00    +0.005 A 
ATOM     22  C   UNL     1      -4.627   2.234  24.193  0.00  0.00    +0.010 A 
ATOM     23  C   UNL     1      -5.080   2.198  24.881  0.00  0.00    +0.068 A 
ATOM     24  C   UNL     1      -4.737   2.368  25.611  0.00  0.00    +0.010 A 
ATOM     25  C   UNL     1      -3.939   2.574  25.653  0.00  0.00    +0.005 A 
BRANCH  23  26
ATOM     26  C   UNL     1      -5.879   1.992  24.839  0.00  0.00    +0.100 C 
ATOM     27  N   UNL     1      -6.676   1.786  24.797  0.00  0.00    -0.191 NA
ENDBRANCH  23  26
ENDBRANCH  18  20
TORSDOF 3
ENDMDL
MODEL 8
REMARK VINA RESULT:     -14.4      1.464      3.712
REMARK  Name = 
REMARK  3 active torsions:
REMARK  status: ('A' for Active; 'I' for Inactive)
REMARK    1  A    between atoms: C_7  and  C_8
REMARK    2  A    between atoms: C_18  and  C_20
REMARK    3  A    between atoms: C_23  and  C_26
REMARK                            x       y       z     vdW  Elec       q    Type
REMARK                         _______ _______ _______ _____ _____    ______ ____
ROOT
ATOM      8  C   UNL     1      -1.266  -0.311  24.854  0.00  0.00    +0.056 A 
ATOM      9  C   UNL     1      -0.824  -1.004  24.783  0.00  0.00    +0.006 A 
ATOM     10  C   UNL     1      -1.206  -1.726  24.662  0.00  0.00    +0.013 A 
ATOM     11  C   UNL     1      -2.028  -1.754  24.612  0.00  0.00    +0.041 A 
ATOM     12  C   UNL     1      -2.716  -2.351  24.491  0.00  0.00    +0.058 C 
ATOM     13  C   UNL     1      -2.840  -3.035  24.390  0.00  0.00    +0.011 C 
ATOM     14  C   UNL     1      -3.273  -2.348  24.460  0.00  0.00    +0.043 C 
ATOM     15  C   UNL     1      -3.960  -1.640  24.518  0.00  0.00    +0.096 C 
ATOM     16  N   UNL     1      -3.467  -0.976  24.638  0.00  0.00    -0.276 N 
ATOM     17  C   UNL     1      -3.392  -1.679  24.545  0.00  0.00    +0.099 C 
ATOM     18  C   UNL     1      -3.253  -0.188  24.758  0.00  0.00    +0.249 C 
ATOM     19  O   UNL     1      -2.456   0.016  24.831  0.00  0.00    -0.270 OA
ATOM     28  C   UNL     1      -2.561  -1.716  24.587  0.00  0.00    +0.110 C 
ATOM     29  N   UNL     1      -2.470  -1.060  24.682  0.00  0.00    -0.299 N 
ATOM     30  C   UNL     1      -2.089  -0.339  24.803  0.00  0.00    +0.261 A 
ATOM     31  O   UNL     1      -2.294   0.454  24.901  0.00  0.00    -0.267 OA
ENDROOT
BRANCH   8   7
ATOM      1  C   UNL     1      -0.319   0.331  23.664  0.00  0.00    +0.031 C 
ATOM      2  C   UNL     1      -0.411   0.731  24.380  0.00  0.00    -0.022 A 
ATOM      3  C   UNL     1      -0.029   1.453  24.502  0.00  0.00    -0.004 A 
ATOM      4  C   UNL     1      -0.121   1.852  25.218  0.00  0.00    -0.000 A 
ATOM      5  C   UNL     1      -0.594   1.531  25.812  0.00  0.00    -0.000 A 
ATOM      6  C   UNL     1      -0.976   0.810  25.690  0.00  0.00    -0.000 A 
ATOM      7  C   UNL     1      -0.884   0.410  24.974  0.00  0.00    +0.001 A 
ENDBRANCH   8   7
BRANCH  18  20
ATOM     20  C   UNL     1      -3.834   0.394  24.805  0.00  0.00    +0.054 A 
ATOM     21  C   UNL     1      -3.965   0.900  24.168  0.00  0.00    +0.005 A 
ATOM     22  C   UNL     1      -4.547   1.484  24.215  0.00  0.00    +0.010 A 
ATOM     23  C   UNL     1      -4.999   1.560  24.901  0.00  0.00    +0.068 A 
ATOM     24  C   UNL     1      -4.869   1.054  25.539  0.00  0.00    +0.010 A 
ATOM     25  C   UNL     1      -4.287   0.471  25.492  0.00  0.00    +0.005 A 
BRANCH  23  26
ATOM     26  C   UNL     1      -5.581   2.143  24.948  0.00  0.00    +0.100 C 
ATOM     27  N   UNL     1      -6.163   2.725  24.995  0.00  0.00    -0.191 NA
ENDBRANCH  23  26
ENDBRANCH  18  20
TORSDOF 3
ENDMDL
