REMARK  Name = 
REMARK  8 active torsions:
REMARK  status: ('A' for Active; 'I' for Inactive)
REMARK    1  A    between atoms: C_5  and  C_6
REMARK    2  A    between atoms: C_6  and  C_7
REMARK    3  A    between atoms: C_10  and  C_11
REMARK    4  A    between atoms: C_11  and  N_12
REMARK    5  A    between atoms: C_20  and  C_21
REMARK    6  A    between atoms: C_21  and  N_22
REMARK    7  A    between atoms: C_23  and  C_25
REMARK    8  A    between atoms: C_25  and  C_26
REMARK                            x       y       z     vdW  Elec       q    Type
REMARK                         _______ _______ _______ _____ _____    ______ ____
ROOT
ATOM      1  O   UNL     1       3.572  -3.712   0.000  0.00  0.00    -0.220 OA
ATOM      2  C   UNL     1       2.858  -4.125   0.000  0.00  0.00    +0.181 C 
ATOM      3  C   UNL     1       2.858  -4.950   0.000  0.00  0.00    +0.038 C 
ATOM      4  C   UNL     1       2.143  -5.362   0.000  0.00  0.00    +0.033 C 
ATOM      5  C   UNL     1       1.429  -4.950   0.000  0.00  0.00    +0.121 C 
ATOM     19  O   UNL     1       1.429  -4.125   0.000  0.00  0.00    -0.354 OA
ATOM     20  C   UNL     1       2.143  -3.712   0.000  0.00  0.00    +0.167 C 
ENDROOT
BRANCH   5   6
ATOM      6  C   UNL     1       0.715  -5.362   0.000  0.00  0.00    +0.079 C 
BRANCH   6   7
ATOM      7  C   UNL     1       0.715  -6.188   0.000  0.00  0.00    +0.103 A 
ATOM      8  N   UNL     1       1.382  -6.672   0.000  0.00  0.00    -0.082 NA
ATOM      9  O   UNL     1       1.127  -7.457   0.000  0.00  0.00    -0.357 OA
ATOM     10  C   UNL     1       0.302  -7.457   0.000  0.00  0.00    +0.170 A 
ATOM     18  C   UNL     1       0.047  -6.672   0.000  0.00  0.00    +0.055 A 
BRANCH  10  11
ATOM     11  C   UNL     1      -0.183  -8.124   0.000  0.00  0.00    +0.141 C 
BRANCH  11  12
ATOM     12  N   UNL     1       0.153  -8.878   0.000  0.00  0.00    -0.262 NA
ATOM     13  C   UNL     1       0.973  -8.964   0.000  0.00  0.00    +0.105 C 
ATOM     14  C   UNL     1       1.309  -9.718   0.000  0.00  0.00    +0.159 C 
ATOM     15  O   UNL     1       0.824 -10.386   0.000  0.00  0.00    -0.351 OA
ATOM     16  C   UNL     1       0.003 -10.299   0.000  0.00  0.00    +0.159 C 
ATOM     17  C   UNL     1      -0.332  -9.546   0.000  0.00  0.00    +0.105 C 
ENDBRANCH  11  12
ENDBRANCH  10  11
ENDBRANCH   6   7
ENDBRANCH   5   6
BRANCH  20  21
ATOM     21  C   UNL     1       2.143  -2.888   0.000  0.00  0.00    +0.147 C 
BRANCH  21  22
ATOM     22  N   UNL     1       1.429  -2.475   0.000  0.00  0.00    -0.202 NA
ATOM     23  C   UNL     1       1.429  -1.650   0.000  0.00  0.00    +0.246 C 
ATOM     24  O   UNL     1       2.143  -1.238   0.000  0.00  0.00    -0.273 OA
BRANCH  23  25
ATOM     25  C   UNL     1       0.715  -1.238   0.000  0.00  0.00    +0.113 C 
BRANCH  25  26
ATOM     26  C   UNL     1       0.715  -0.412   0.000  0.00  0.00    -0.013 A 
ATOM     27  C   UNL     1       0.000   0.000   0.000  0.00  0.00    -0.004 A 
ATOM     28  C   UNL     1       0.000   0.825   0.000  0.00  0.00    -0.000 A 
ATOM     29  C   UNL     1       0.715   1.238   0.000  0.00  0.00    -0.000 A 
ATOM     30  C   UNL     1       1.429   0.825   0.000  0.00  0.00    -0.000 A 
ATOM     31  C   UNL     1       1.429   0.000   0.000  0.00  0.00    -0.004 A 
ENDBRANCH  25  26
ENDBRANCH  23  25
ENDBRANCH  21  22
ENDBRANCH  20  21
TORSDOF 8
