REMARK  Name = 
REMARK  8 active torsions:
REMARK  status: ('A' for Active; 'I' for Inactive)
REMARK    1  A    between atoms: C_2  and  C_3
REMARK    2  A    between atoms: C_2  and  C_26
REMARK    3  A    between atoms: C_10  and  N_11
REMARK    4  A    between atoms: C_12  and  C_14
REMARK    5  A    between atoms: C_14  and  C_15
REMARK    6  A    between atoms: N_28  and  C_29
REMARK    7  A    between atoms: C_29  and  C_30
REMARK    8  A    between atoms: C_30  and  N_31
REMARK                            x       y       z     vdW  Elec       q    Type
REMARK                         _______ _______ _______ _____ _____    ______ ____
ROOT
ATOM      3  C   UNL     1       2.143  -2.062   0.000  0.00  0.00    +0.039 C 
ATOM      4  C   UNL     1       2.143  -2.888   0.000  0.00  0.00    +0.003 C 
ATOM      5  C   UNL     1       1.429  -3.300   0.000  0.00  0.00    +0.000 C 
ATOM      6  C   UNL     1       0.715  -2.888   0.000  0.00  0.00    +0.002 C 
ATOM      7  C   UNL     1       0.715  -3.712   0.000  0.00  0.00    +0.000 C 
ATOM      8  C   UNL     1       0.000  -3.300   0.000  0.00  0.00    +0.002 C 
ATOM      9  C   UNL     1      -0.715  -2.888   0.000  0.00  0.00    +0.022 C 
ATOM     10  C   UNL     1      -0.715  -2.062   0.000  0.00  0.00    +0.095 C 
ATOM     21  C   UNL     1       0.000  -1.650   0.000  0.00  0.00    +0.022 C 
ATOM     22  C   UNL     1       0.000  -0.825   0.000  0.00  0.00    +0.002 C 
ATOM     23  C   UNL     1       0.715  -2.062   0.000  0.00  0.00    +0.032 C 
ATOM     24  C   UNL     1       1.429  -1.650   0.000  0.00  0.00    +0.152 C 
ATOM     25  O   UNL     1       1.429  -0.825   0.000  0.00  0.00    -0.223 OA
ENDROOT
BRANCH  10  11
ATOM     11  N   UNL     1      -1.429  -1.650   0.000  0.00  0.00    -0.207 NA
ATOM     12  C   UNL     1      -2.143  -2.062   0.000  0.00  0.00    +0.246 C 
ATOM     13  O   UNL     1      -2.143  -2.888   0.000  0.00  0.00    -0.273 OA
BRANCH  12  14
ATOM     14  C   UNL     1      -2.858  -1.650   0.000  0.00  0.00    +0.113 C 
BRANCH  14  15
ATOM     15  C   UNL     1      -3.572  -2.062   0.000  0.00  0.00    -0.013 A 
ATOM     16  C   UNL     1      -3.572  -2.888   0.000  0.00  0.00    -0.004 A 
ATOM     17  C   UNL     1      -4.287  -3.300   0.000  0.00  0.00    -0.000 A 
ATOM     18  C   UNL     1      -5.001  -2.888   0.000  0.00  0.00    -0.000 A 
ATOM     19  C   UNL     1      -5.001  -2.062   0.000  0.00  0.00    -0.000 A 
ATOM     20  C   UNL     1      -4.287  -1.650   0.000  0.00  0.00    -0.004 A 
ENDBRANCH  14  15
ENDBRANCH  12  14
ENDBRANCH  10  11
BRANCH   3   2
ATOM      1  C   UNL     1       2.858  -0.825   0.000  0.00  0.00    +0.010 C 
ATOM      2  C   UNL     1       2.858  -1.650   0.000  0.00  0.00    +0.081 C 
BRANCH   2  26
ATOM     26  C   UNL     1       3.572  -2.062   0.000  0.00  0.00    +0.241 C 
ATOM     27  O   UNL     1       3.572  -2.888   0.000  0.00  0.00    -0.273 OA
ATOM     28  N   UNL     1       4.287  -1.650   0.000  0.00  0.00    -0.204 NA
BRANCH  28  29
ATOM     29  C   UNL     1       5.001  -2.062   0.000  0.00  0.00    +0.132 C 
BRANCH  29  30
ATOM     30  C   UNL     1       5.716  -1.650   0.000  0.00  0.00    +0.096 C 
BRANCH  30  31
ATOM     31  N   UNL     1       6.430  -2.062   0.000  0.00  0.00    -0.267 NA
ATOM     32  C   UNL     1       7.145  -1.650   0.000  0.00  0.00    +0.105 C 
ATOM     33  C   UNL     1       7.859  -2.062   0.000  0.00  0.00    +0.159 C 
ATOM     34  O   UNL     1       7.859  -2.888   0.000  0.00  0.00    -0.351 OA
ATOM     35  C   UNL     1       7.145  -3.300   0.000  0.00  0.00    +0.159 C 
ATOM     36  C   UNL     1       6.430  -2.888   0.000  0.00  0.00    +0.105 C 
ENDBRANCH  30  31
ENDBRANCH  29  30
ENDBRANCH  28  29
ENDBRANCH   2  26
ENDBRANCH   3   2
TORSDOF 8
