MODEL 1
REMARK VINA RESULT:     -13.1      0.000      0.000
REMARK  Name = 
REMARK  8 active torsions:
REMARK  status: ('A' for Active; 'I' for Inactive)
REMARK    1  A    between atoms: N_4  and  C_24
REMARK    2  A    between atoms: C_7  and  C_8
REMARK    3  A    between atoms: C_10  and  N_11
REMARK    4  A    between atoms: C_12  and  C_14
REMARK    5  A    between atoms: C_14  and  C_15
REMARK    6  A    between atoms: C_15  and  C_18
REMARK    7  A    between atoms: C_18  and  C_19
REMARK    8  A    between atoms: C_27  and  C_30
REMARK                            x       y       z     vdW  Elec       q    Type
REMARK                         _______ _______ _______ _____ _____    ______ ____
ROOT
ATOM      1  C   UNL     1      -6.104   1.867  25.064  0.00  0.00    +0.054 C 
ATOM      2  C   UNL     1      -5.410   1.424  25.000  0.00  0.00    +0.077 A 
ATOM      3  N   UNL     1      -5.366   0.610  24.880  0.00  0.00    -0.170 NA
ATOM      4  N   UNL     1      -4.568   0.400  24.850  0.00  0.00    -0.234 N 
ATOM      5  C   UNL     1      -4.120   1.086  24.951  0.00  0.00    +0.058 A 
ATOM      6  C   UNL     1      -3.296   1.130  24.958  0.00  0.00    +0.052 C 
ATOM      7  C   UNL     1      -4.641   1.719  25.043  0.00  0.00    +0.010 A 
ENDROOT
BRANCH   4  24
ATOM     24  C   UNL     1      -4.270  -0.362  24.738  0.00  0.00    +0.082 A 
ATOM     25  C   UNL     1      -3.989  -0.792  25.383  0.00  0.00    +0.019 A 
ATOM     26  C   UNL     1      -3.691  -1.554  25.271  0.00  0.00    -0.003 A 
ATOM     27  C   UNL     1      -3.674  -1.884  24.516  0.00  0.00    -0.023 A 
ATOM     28  C   UNL     1      -3.955  -1.452  23.870  0.00  0.00    -0.003 A 
ATOM     29  C   UNL     1      -4.253  -0.691  23.982  0.00  0.00    +0.019 A 
BRANCH  27  30
ATOM     30  C   UNL     1      -3.377  -2.645  24.404  0.00  0.00    +0.019 C 
ATOM     31  C   UNL     1      -3.079  -3.406  24.292  0.00  0.00    +0.004 C 
ATOM     32  C   UNL     1      -2.650  -2.407  24.716  0.00  0.00    +0.004 C 
ATOM     33  C   UNL     1      -4.102  -2.883  24.092  0.00  0.00    +0.004 C 
ENDBRANCH  27  30
ENDBRANCH   4  24
BRANCH   7   8
ATOM      8  C   UNL     1      -4.429   2.508  25.160  0.00  0.00    +0.048 C 
ATOM      9  C   UNL     1      -3.752   2.876  24.868  0.00  0.00    +0.035 C 
ATOM     10  C   UNL     1      -3.761   3.662  25.116  0.00  0.00    +0.118 C 
ATOM     22  C   UNL     1      -4.445   3.780  25.562  0.00  0.00    -0.009 C 
ATOM     23  C   UNL     1      -4.858   3.067  25.589  0.00  0.00    -0.025 C 
BRANCH  10  11
ATOM     11  N   UNL     1      -3.188   4.232  24.949  0.00  0.00    -0.203 NA
ATOM     12  C   UNL     1      -2.579   4.376  25.486  0.00  0.00    +0.242 C 
ATOM     13  O   UNL     1      -2.542   3.950  26.191  0.00  0.00    -0.273 OA
BRANCH  12  14
ATOM     14  C   UNL     1      -2.006   4.946  25.317  0.00  0.00    +0.087 C 
BRANCH  14  15
ATOM     15  C   UNL     1      -1.231   4.716  25.157  0.00  0.00    +0.019 C 
ATOM     16  C   UNL     1      -1.184   5.289  24.565  0.00  0.00    +0.001 C 
ATOM     17  C   UNL     1      -1.278   4.143  25.748  0.00  0.00    +0.001 C 
BRANCH  15  18
ATOM     18  C   UNL     1      -0.455   4.486  24.996  0.00  0.00    +0.115 C 
BRANCH  18  19
ATOM     19  C   UNL     1      -0.263   4.169  24.258  0.00  0.00    +0.365 C 
ATOM     20  O   UNL     1      -0.219   3.352  24.160  0.00  0.00    -0.246 OA
ATOM     21  O   UNL     1      -0.114   4.671  23.620  0.00  0.00    -0.246 OA
ENDBRANCH  18  19
ENDBRANCH  15  18
ENDBRANCH  14  15
ENDBRANCH  12  14
ENDBRANCH  10  11
ENDBRANCH   7   8
TORSDOF 8
ENDMDL
MODEL 2
REMARK VINA RESULT:     -12.4      1.989      5.686
REMARK  Name = 
REMARK  8 active torsions:
REMARK  status: ('A' for Active; 'I' for Inactive)
REMARK    1  A    between atoms: N_4  and  C_24
REMARK    2  A    between atoms: C_7  and  C_8
REMARK    3  A    between atoms: C_10  and  N_11
REMARK    4  A    between atoms: C_12  and  C_14
REMARK    5  A    between atoms: C_14  and  C_15
REMARK    6  A    between atoms: C_15  and  C_18
REMARK    7  A    between atoms: C_18  and  C_19
REMARK    8  A    between atoms: C_27  and  C_30
REMARK                            x       y       z     vdW  Elec       q    Type
REMARK                         _______ _______ _______ _____ _____    ______ ____
ROOT
ATOM      1  C   UNL     1      -5.754   2.650  25.402  0.00  0.00    +0.054 C 
ATOM      2  C   UNL     1      -4.943   2.709  25.257  0.00  0.00    +0.077 A 
ATOM      3  N   UNL     1      -4.495   3.400  25.288  0.00  0.00    -0.170 NA
ATOM      4  N   UNL     1      -3.714   3.205  25.105  0.00  0.00    -0.234 N 
ATOM      5  C   UNL     1      -3.681   2.393  24.961  0.00  0.00    +0.058 A 
ATOM      6  C   UNL     1      -3.006   1.964  24.759  0.00  0.00    +0.052 C 
ATOM      7  C   UNL     1      -4.441   2.086  25.055  0.00  0.00    +0.010 A 
ENDROOT
BRANCH   4  24
ATOM     24  C   UNL     1      -3.078   3.729  25.072  0.00  0.00    +0.082 A 
ATOM     25  C   UNL     1      -2.666   3.920  25.760  0.00  0.00    +0.019 A 
ATOM     26  C   UNL     1      -2.029   4.445  25.727  0.00  0.00    -0.003 A 
ATOM     27  C   UNL     1      -1.806   4.778  25.007  0.00  0.00    -0.023 A 
ATOM     28  C   UNL     1      -2.218   4.587  24.318  0.00  0.00    -0.003 A 
ATOM     29  C   UNL     1      -2.855   4.062  24.351  0.00  0.00    +0.019 A 
BRANCH  27  30
ATOM     30  C   UNL     1      -1.170   5.303  24.974  0.00  0.00    +0.019 C 
ATOM     31  C   UNL     1      -0.533   5.826  24.941  0.00  0.00    +0.004 C 
ATOM     32  C   UNL     1      -1.693   5.940  25.007  0.00  0.00    +0.004 C 
ATOM     33  C   UNL     1      -0.647   4.666  24.942  0.00  0.00    +0.004 C 
ENDBRANCH  27  30
ENDBRANCH   4  24
BRANCH   7   8
ATOM      8  C   UNL     1      -4.659   1.296  24.962  0.00  0.00    +0.048 C 
ATOM      9  C   UNL     1      -4.229   0.717  24.564  0.00  0.00    +0.035 C 
ATOM     10  C   UNL     1      -4.650   0.010  24.608  0.00  0.00    +0.118 C 
ATOM     22  C   UNL     1      -5.342   0.152  25.035  0.00  0.00    -0.009 C 
ATOM     23  C   UNL     1      -5.348   0.946  25.254  0.00  0.00    -0.025 C 
BRANCH  10  11
ATOM     11  N   UNL     1      -4.422  -0.713  24.283  0.00  0.00    -0.203 NA
ATOM     12  C   UNL     1      -4.007  -1.259  24.741  0.00  0.00    +0.242 C 
ATOM     13  O   UNL     1      -3.820  -1.083  25.525  0.00  0.00    -0.273 OA
BRANCH  12  14
ATOM     14  C   UNL     1      -3.778  -1.983  24.415  0.00  0.00    +0.087 C 
BRANCH  14  15
ATOM     15  C   UNL     1      -3.075  -2.340  24.656  0.00  0.00    +0.019 C 
ATOM     16  C   UNL     1      -3.505  -2.915  25.061  0.00  0.00    +0.001 C 
ATOM     17  C   UNL     1      -2.644  -1.764  24.252  0.00  0.00    +0.001 C 
BRANCH  15  18
ATOM     18  C   UNL     1      -2.371  -2.697  24.897  0.00  0.00    +0.115 C 
BRANCH  18  19
ATOM     19  C   UNL     1      -1.748  -2.782  24.362  0.00  0.00    +0.365 C 
ATOM     20  O   UNL     1      -1.833  -3.272  23.704  0.00  0.00    -0.246 OA
ATOM     21  O   UNL     1      -1.040  -2.377  24.487  0.00  0.00    -0.246 OA
ENDBRANCH  18  19
ENDBRANCH  15  18
ENDBRANCH  14  15
ENDBRANCH  12  14
ENDBRANCH  10  11
ENDBRANCH   7   8
TORSDOF 8
ENDMDL
MODEL 3
REMARK VINA RESULT:     -11.7      4.304      6.259
REMARK  Name = 
REMARK  8 active torsions:
REMARK  status: ('A' for Active; 'I' for Inactive)
REMARK    1  A    between atoms: N_4  and  C_24
REMARK    2  A    between atoms: C_7  and  C_8
REMARK    3  A    between atoms: C_10  and  N_11
REMARK    4  A    between atoms: C_12  and  C_14
REMARK    5  A    between atoms: C_14  and  C_15
REMARK    6  A    between atoms: C_15  and  C_18
REMARK    7  A    between atoms: C_18  and  C_19
REMARK    8  A    between atoms: C_27  and  C_30
REMARK                            x       y       z     vdW  Elec       q    Type
REMARK                         _______ _______ _______ _____ _____    ______ ____
ROOT
ATOM      1  C   UNL     1      -0.509  -0.683  24.767  0.00  0.00    +0.054 C 
ATOM      2  C   UNL     1      -0.589   0.130  24.643  0.00  0.00    +0.077 A 
ATOM      3  N   UNL     1      -1.068   0.641  25.077  0.00  0.00    -0.170 NA
ATOM      4  N   UNL     1      -0.979   1.400  24.766  0.00  0.00    -0.234 N 
ATOM      5  C   UNL     1      -0.444   1.357  24.139  0.00  0.00    +0.058 A 
ATOM      6  C   UNL     1      -0.194   1.989  23.671  0.00  0.00    +0.052 C 
ATOM      7  C   UNL     1      -0.203   0.571  24.063  0.00  0.00    +0.010 A 
ENDROOT
BRANCH   4  24
ATOM     24  C   UNL     1      -1.358   2.082  25.034  0.00  0.00    +0.082 A 
ATOM     25  C   UNL     1      -0.980   2.577  25.574  0.00  0.00    +0.019 A 
ATOM     26  C   UNL     1      -1.359   3.260  25.843  0.00  0.00    -0.003 A 
ATOM     27  C   UNL     1      -2.115   3.446  25.571  0.00  0.00    -0.023 A 
ATOM     28  C   UNL     1      -2.493   2.950  25.030  0.00  0.00    -0.003 A 
ATOM     29  C   UNL     1      -2.114   2.268  24.761  0.00  0.00    +0.019 A 
BRANCH  27  30
ATOM     30  C   UNL     1      -2.494   4.128  25.839  0.00  0.00    +0.019 C 
ATOM     31  C   UNL     1      -2.872   4.810  26.107  0.00  0.00    +0.004 C 
ATOM     32  C   UNL     1      -3.078   3.665  26.193  0.00  0.00    +0.004 C 
ATOM     33  C   UNL     1      -1.910   4.591  25.484  0.00  0.00    +0.004 C 
ENDBRANCH  27  30
ENDBRANCH   4  24
BRANCH   7   8
ATOM      8  C   UNL     1       0.331   0.281  23.505  0.00  0.00    +0.048 C 
ATOM      9  C   UNL     1       1.123   0.098  23.640  0.00  0.00    +0.035 C 
ATOM     10  C   UNL     1       1.447  -0.174  22.932  0.00  0.00    +0.118 C 
ATOM     22  C   UNL     1       0.853  -0.159  22.358  0.00  0.00    -0.009 C 
ATOM     23  C   UNL     1       0.164   0.122  22.712  0.00  0.00    -0.025 C 
BRANCH  10  11
ATOM     11  N   UNL     1       2.226  -0.418  22.816  0.00  0.00    -0.203 NA
ATOM     12  C   UNL     1       2.825   0.141  22.721  0.00  0.00    +0.242 C 
ATOM     13  O   UNL     1       2.645   0.946  22.742  0.00  0.00    -0.273 OA
BRANCH  12  14
ATOM     14  C   UNL     1       3.604  -0.104  22.605  0.00  0.00    +0.087 C 
BRANCH  14  15
ATOM     15  C   UNL     1       4.212   0.226  23.055  0.00  0.00    +0.019 C 
ATOM     16  C   UNL     1       4.205   0.896  22.574  0.00  0.00    +0.001 C 
ATOM     17  C   UNL     1       4.219  -0.444  23.536  0.00  0.00    +0.001 C 
BRANCH  15  18
ATOM     18  C   UNL     1       4.819   0.556  23.505  0.00  0.00    +0.115 C 
BRANCH  18  19
ATOM     19  C   UNL     1       5.490   0.109  23.684  0.00  0.00    +0.365 C 
ATOM     20  O   UNL     1       6.058  -0.033  23.102  0.00  0.00    -0.246 OA
ATOM     21  O   UNL     1       5.592  -0.195  24.444  0.00  0.00    -0.246 OA
ENDBRANCH  18  19
ENDBRANCH  15  18
ENDBRANCH  14  15
ENDBRANCH  12  14
ENDBRANCH  10  11
ENDBRANCH   7   8
TORSDOF 8
ENDMDL
MODEL 4
REMARK VINA RESULT:     -11.7      4.017      5.530
REMARK  Name = 
REMARK  8 active torsions:
REMARK  status: ('A' for Active; 'I' for Inactive)
REMARK    1  A    between atoms: N_4  and  C_24
REMARK    2  A    between atoms: C_7  and  C_8
REMARK    3  A    between atoms: C_10  and  N_11
REMARK    4  A    between atoms: C_12  and  C_14
REMARK    5  A    between atoms: C_14  and  C_15
REMARK    6  A    between atoms: C_15  and  C_18
REMARK    7  A    between atoms: C_18  and  C_19
REMARK    8  A    between atoms: C_27  and  C_30
REMARK                            x       y       z     vdW  Elec       q    Type
REMARK                         _______ _______ _______ _____ _____    ______ ____
ROOT
ATOM      1  C   UNL     1      -0.414  -1.013  24.867  0.00  0.00    +0.054 C 
ATOM      2  C   UNL     1      -0.899  -0.398  24.605  0.00  0.00    +0.077 A 
ATOM      3  N   UNL     1      -1.665  -0.241  24.866  0.00  0.00    -0.170 NA
ATOM      4  N   UNL     1      -1.942   0.422  24.459  0.00  0.00    -0.234 N 
ATOM      5  C   UNL     1      -1.346   0.673  23.947  0.00  0.00    +0.058 A 
ATOM      6  C   UNL     1      -1.389   1.319  23.434  0.00  0.00    +0.052 C 
ATOM      7  C   UNL     1      -0.701   0.167  24.037  0.00  0.00    +0.010 A 
ENDROOT
BRANCH   4  24
ATOM     24  C   UNL     1      -2.684   0.771  24.549  0.00  0.00    +0.082 A 
ATOM     25  C   UNL     1      -3.349   0.415  24.216  0.00  0.00    +0.019 A 
ATOM     26  C   UNL     1      -4.092   0.765  24.306  0.00  0.00    -0.003 A 
ATOM     27  C   UNL     1      -4.168   1.468  24.728  0.00  0.00    -0.023 A 
ATOM     28  C   UNL     1      -3.502   1.825  25.062  0.00  0.00    -0.003 A 
ATOM     29  C   UNL     1      -2.760   1.475  24.972  0.00  0.00    +0.019 A 
BRANCH  27  30
ATOM     30  C   UNL     1      -4.911   1.818  24.818  0.00  0.00    +0.019 C 
ATOM     31  C   UNL     1      -5.652   2.168  24.908  0.00  0.00    +0.004 C 
ATOM     32  C   UNL     1      -5.151   1.186  25.292  0.00  0.00    +0.004 C 
ATOM     33  C   UNL     1      -4.670   2.449  24.345  0.00  0.00    +0.004 C 
ENDBRANCH  27  30
ENDBRANCH   4  24
BRANCH   7   8
ATOM      8  C   UNL     1       0.015   0.217  23.630  0.00  0.00    +0.048 C 
ATOM      9  C   UNL     1       0.651   0.703  23.824  0.00  0.00    +0.035 C 
ATOM     10  C   UNL     1       1.248   0.576  23.271  0.00  0.00    +0.118 C 
ATOM     22  C   UNL     1       0.981   0.010  22.733  0.00  0.00    -0.009 C 
ATOM     23  C   UNL     1       0.219  -0.212  22.954  0.00  0.00    -0.025 C 
BRANCH  10  11
ATOM     11  N   UNL     1       1.984   0.948  23.256  0.00  0.00    -0.203 NA
ATOM     12  C   UNL     1       2.644   0.549  22.962  0.00  0.00    +0.242 C 
ATOM     13  O   UNL     1       2.568  -0.223  22.683  0.00  0.00    -0.273 OA
BRANCH  12  14
ATOM     14  C   UNL     1       3.380   0.922  22.948  0.00  0.00    +0.087 C 
BRANCH  14  15
ATOM     15  C   UNL     1       4.070   0.471  22.931  0.00  0.00    +0.019 C 
ATOM     16  C   UNL     1       4.023   0.369  23.748  0.00  0.00    +0.001 C 
ATOM     17  C   UNL     1       4.117   0.574  22.114  0.00  0.00    +0.001 C 
BRANCH  15  18
ATOM     18  C   UNL     1       4.761   0.021  22.914  0.00  0.00    +0.115 C 
BRANCH  18  19
ATOM     19  C   UNL     1       5.334   0.121  23.500  0.00  0.00    +0.365 C 
ATOM     20  O   UNL     1       5.513  -0.500  24.012  0.00  0.00    -0.246 OA
ATOM     21  O   UNL     1       5.727   0.843  23.572  0.00  0.00    -0.246 OA
ENDBRANCH  18  19
ENDBRANCH  15  18
ENDBRANCH  14  15
ENDBRANCH  12  14
ENDBRANCH  10  11
ENDBRANCH   7   8
TORSDOF 8
ENDMDL
MODEL 5
REMARK VINA RESULT:     -11.5      2.912      6.556
REMARK  Name = 
REMARK  8 active torsions:
REMARK  status: ('A' for Active; 'I' for Inactive)
REMARK    1  A    between atoms: N_4  and  C_24
REMARK    2  A    between atoms: C_7  and  C_8
REMARK    3  A    between atoms: C_10  and  N_11
REMARK    4  A    between atoms: C_12  and  C_14
REMARK    5  A    between atoms: C_14  and  C_15
REMARK    6  A    between atoms: C_15  and  C_18
REMARK    7  A    between atoms: C_18  and  C_19
REMARK    8  A    between atoms: C_27  and  C_30
REMARK                            x       y       z     vdW  Elec       q    Type
REMARK                         _______ _______ _______ _____ _____    ______ ____
ROOT
ATOM      1  C   UNL     1       0.845   0.456  23.498  0.00  0.00    +0.054 C 
ATOM      2  C   UNL     1       0.282   0.890  23.919  0.00  0.00    +0.077 A 
ATOM      3  N   UNL     1       0.219   1.712  23.937  0.00  0.00    -0.170 NA
ATOM      4  N   UNL     1      -0.418   1.907  24.425  0.00  0.00    -0.234 N 
ATOM      5  C   UNL     1      -0.746   1.205  24.708  0.00  0.00    +0.058 A 
ATOM      6  C   UNL     1      -1.395   1.144  25.216  0.00  0.00    +0.052 C 
ATOM      7  C   UNL     1      -0.313   0.576  24.395  0.00  0.00    +0.010 A 
ENDROOT
BRANCH   4  24
ATOM     24  C   UNL     1      -0.679   2.670  24.599  0.00  0.00    +0.082 A 
ATOM     25  C   UNL     1      -1.216   3.046  24.099  0.00  0.00    +0.019 A 
ATOM     26  C   UNL     1      -1.478   3.809  24.273  0.00  0.00    -0.003 A 
ATOM     27  C   UNL     1      -1.202   4.195  24.947  0.00  0.00    -0.023 A 
ATOM     28  C   UNL     1      -0.665   3.820  25.448  0.00  0.00    -0.003 A 
ATOM     29  C   UNL     1      -0.403   3.056  25.274  0.00  0.00    +0.019 A 
BRANCH  27  30
ATOM     30  C   UNL     1      -1.464   4.959  25.121  0.00  0.00    +0.019 C 
ATOM     31  C   UNL     1      -1.725   5.722  25.295  0.00  0.00    +0.004 C 
ATOM     32  C   UNL     1      -2.135   4.646  25.485  0.00  0.00    +0.004 C 
ATOM     33  C   UNL     1      -0.793   5.271  24.757  0.00  0.00    +0.004 C 
ENDBRANCH  27  30
ENDBRANCH   4  24
BRANCH   7   8
ATOM      8  C   UNL     1      -0.453  -0.225  24.535  0.00  0.00    +0.048 C 
ATOM      9  C   UNL     1      -1.069  -0.672  24.220  0.00  0.00    +0.035 C 
ATOM     10  C   UNL     1      -0.998  -1.442  24.505  0.00  0.00    +0.118 C 
ATOM     22  C   UNL     1      -0.336  -1.471  24.998  0.00  0.00    -0.009 C 
ATOM     23  C   UNL     1      -0.000  -0.719  25.017  0.00  0.00    -0.025 C 
BRANCH  10  11
ATOM     11  N   UNL     1      -1.498  -2.074  24.330  0.00  0.00    -0.203 NA
ATOM     12  C   UNL     1      -2.119  -2.263  24.839  0.00  0.00    +0.242 C 
ATOM     13  O   UNL     1      -2.240  -1.821  25.524  0.00  0.00    -0.273 OA
BRANCH  12  14
ATOM     14  C   UNL     1      -2.619  -2.896  24.663  0.00  0.00    +0.087 C 
BRANCH  14  15
ATOM     15  C   UNL     1      -3.430  -2.769  24.577  0.00  0.00    +0.019 C 
ATOM     16  C   UNL     1      -3.379  -2.981  23.781  0.00  0.00    +0.001 C 
ATOM     17  C   UNL     1      -3.481  -2.557  25.372  0.00  0.00    +0.001 C 
BRANCH  15  18
ATOM     18  C   UNL     1      -4.240  -2.642  24.491  0.00  0.00    +0.115 C 
BRANCH  18  19
ATOM     19  C   UNL     1      -4.526  -2.225  23.838  0.00  0.00    +0.365 C 
ATOM     20  O   UNL     1      -4.647  -1.411  23.890  0.00  0.00    -0.246 OA
ATOM     21  O   UNL     1      -4.690  -2.623  23.134  0.00  0.00    -0.246 OA
ENDBRANCH  18  19
ENDBRANCH  15  18
ENDBRANCH  14  15
ENDBRANCH  12  14
ENDBRANCH  10  11
ENDBRANCH   7   8
TORSDOF 8
ENDMDL
MODEL 6
REMARK VINA RESULT:     -11.4      3.139      4.938
REMARK  Name = 
REMARK  8 active torsions:
REMARK  status: ('A' for Active; 'I' for Inactive)
REMARK    1  A    between atoms: N_4  and  C_24
REMARK    2  A    between atoms: C_7  and  C_8
REMARK    3  A    between atoms: C_10  and  N_11
REMARK    4  A    between atoms: C_12  and  C_14
REMARK    5  A    between atoms: C_14  and  C_15
REMARK    6  A    between atoms: C_15  and  C_18
REMARK    7  A    between atoms: C_18  and  C_19
REMARK    8  A    between atoms: C_27  and  C_30
REMARK                            x       y       z     vdW  Elec       q    Type
REMARK                         _______ _______ _______ _____ _____    ______ ____
ROOT
ATOM      1  C   UNL     1      -2.602  -1.842  24.280  0.00  0.00    +0.054 C 
ATOM      2  C   UNL     1      -2.720  -1.040  24.437  0.00  0.00    +0.077 A 
ATOM      3  N   UNL     1      -3.448  -0.671  24.551  0.00  0.00    -0.170 NA
ATOM      4  N   UNL     1      -3.308   0.130  24.693  0.00  0.00    -0.234 N 
ATOM      5  C   UNL     1      -2.493   0.256  24.665  0.00  0.00    +0.058 A 
ATOM      6  C   UNL     1      -2.110   0.978  24.776  0.00  0.00    +0.052 C 
ATOM      7  C   UNL     1      -2.129  -0.468  24.507  0.00  0.00    +0.010 A 
ENDROOT
BRANCH   4  24
ATOM     24  C   UNL     1      -3.883   0.705  24.836  0.00  0.00    +0.082 A 
ATOM     25  C   UNL     1      -3.918   1.379  24.362  0.00  0.00    +0.019 A 
ATOM     26  C   UNL     1      -4.493   1.954  24.505  0.00  0.00    -0.003 A 
ATOM     27  C   UNL     1      -5.030   1.855  25.122  0.00  0.00    -0.023 A 
ATOM     28  C   UNL     1      -4.995   1.181  25.597  0.00  0.00    -0.003 A 
ATOM     29  C   UNL     1      -4.420   0.606  25.453  0.00  0.00    +0.019 A 
BRANCH  27  30
ATOM     30  C   UNL     1      -5.605   2.430  25.265  0.00  0.00    +0.019 C 
ATOM     31  C   UNL     1      -6.179   3.004  25.408  0.00  0.00    +0.004 C 
ATOM     32  C   UNL     1      -5.028   2.928  25.582  0.00  0.00    +0.004 C 
ATOM     33  C   UNL     1      -6.181   1.932  24.949  0.00  0.00    +0.004 C 
ENDBRANCH  27  30
ENDBRANCH   4  24
BRANCH   7   8
ATOM      8  C   UNL     1      -1.317  -0.595  24.433  0.00  0.00    +0.048 C 
ATOM      9  C   UNL     1      -0.880  -0.546  23.736  0.00  0.00    +0.035 C 
ATOM     10  C   UNL     1      -0.093  -0.714  23.916  0.00  0.00    +0.118 C 
ATOM     22  C   UNL     1      -0.044  -0.869  24.725  0.00  0.00    -0.009 C 
ATOM     23  C   UNL     1      -0.800  -0.795  25.044  0.00  0.00    -0.025 C 
BRANCH  10  11
ATOM     11  N   UNL     1       0.535  -0.727  23.381  0.00  0.00    -0.203 NA
ATOM     12  C   UNL     1       1.001  -0.054  23.275  0.00  0.00    +0.242 C 
ATOM     13  O   UNL     1       0.838   0.632  23.702  0.00  0.00    -0.273 OA
BRANCH  12  14
ATOM     14  C   UNL     1       1.629  -0.068  22.740  0.00  0.00    +0.087 C 
BRANCH  14  15
ATOM     15  C   UNL     1       2.332   0.324  22.920  0.00  0.00    +0.019 C 
ATOM     16  C   UNL     1       2.709  -0.402  23.030  0.00  0.00    +0.001 C 
ATOM     17  C   UNL     1       1.956   1.050  22.810  0.00  0.00    +0.001 C 
BRANCH  15  18
ATOM     18  C   UNL     1       3.036   0.716  23.100  0.00  0.00    +0.115 C 
BRANCH  18  19
ATOM     19  C   UNL     1       3.718   0.561  22.663  0.00  0.00    +0.365 C 
ATOM     20  O   UNL     1       4.374   0.219  23.028  0.00  0.00    -0.246 OA
ATOM     21  O   UNL     1       3.744   0.749  21.860  0.00  0.00    -0.246 OA
ENDBRANCH  18  19
ENDBRANCH  15  18
ENDBRANCH  14  15
ENDBRANCH  12  14
ENDBRANCH  10  11
ENDBRANCH   7   8
TORSDOF 8
ENDMDL
MODEL 7
REMARK VINA RESULT:     -10.9      3.048      4.925
REMARK  Name = 
REMARK  8 active torsions:
REMARK  status: ('A' for Active; 'I' for Inactive)
REMARK    1  A    between atoms: N_4  and  C_24
REMARK    2  A    between atoms: C_7  and  C_8
REMARK    3  A    between atoms: C_10  and  N_11
REMARK    4  A    between atoms: C_12  and  C_14
REMARK    5  A    between atoms: C_14  and  C_15
REMARK    6  A    between atoms: C_15  and  C_18
REMARK    7  A    between atoms: C_18  and  C_19
REMARK    8  A    between atoms: C_27  and  C_30
REMARK                            x       y       z     vdW  Elec       q    Type
REMARK                         _______ _______ _______ _____ _____    ______ ____
ROOT
ATOM      1  C   UNL     1      -1.793  -0.790  25.751  0.00  0.00    +0.054 C 
ATOM      2  C   UNL     1      -1.434  -0.478  25.076  0.00  0.00    +0.077 A 
ATOM      3  N   UNL     1      -0.625  -0.469  24.919  0.00  0.00    -0.170 NA
ATOM      4  N   UNL     1      -0.512  -0.107  24.186  0.00  0.00    -0.234 N 
ATOM      5  C   UNL     1      -1.252   0.108  23.891  0.00  0.00    +0.058 A 
ATOM      6  C   UNL     1      -1.397   0.487  23.172  0.00  0.00    +0.052 C 
ATOM      7  C   UNL     1      -1.823  -0.121  24.442  0.00  0.00    +0.010 A 
ENDROOT
BRANCH   4  24
ATOM     24  C   UNL     1       0.213   0.019  23.813  0.00  0.00    +0.082 A 
ATOM     25  C   UNL     1       0.614   0.731  23.922  0.00  0.00    +0.019 A 
ATOM     26  C   UNL     1       1.340   0.856  23.549  0.00  0.00    -0.003 A 
ATOM     27  C   UNL     1       1.663   0.271  23.068  0.00  0.00    -0.023 A 
ATOM     28  C   UNL     1       1.262  -0.442  22.958  0.00  0.00    -0.003 A 
ATOM     29  C   UNL     1       0.536  -0.568  23.331  0.00  0.00    +0.019 A 
BRANCH  27  30
ATOM     30  C   UNL     1       2.389   0.396  22.695  0.00  0.00    +0.019 C 
ATOM     31  C   UNL     1       3.114   0.522  22.323  0.00  0.00    +0.004 C 
ATOM     32  C   UNL     1       2.165  -0.115  22.087  0.00  0.00    +0.004 C 
ATOM     33  C   UNL     1       2.612   0.907  23.303  0.00  0.00    +0.004 C 
ENDBRANCH  27  30
ENDBRANCH   4  24
BRANCH   7   8
ATOM      8  C   UNL     1      -2.637  -0.012  24.369  0.00  0.00    +0.048 C 
ATOM      9  C   UNL     1      -3.031   0.711  24.360  0.00  0.00    +0.035 C 
ATOM     10  C   UNL     1      -3.838   0.562  24.278  0.00  0.00    +0.118 C 
ATOM     22  C   UNL     1      -3.943  -0.256  24.237  0.00  0.00    -0.009 C 
ATOM     23  C   UNL     1      -3.201  -0.610  24.294  0.00  0.00    -0.025 C 
BRANCH  10  11
ATOM     11  N   UNL     1      -4.436   1.129  24.244  0.00  0.00    -0.203 NA
ATOM     12  C   UNL     1      -4.870   1.314  24.920  0.00  0.00    +0.242 C 
ATOM     13  O   UNL     1      -4.706   0.932  25.633  0.00  0.00    -0.273 OA
BRANCH  12  14
ATOM     14  C   UNL     1      -5.468   1.882  24.885  0.00  0.00    +0.087 C 
BRANCH  14  15
ATOM     15  C   UNL     1      -5.471   2.513  25.416  0.00  0.00    +0.019 C 
ATOM     16  C   UNL     1      -4.982   2.942  24.908  0.00  0.00    +0.001 C 
ATOM     17  C   UNL     1      -5.959   2.084  25.924  0.00  0.00    +0.001 C 
BRANCH  15  18
ATOM     18  C   UNL     1      -5.473   3.144  25.947  0.00  0.00    +0.115 C 
BRANCH  18  19
ATOM     19  C   UNL     1      -5.561   3.916  25.670  0.00  0.00    +0.365 C 
ATOM     20  O   UNL     1      -6.309   4.263  25.647  0.00  0.00    -0.246 OA
ATOM     21  O   UNL     1      -4.901   4.341  25.416  0.00  0.00    -0.246 OA
ENDBRANCH  18  19
ENDBRANCH  15  18
ENDBRANCH  14  15
ENDBRANCH  12  14
ENDBRANCH  10  11
ENDBRANCH   7   8
TORSDOF 8
ENDMDL
MODEL 8
REMARK VINA RESULT:     -10.6      3.011      4.996
REMARK  Name = 
REMARK  8 active torsions:
REMARK  status: ('A' for Active; 'I' for Inactive)
REMARK    1  A    between atoms: N_4  and  C_24
REMARK    2  A    between atoms: C_7  and  C_8
REMARK    3  A    between atoms: C_10  and  N_11
REMARK    4  A    between atoms: C_12  and  C_14
REMARK    5  A    between atoms: C_14  and  C_15
REMARK    6  A    between atoms: C_15  and  C_18
REMARK    7  A    between atoms: C_18  and  C_19
REMARK    8  A    between atoms: C_27  and  C_30
REMARK                            x       y       z     vdW  Elec       q    Type
REMARK                         _______ _______ _______ _____ _____    ______ ____
ROOT
ATOM      1  C   UNL     1      -0.211   2.713  26.617  0.00  0.00    +0.054 C 
ATOM      2  C   UNL     1      -0.174   2.472  25.828  0.00  0.00    +0.077 A 
ATOM      3  N   UNL     1       0.400   1.982  25.497  0.00  0.00    -0.170 NA
ATOM      4  N   UNL     1       0.225   1.887  24.697  0.00  0.00    -0.234 N 
ATOM      5  C   UNL     1      -0.459   2.319  24.533  0.00  0.00    +0.058 A 
ATOM      6  C   UNL     1      -0.831   2.379  23.798  0.00  0.00    +0.052 C 
ATOM      7  C   UNL     1      -0.705   2.681  25.232  0.00  0.00    +0.010 A 
ENDROOT
BRANCH   4  24
ATOM     24  C   UNL     1       0.656   1.439  24.155  0.00  0.00    +0.082 A 
ATOM     25  C   UNL     1       0.372   0.704  23.910  0.00  0.00    +0.019 A 
ATOM     26  C   UNL     1       0.804   0.256  23.368  0.00  0.00    -0.003 A 
ATOM     27  C   UNL     1       1.518   0.542  23.071  0.00  0.00    -0.023 A 
ATOM     28  C   UNL     1       1.802   1.277  23.317  0.00  0.00    -0.003 A 
ATOM     29  C   UNL     1       1.370   1.726  23.859  0.00  0.00    +0.019 A 
BRANCH  27  30
ATOM     30  C   UNL     1       1.950   0.093  22.529  0.00  0.00    +0.019 C 
ATOM     31  C   UNL     1       2.382  -0.355  21.988  0.00  0.00    +0.004 C 
ATOM     32  C   UNL     1       1.256  -0.283  22.287  0.00  0.00    +0.004 C 
ATOM     33  C   UNL     1       2.643   0.469  22.771  0.00  0.00    +0.004 C 
ENDBRANCH  27  30
ENDBRANCH   4  24
BRANCH   7   8
ATOM      8  C   UNL     1      -1.367   3.167  25.319  0.00  0.00    +0.048 C 
ATOM      9  C   UNL     1      -2.132   2.917  25.499  0.00  0.00    +0.035 C 
ATOM     10  C   UNL     1      -2.616   3.583  25.532  0.00  0.00    +0.118 C 
ATOM     22  C   UNL     1      -2.150   4.245  25.373  0.00  0.00    -0.009 C 
ATOM     23  C   UNL     1      -1.379   3.988  25.242  0.00  0.00    -0.025 C 
BRANCH  10  11
ATOM     11  N   UNL     1      -3.425   3.588  25.696  0.00  0.00    -0.203 NA
ATOM     12  C   UNL     1      -3.964   3.341  25.122  0.00  0.00    +0.242 C 
ATOM     13  O   UNL     1      -3.696   3.089  24.384  0.00  0.00    -0.273 OA
BRANCH  12  14
ATOM     14  C   UNL     1      -4.773   3.346  25.287  0.00  0.00    +0.087 C 
BRANCH  14  15
ATOM     15  C   UNL     1      -5.194   2.637  25.308  0.00  0.00    +0.019 C 
ATOM     16  C   UNL     1      -5.093   2.552  24.494  0.00  0.00    +0.001 C 
ATOM     17  C   UNL     1      -5.295   2.722  26.123  0.00  0.00    +0.001 C 
BRANCH  15  18
ATOM     18  C   UNL     1      -5.615   1.929  25.330  0.00  0.00    +0.115 C 
BRANCH  18  19
ATOM     19  C   UNL     1      -6.426   1.935  25.486  0.00  0.00    +0.365 C 
ATOM     20  O   UNL     1      -6.696   1.903  26.265  0.00  0.00    -0.246 OA
ATOM     21  O   UNL     1      -6.965   1.972  24.863  0.00  0.00    -0.246 OA
ENDBRANCH  18  19
ENDBRANCH  15  18
ENDBRANCH  14  15
ENDBRANCH  12  14
ENDBRANCH  10  11
ENDBRANCH   7   8
TORSDOF 8
ENDMDL
