MODEL 1
REMARK VINA RESULT:      -9.6      0.000      0.000
REMARK  Name = 
REMARK  6 active torsions:
REMARK  status: ('A' for Active; 'I' for Inactive)
REMARK    1  A    between atoms: C_3  and  N_16
REMARK    2  A    between atoms: C_6  and  C_7
REMARK    3  A    between atoms: C_7  and  N_8
REMARK    4  A    between atoms: C_9  and  C_11
REMARK    5  A    between atoms: N_16  and  C_17
REMARK    6  A    between atoms: C_17  and  C_18
REMARK                            x       y       z     vdW  Elec       q    Type
REMARK                         _______ _______ _______ _____ _____    ______ ____
ROOT
ATOM      1  O   UNL     1      -1.136   0.277  25.268  0.00  0.00    -0.219 OA
ATOM      2  C   UNL     1      -1.842   0.677  25.116  0.00  0.00    +0.199 C 
ATOM      3  C   UNL     1      -2.564   0.329  24.923  0.00  0.00    +0.135 C 
ATOM      4  C   UNL     1      -3.117   0.932  24.818  0.00  0.00    +0.162 C 
ATOM      5  O   UNL     1      -2.736   1.653  24.946  0.00  0.00    -0.350 OA
ATOM      6  C   UNL     1      -1.948   1.495  25.130  0.00  0.00    +0.169 C 
ENDROOT
BRANCH   6   7
ATOM      7  C   UNL     1      -1.368   2.056  25.299  0.00  0.00    +0.148 C 
BRANCH   7   8
ATOM      8  N   UNL     1      -1.501   2.852  25.125  0.00  0.00    -0.199 NA
ATOM      9  C   UNL     1      -0.958   3.424  25.369  0.00  0.00    +0.271 C 
ATOM     10  O   UNL     1      -0.283   3.200  25.787  0.00  0.00    -0.268 OA
BRANCH   9  11
ATOM     11  C   UNL     1      -1.091   4.219  25.195  0.00  0.00    +0.084 A 
ATOM     12  C   UNL     1      -1.735   4.670  25.447  0.00  0.00    +0.012 A 
ATOM     13  C   UNL     1      -1.645   5.432  25.146  0.00  0.00    +0.008 A 
ATOM     14  C   UNL     1      -0.946   5.453  24.708  0.00  0.00    +0.036 A 
ATOM     15  S   UNL     1      -0.604   4.704  24.739  0.00  0.00    -0.082 S 
ENDBRANCH   9  11
ENDBRANCH   7   8
ENDBRANCH   6   7
BRANCH   3  16
ATOM     16  N   UNL     1      -2.709  -0.480  24.849  0.00  0.00    -0.209 NA
BRANCH  16  17
ATOM     17  C   UNL     1      -3.450  -0.746  24.603  0.00  0.00    +0.117 C 
BRANCH  17  18
ATOM     18  C   UNL     1      -3.587  -1.553  24.503  0.00  0.00    +0.023 A 
ATOM     19  C   UNL     1      -3.218  -2.099  24.999  0.00  0.00    -0.001 A 
ATOM     20  C   UNL     1      -3.355  -2.906  24.899  0.00  0.00    -0.000 A 
ATOM     21  C   UNL     1      -3.860  -3.167  24.302  0.00  0.00    +0.002 A 
ATOM     22  C   UNL     1      -4.229  -2.622  23.805  0.00  0.00    +0.029 A 
ATOM     23  C   UNL     1      -4.092  -1.814  23.906  0.00  0.00    +0.137 A 
ATOM     24  F   UNL     1      -4.461  -1.269  23.409  0.00  0.00    -0.204 F 
ENDBRANCH  17  18
ENDBRANCH  16  17
ENDBRANCH   3  16
TORSDOF 6
ENDMDL
MODEL 2
REMARK VINA RESULT:      -9.4      1.411      1.584
REMARK  Name = 
REMARK  6 active torsions:
REMARK  status: ('A' for Active; 'I' for Inactive)
REMARK    1  A    between atoms: C_3  and  N_16
REMARK    2  A    between atoms: C_6  and  C_7
REMARK    3  A    between atoms: C_7  and  N_8
REMARK    4  A    between atoms: C_9  and  C_11
REMARK    5  A    between atoms: N_16  and  C_17
REMARK    6  A    between atoms: C_17  and  C_18
REMARK                            x       y       z     vdW  Elec       q    Type
REMARK                         _______ _______ _______ _____ _____    ______ ____
ROOT
ATOM      1  O   UNL     1      -4.087   1.217  25.434  0.00  0.00    -0.219 OA
ATOM      2  C   UNL     1      -3.683   1.300  24.719  0.00  0.00    +0.199 C 
ATOM      3  C   UNL     1      -3.555   0.706  24.162  0.00  0.00    +0.135 C 
ATOM      4  C   UNL     1      -3.129   1.031  23.535  0.00  0.00    +0.162 C 
ATOM      5  O   UNL     1      -2.994   1.827  23.705  0.00  0.00    -0.350 OA
ATOM      6  C   UNL     1      -3.336   1.994  24.436  0.00  0.00    +0.169 C 
ENDROOT
BRANCH   6   7
ATOM      7  C   UNL     1      -3.332   2.725  24.817  0.00  0.00    +0.148 C 
BRANCH   7   8
ATOM      8  N   UNL     1      -2.679   3.224  24.745  0.00  0.00    -0.199 NA
ATOM      9  C   UNL     1      -2.620   3.897  25.219  0.00  0.00    +0.271 C 
ATOM     10  O   UNL     1      -3.213   4.069  25.766  0.00  0.00    -0.268 OA
BRANCH   9  11
ATOM     11  C   UNL     1      -1.967   4.396  25.147  0.00  0.00    +0.084 A 
ATOM     12  C   UNL     1      -1.990   5.219  25.085  0.00  0.00    +0.012 A 
ATOM     13  C   UNL     1      -1.215   5.492  25.023  0.00  0.00    +0.008 A 
ATOM     14  C   UNL     1      -0.712   4.838  25.047  0.00  0.00    +0.036 A 
ATOM     15  S   UNL     1      -1.177   4.162  25.123  0.00  0.00    -0.082 S 
ENDBRANCH   9  11
ENDBRANCH   7   8
ENDBRANCH   6   7
BRANCH   3  16
ATOM     16  N   UNL     1      -3.809  -0.078  24.222  0.00  0.00    -0.209 NA
BRANCH  16  17
ATOM     17  C   UNL     1      -3.256  -0.688  24.275  0.00  0.00    +0.117 C 
BRANCH  17  18
ATOM     18  C   UNL     1      -3.506  -1.473  24.267  0.00  0.00    +0.023 A 
ATOM     19  C   UNL     1      -4.174  -1.690  23.834  0.00  0.00    -0.001 A 
ATOM     20  C   UNL     1      -4.424  -2.475  23.825  0.00  0.00    -0.000 A 
ATOM     21  C   UNL     1      -4.006  -3.045  24.250  0.00  0.00    +0.002 A 
ATOM     22  C   UNL     1      -3.338  -2.830  24.683  0.00  0.00    +0.029 A 
ATOM     23  C   UNL     1      -3.088  -2.044  24.692  0.00  0.00    +0.137 A 
ATOM     24  F   UNL     1      -2.420  -1.828  25.125  0.00  0.00    -0.204 F 
ENDBRANCH  17  18
ENDBRANCH  16  17
ENDBRANCH   3  16
TORSDOF 6
ENDMDL
MODEL 3
REMARK VINA RESULT:      -9.2      2.243      5.999
REMARK  Name = 
REMARK  6 active torsions:
REMARK  status: ('A' for Active; 'I' for Inactive)
REMARK    1  A    between atoms: C_3  and  N_16
REMARK    2  A    between atoms: C_6  and  C_7
REMARK    3  A    between atoms: C_7  and  N_8
REMARK    4  A    between atoms: C_9  and  C_11
REMARK    5  A    between atoms: N_16  and  C_17
REMARK    6  A    between atoms: C_17  and  C_18
REMARK                            x       y       z     vdW  Elec       q    Type
REMARK                         _______ _______ _______ _____ _____    ______ ____
ROOT
ATOM      1  O   UNL     1      -3.868   2.087  24.255  0.00  0.00    -0.219 OA
ATOM      2  C   UNL     1      -3.216   1.703  24.582  0.00  0.00    +0.199 C 
ATOM      3  C   UNL     1      -2.530   2.065  24.863  0.00  0.00    +0.135 C 
ATOM      4  C   UNL     1      -2.025   1.475  25.140  0.00  0.00    +0.162 C 
ATOM      5  O   UNL     1      -2.399   0.747  25.029  0.00  0.00    -0.350 OA
ATOM      6  C   UNL     1      -3.134   0.888  24.685  0.00  0.00    +0.169 C 
ENDROOT
BRANCH   6   7
ATOM      7  C   UNL     1      -3.690   0.315  24.479  0.00  0.00    +0.148 C 
BRANCH   7   8
ATOM      8  N   UNL     1      -3.490  -0.484  24.508  0.00  0.00    -0.199 NA
ATOM      9  C   UNL     1      -4.061  -1.060  24.356  0.00  0.00    +0.271 C 
ATOM     10  O   UNL     1      -4.834  -0.835  24.174  0.00  0.00    -0.268 OA
BRANCH   9  11
ATOM     11  C   UNL     1      -3.861  -1.859  24.386  0.00  0.00    +0.084 A 
ATOM     12  C   UNL     1      -4.046  -2.428  23.817  0.00  0.00    +0.012 A 
ATOM     13  C   UNL     1      -3.739  -3.150  24.069  0.00  0.00    +0.008 A 
ATOM     14  C   UNL     1      -3.364  -3.029  24.794  0.00  0.00    +0.036 A 
ATOM     15  S   UNL     1      -3.439  -2.232  24.989  0.00  0.00    -0.082 S 
ENDBRANCH   9  11
ENDBRANCH   7   8
ENDBRANCH   6   7
BRANCH   3  16
ATOM     16  N   UNL     1      -2.377   2.876  24.867  0.00  0.00    -0.209 NA
BRANCH  16  17
ATOM     17  C   UNL     1      -1.627   3.153  25.070  0.00  0.00    +0.117 C 
BRANCH  17  18
ATOM     18  C   UNL     1      -1.464   3.961  25.043  0.00  0.00    +0.023 A 
ATOM     19  C   UNL     1      -2.015   4.504  25.331  0.00  0.00    -0.001 A 
ATOM     20  C   UNL     1      -1.852   5.311  25.303  0.00  0.00    -0.000 A 
ATOM     21  C   UNL     1      -1.138   5.577  24.987  0.00  0.00    +0.002 A 
ATOM     22  C   UNL     1      -0.587   5.036  24.699  0.00  0.00    +0.029 A 
ATOM     23  C   UNL     1      -0.750   4.227  24.726  0.00  0.00    +0.137 A 
ATOM     24  F   UNL     1      -0.199   3.685  24.438  0.00  0.00    -0.204 F 
ENDBRANCH  17  18
ENDBRANCH  16  17
ENDBRANCH   3  16
TORSDOF 6
ENDMDL
MODEL 4
REMARK VINA RESULT:      -9.2      2.262      5.753
REMARK  Name = 
REMARK  6 active torsions:
REMARK  status: ('A' for Active; 'I' for Inactive)
REMARK    1  A    between atoms: C_3  and  N_16
REMARK    2  A    between atoms: C_6  and  C_7
REMARK    3  A    between atoms: C_7  and  N_8
REMARK    4  A    between atoms: C_9  and  C_11
REMARK    5  A    between atoms: N_16  and  C_17
REMARK    6  A    between atoms: C_17  and  C_18
REMARK                            x       y       z     vdW  Elec       q    Type
REMARK                         _______ _______ _______ _____ _____    ______ ____
ROOT
ATOM      1  O   UNL     1      -1.133   1.189  23.763  0.00  0.00    -0.219 OA
ATOM      2  C   UNL     1      -1.082   1.066  24.577  0.00  0.00    +0.199 C 
ATOM      3  C   UNL     1      -0.987   1.650  25.151  0.00  0.00    +0.135 C 
ATOM      4  C   UNL     1      -0.963   1.282  25.888  0.00  0.00    +0.162 C 
ATOM      5  O   UNL     1      -1.043   0.469  25.770  0.00  0.00    -0.350 OA
ATOM      6  C   UNL     1      -1.117   0.335  24.960  0.00  0.00    +0.169 C 
ENDROOT
BRANCH   6   7
ATOM      7  C   UNL     1      -1.209  -0.399  24.597  0.00  0.00    +0.148 C 
BRANCH   7   8
ATOM      8  N   UNL     1      -1.945  -0.772  24.601  0.00  0.00    -0.199 NA
ATOM      9  C   UNL     1      -2.005  -1.568  24.394  0.00  0.00    +0.271 C 
ATOM     10  O   UNL     1      -1.329  -1.991  24.183  0.00  0.00    -0.268 OA
BRANCH   9  11
ATOM     11  C   UNL     1      -2.741  -1.941  24.399  0.00  0.00    +0.084 A 
ATOM     12  C   UNL     1      -3.446  -1.626  24.107  0.00  0.00    +0.012 A 
ATOM     13  C   UNL     1      -4.041  -2.185  24.224  0.00  0.00    +0.008 A 
ATOM     14  C   UNL     1      -3.705  -2.844  24.587  0.00  0.00    +0.036 A 
ATOM     15  S   UNL     1      -2.902  -2.694  24.695  0.00  0.00    -0.082 S 
ENDBRANCH   9  11
ENDBRANCH   7   8
ENDBRANCH   6   7
BRANCH   3  16
ATOM     16  N   UNL     1      -0.926   2.461  25.012  0.00  0.00    -0.209 NA
BRANCH  16  17
ATOM     17  C   UNL     1      -1.272   2.997  25.535  0.00  0.00    +0.117 C 
BRANCH  17  18
ATOM     18  C   UNL     1      -1.293   3.800  25.350  0.00  0.00    +0.023 A 
ATOM     19  C   UNL     1      -0.661   4.149  24.950  0.00  0.00    -0.001 A 
ATOM     20  C   UNL     1      -0.683   4.952  24.765  0.00  0.00    -0.000 A 
ATOM     21  C   UNL     1      -1.336   5.407  24.979  0.00  0.00    +0.002 A 
ATOM     22  C   UNL     1      -1.969   5.059  25.378  0.00  0.00    +0.029 A 
ATOM     23  C   UNL     1      -1.947   4.256  25.563  0.00  0.00    +0.137 A 
ATOM     24  F   UNL     1      -2.580   3.908  25.963  0.00  0.00    -0.204 F 
ENDBRANCH  17  18
ENDBRANCH  16  17
ENDBRANCH   3  16
TORSDOF 6
ENDMDL
MODEL 5
REMARK VINA RESULT:      -6.9     16.111     18.435
REMARK  Name = 
REMARK  6 active torsions:
REMARK  status: ('A' for Active; 'I' for Inactive)
REMARK    1  A    between atoms: C_3  and  N_16
REMARK    2  A    between atoms: C_6  and  C_7
REMARK    3  A    between atoms: C_7  and  N_8
REMARK    4  A    between atoms: C_9  and  C_11
REMARK    5  A    between atoms: N_16  and  C_17
REMARK    6  A    between atoms: C_17  and  C_18
REMARK                            x       y       z     vdW  Elec       q    Type
REMARK                         _______ _______ _______ _____ _____    ______ ____
ROOT
ATOM      1  O   UNL     1      13.131   6.665  19.495  0.00  0.00    -0.219 OA
ATOM      2  C   UNL     1      13.335   7.438  19.293  0.00  0.00    +0.199 C 
ATOM      3  C   UNL     1      14.076   7.694  19.039  0.00  0.00    +0.135 C 
ATOM      4  C   UNL     1      14.032   8.505  18.898  0.00  0.00    +0.162 C 
ATOM      5  O   UNL     1      13.262   8.751  19.065  0.00  0.00    -0.350 OA
ATOM      6  C   UNL     1      12.831   8.092  19.309  0.00  0.00    +0.169 C 
ENDROOT
BRANCH   6   7
ATOM      7  C   UNL     1      12.037   8.087  19.530  0.00  0.00    +0.148 C 
BRANCH   7   8
ATOM      8  N   UNL     1      11.828   8.213  20.318  0.00  0.00    -0.199 NA
ATOM      9  C   UNL     1      11.032   8.259  20.532  0.00  0.00    +0.271 C 
ATOM     10  O   UNL     1      10.446   8.180  19.956  0.00  0.00    -0.268 OA
BRANCH   9  11
ATOM     11  C   UNL     1      10.822   8.385  21.320  0.00  0.00    +0.084 A 
ATOM     12  C   UNL     1      10.901   9.094  21.736  0.00  0.00    +0.012 A 
ATOM     13  C   UNL     1      10.625   8.971  22.503  0.00  0.00    +0.008 A 
ATOM     14  C   UNL     1      10.376   8.187  22.561  0.00  0.00    +0.036 A 
ATOM     15  S   UNL     1      10.497   7.825  21.831  0.00  0.00    -0.082 S 
ENDBRANCH   9  11
ENDBRANCH   7   8
ENDBRANCH   6   7
BRANCH   3  16
ATOM     16  N   UNL     1      14.746   7.221  18.943  0.00  0.00    -0.209 NA
BRANCH  16  17
ATOM     17  C   UNL     1      15.401   7.328  19.433  0.00  0.00    +0.117 C 
BRANCH  17  18
ATOM     18  C   UNL     1      16.069   6.854  19.338  0.00  0.00    +0.023 A 
ATOM     19  C   UNL     1      16.101   6.303  18.725  0.00  0.00    -0.001 A 
ATOM     20  C   UNL     1      16.769   5.829  18.630  0.00  0.00    -0.000 A 
ATOM     21  C   UNL     1      17.405   5.905  19.149  0.00  0.00    +0.002 A 
ATOM     22  C   UNL     1      17.374   6.456  19.763  0.00  0.00    +0.029 A 
ATOM     23  C   UNL     1      16.705   6.930  19.857  0.00  0.00    +0.137 A 
ATOM     24  F   UNL     1      16.674   7.481  20.471  0.00  0.00    -0.204 F 
ENDBRANCH  17  18
ENDBRANCH  16  17
ENDBRANCH   3  16
TORSDOF 6
ENDMDL
