MODEL 1
REMARK VINA RESULT:     -11.9      0.000      0.000
REMARK  Name = 
REMARK  4 active torsions:
REMARK  status: ('A' for Active; 'I' for Inactive)
REMARK    1  A    between atoms: C_2  and  C_26
REMARK    2  A    between atoms: C_8  and  C_9
REMARK    3  A    between atoms: C_11  and  C_14
REMARK    4  A    between atoms: C_29  and  C_32
REMARK                            x       y       z     vdW  Elec       q    Type
REMARK                         _______ _______ _______ _____ _____    ______ ____
ROOT
ATOM      1  O   UNL     1      -2.838   1.753  24.435  0.00  0.00    -0.270 OA
ATOM      2  C   UNL     1      -3.112   2.476  24.724  0.00  0.00    +0.250 C 
ATOM      3  N   UNL     1      -3.902   2.559  24.944  0.00  0.00    -0.263 N 
ATOM      4  C   UNL     1      -4.177   3.281  25.234  0.00  0.00    +0.141 C 
ATOM      5  C   UNL     1      -4.967   3.364  25.454  0.00  0.00    +0.094 A 
ATOM      6  C   UNL     1      -5.484   2.725  25.384  0.00  0.00    +0.078 A 
ATOM      7  C   UNL     1      -5.210   2.002  25.094  0.00  0.00    +0.077 C 
ATOM      8  C   UNL     1      -4.420   1.919  24.875  0.00  0.00    +0.161 C 
ATOM     23  N   UNL     1      -6.229   2.970  25.642  0.00  0.00    -0.227 NA
ATOM     24  C   UNL     1      -6.172   3.760  25.872  0.00  0.00    +0.198 A 
ATOM     25  N   UNL     1      -5.392   4.004  25.755  0.00  0.00    -0.225 NA
ENDROOT
BRANCH   2  26
ATOM     26  C   UNL     1      -2.595   3.114  24.794  0.00  0.00    +0.054 A 
ATOM     27  C   UNL     1      -2.542   3.670  24.186  0.00  0.00    +0.005 A 
ATOM     28  C   UNL     1      -2.024   4.309  24.257  0.00  0.00    +0.010 A 
ATOM     29  C   UNL     1      -1.561   4.392  24.933  0.00  0.00    +0.068 A 
ATOM     30  C   UNL     1      -1.614   3.836  25.541  0.00  0.00    +0.010 A 
ATOM     31  C   UNL     1      -2.131   3.198  25.470  0.00  0.00    +0.005 A 
BRANCH  29  32
ATOM     32  C   UNL     1      -1.043   5.032  25.003  0.00  0.00    +0.100 C 
ATOM     33  N   UNL     1      -0.526   5.671  25.071  0.00  0.00    -0.191 NA
ENDBRANCH  29  32
ENDBRANCH   2  26
BRANCH   8   9
ATOM      9  C   UNL     1      -4.146   1.197  24.585  0.00  0.00    +0.255 A 
ATOM     10  N   UNL     1      -4.130   0.483  24.998  0.00  0.00    -0.189 NA
ATOM     11  C   UNL     1      -3.814  -0.094  24.501  0.00  0.00    +0.203 A 
ATOM     12  N   UNL     1      -3.634   0.263  23.779  0.00  0.00    -0.056 NA
ATOM     13  O   UNL     1      -3.839   1.061  23.832  0.00  0.00    -0.335 OA
BRANCH  11  14
ATOM     14  C   UNL     1      -3.698  -0.887  24.691  0.00  0.00    +0.042 A 
ATOM     15  C   UNL     1      -3.875  -1.474  24.140  0.00  0.00    +0.043 A 
ATOM     16  C   UNL     1      -3.759  -2.268  24.330  0.00  0.00    +0.177 A 
ATOM     17  C   UNL     1      -3.466  -2.476  25.073  0.00  0.00    +0.176 A 
ATOM     18  O   UNL     1      -3.409  -3.298  25.104  0.00  0.00    -0.435 OA
ATOM     19  C   UNL     1      -3.666  -3.599  24.380  0.00  0.00    +0.429 C 
ATOM     20  O   UNL     1      -3.883  -2.962  23.903  0.00  0.00    -0.435 OA
ATOM     21  C   UNL     1      -3.289  -1.889  25.625  0.00  0.00    +0.040 A 
ATOM     22  C   UNL     1      -3.405  -1.095  25.434  0.00  0.00    +0.006 A 
ENDBRANCH  11  14
ENDBRANCH   8   9
TORSDOF 4
ENDMDL
MODEL 2
REMARK VINA RESULT:     -10.5      2.839      6.346
REMARK  Name = 
REMARK  4 active torsions:
REMARK  status: ('A' for Active; 'I' for Inactive)
REMARK    1  A    between atoms: C_2  and  C_26
REMARK    2  A    between atoms: C_8  and  C_9
REMARK    3  A    between atoms: C_11  and  C_14
REMARK    4  A    between atoms: C_29  and  C_32
REMARK                            x       y       z     vdW  Elec       q    Type
REMARK                         _______ _______ _______ _____ _____    ______ ____
ROOT
ATOM      1  O   UNL     1      -1.594   0.804  25.369  0.00  0.00    -0.270 OA
ATOM      2  C   UNL     1      -1.370   0.184  24.872  0.00  0.00    +0.250 C 
ATOM      3  N   UNL     1      -0.687   0.248  24.415  0.00  0.00    -0.263 N 
ATOM      4  C   UNL     1      -0.463  -0.371  23.918  0.00  0.00    +0.141 C 
ATOM      5  C   UNL     1       0.221  -0.307  23.461  0.00  0.00    +0.094 A 
ATOM      6  C   UNL     1       0.681   0.376  23.500  0.00  0.00    +0.078 A 
ATOM      7  C   UNL     1       0.457   0.996  23.997  0.00  0.00    +0.077 C 
ATOM      8  C   UNL     1      -0.226   0.932  24.454  0.00  0.00    +0.161 C 
ATOM     23  N   UNL     1       1.321   0.282  22.988  0.00  0.00    -0.227 NA
ATOM     24  C   UNL     1       1.257  -0.459  22.633  0.00  0.00    +0.198 A 
ATOM     25  N   UNL     1       0.577  -0.824  22.926  0.00  0.00    -0.225 NA
ENDROOT
BRANCH   2  26
ATOM     26  C   UNL     1      -1.830  -0.499  24.833  0.00  0.00    +0.054 A 
ATOM     27  C   UNL     1      -1.619  -1.165  25.274  0.00  0.00    +0.005 A 
ATOM     28  C   UNL     1      -2.080  -1.848  25.234  0.00  0.00    +0.010 A 
ATOM     29  C   UNL     1      -2.750  -1.867  24.755  0.00  0.00    +0.068 A 
ATOM     30  C   UNL     1      -2.961  -1.201  24.315  0.00  0.00    +0.010 A 
ATOM     31  C   UNL     1      -2.501  -0.518  24.354  0.00  0.00    +0.005 A 
BRANCH  29  32
ATOM     32  C   UNL     1      -3.211  -2.551  24.716  0.00  0.00    +0.100 C 
ATOM     33  N   UNL     1      -3.670  -3.234  24.676  0.00  0.00    -0.191 NA
ENDBRANCH  29  32
ENDBRANCH   2  26
BRANCH   8   9
ATOM      9  C   UNL     1      -0.450   1.552  24.951  0.00  0.00    +0.255 A 
ATOM     10  N   UNL     1      -0.798   2.262  24.714  0.00  0.00    -0.189 NA
ATOM     11  C   UNL     1      -0.929   2.719  25.387  0.00  0.00    +0.203 A 
ATOM     12  N   UNL     1      -0.663   2.292  26.042  0.00  0.00    -0.056 NA
ATOM     13  O   UNL     1      -0.367   1.571  25.771  0.00  0.00    -0.335 OA
BRANCH  11  14
ATOM     14  C   UNL     1      -1.267   3.471  25.404  0.00  0.00    +0.042 A 
ATOM     15  C   UNL     1      -0.865   4.112  25.077  0.00  0.00    +0.043 A 
ATOM     16  C   UNL     1      -1.202   4.864  25.094  0.00  0.00    +0.177 A 
ATOM     17  C   UNL     1      -1.943   4.976  25.439  0.00  0.00    +0.176 A 
ATOM     18  O   UNL     1      -2.137   5.775  25.375  0.00  0.00    -0.435 OA
ATOM     19  C   UNL     1      -1.516   6.157  24.990  0.00  0.00    +0.429 C 
ATOM     20  O   UNL     1      -0.939   5.595  24.817  0.00  0.00    -0.435 OA
ATOM     21  C   UNL     1      -2.347   4.334  25.767  0.00  0.00    +0.040 A 
ATOM     22  C   UNL     1      -2.008   3.582  25.749  0.00  0.00    +0.006 A 
ENDBRANCH  11  14
ENDBRANCH   8   9
TORSDOF 4
ENDMDL
MODEL 3
REMARK VINA RESULT:     -10.3      3.093      4.595
REMARK  Name = 
REMARK  4 active torsions:
REMARK  status: ('A' for Active; 'I' for Inactive)
REMARK    1  A    between atoms: C_2  and  C_26
REMARK    2  A    between atoms: C_8  and  C_9
REMARK    3  A    between atoms: C_11  and  C_14
REMARK    4  A    between atoms: C_29  and  C_32
REMARK                            x       y       z     vdW  Elec       q    Type
REMARK                         _______ _______ _______ _____ _____    ______ ____
ROOT
ATOM      1  O   UNL     1      -2.010   1.324  24.646  0.00  0.00    -0.270 OA
ATOM      2  C   UNL     1      -2.440   2.021  24.753  0.00  0.00    +0.250 C 
ATOM      3  N   UNL     1      -2.044   2.738  24.849  0.00  0.00    -0.263 N 
ATOM      4  C   UNL     1      -2.472   3.435  24.956  0.00  0.00    +0.141 C 
ATOM      5  C   UNL     1      -2.076   4.152  25.053  0.00  0.00    +0.094 A 
ATOM      6  C   UNL     1      -1.252   4.173  25.043  0.00  0.00    +0.078 A 
ATOM      7  C   UNL     1      -0.823   3.476  24.936  0.00  0.00    +0.077 C 
ATOM      8  C   UNL     1      -1.219   2.759  24.839  0.00  0.00    +0.161 C 
ATOM     23  N   UNL     1      -1.015   4.956  25.152  0.00  0.00    -0.227 NA
ATOM     24  C   UNL     1      -1.693   5.419  25.229  0.00  0.00    +0.198 A 
ATOM     25  N   UNL     1      -2.350   4.922  25.168  0.00  0.00    -0.225 NA
ENDROOT
BRANCH   2  26
ATOM     26  C   UNL     1      -3.264   2.000  24.763  0.00  0.00    +0.054 A 
ATOM     27  C   UNL     1      -3.664   1.847  25.468  0.00  0.00    +0.005 A 
ATOM     28  C   UNL     1      -4.490   1.827  25.478  0.00  0.00    +0.010 A 
ATOM     29  C   UNL     1      -4.913   1.958  24.783  0.00  0.00    +0.068 A 
ATOM     30  C   UNL     1      -4.513   2.111  24.077  0.00  0.00    +0.010 A 
ATOM     31  C   UNL     1      -3.689   2.131  24.068  0.00  0.00    +0.005 A 
BRANCH  29  32
ATOM     32  C   UNL     1      -5.738   1.937  24.793  0.00  0.00    +0.100 C 
ATOM     33  N   UNL     1      -6.563   1.917  24.802  0.00  0.00    -0.191 NA
ENDBRANCH  29  32
ENDBRANCH   2  26
BRANCH   8   9
ATOM      9  C   UNL     1      -0.790   2.062  24.732  0.00  0.00    +0.255 A 
ATOM     10  N   UNL     1      -0.278   1.899  24.106  0.00  0.00    -0.189 NA
ATOM     11  C   UNL     1       0.031   1.142  24.218  0.00  0.00    +0.203 A 
ATOM     12  N   UNL     1      -0.291   0.837  24.914  0.00  0.00    -0.056 NA
ATOM     13  O   UNL     1      -0.799   1.406  25.231  0.00  0.00    -0.335 OA
BRANCH  11  14
ATOM     14  C   UNL     1       0.566   0.759  23.723  0.00  0.00    +0.042 A 
ATOM     15  C   UNL     1       1.334   1.047  23.643  0.00  0.00    +0.043 A 
ATOM     16  C   UNL     1       1.870   0.663  23.147  0.00  0.00    +0.177 A 
ATOM     17  C   UNL     1       1.637  -0.010  22.731  0.00  0.00    +0.176 A 
ATOM     18  O   UNL     1       2.281  -0.270  22.286  0.00  0.00    -0.435 OA
ATOM     19  C   UNL     1       2.912   0.242  22.427  0.00  0.00    +0.429 C 
ATOM     20  O   UNL     1       2.658   0.818  22.960  0.00  0.00    -0.435 OA
ATOM     21  C   UNL     1       0.868  -0.299  22.810  0.00  0.00    +0.040 A 
ATOM     22  C   UNL     1       0.333   0.086  23.306  0.00  0.00    +0.006 A 
ENDBRANCH  11  14
ENDBRANCH   8   9
TORSDOF 4
ENDMDL
MODEL 4
REMARK VINA RESULT:     -10.1     16.026     19.197
REMARK  Name = 
REMARK  4 active torsions:
REMARK  status: ('A' for Active; 'I' for Inactive)
REMARK    1  A    between atoms: C_2  and  C_26
REMARK    2  A    between atoms: C_8  and  C_9
REMARK    3  A    between atoms: C_11  and  C_14
REMARK    4  A    between atoms: C_29  and  C_32
REMARK                            x       y       z     vdW  Elec       q    Type
REMARK                         _______ _______ _______ _____ _____    ______ ____
ROOT
ATOM      1  O   UNL     1      12.843   7.487  18.703  0.00  0.00    -0.270 OA
ATOM      2  C   UNL     1      13.636   7.495  18.474  0.00  0.00    +0.250 C 
ATOM      3  N   UNL     1      14.212   7.184  18.975  0.00  0.00    -0.263 N 
ATOM      4  C   UNL     1      15.005   7.192  18.746  0.00  0.00    +0.141 C 
ATOM      5  C   UNL     1      15.582   6.881  19.247  0.00  0.00    +0.094 A 
ATOM      6  C   UNL     1      15.367   6.561  19.976  0.00  0.00    +0.078 A 
ATOM      7  C   UNL     1      14.574   6.553  20.205  0.00  0.00    +0.077 C 
ATOM      8  C   UNL     1      13.997   6.864  19.705  0.00  0.00    +0.161 C 
ATOM     23  N   UNL     1      16.053   6.296  20.351  0.00  0.00    -0.227 NA
ATOM     24  C   UNL     1      16.692   6.452  19.853  0.00  0.00    +0.198 A 
ATOM     25  N   UNL     1      16.401   6.813  19.170  0.00  0.00    -0.225 NA
ENDROOT
BRANCH   2  26
ATOM     26  C   UNL     1      13.851   7.815  17.745  0.00  0.00    +0.054 A 
ATOM     27  C   UNL     1      13.890   7.331  17.078  0.00  0.00    +0.005 A 
ATOM     28  C   UNL     1      14.105   7.651  16.348  0.00  0.00    +0.010 A 
ATOM     29  C   UNL     1      14.281   8.454  16.286  0.00  0.00    +0.068 A 
ATOM     30  C   UNL     1      14.242   8.938  16.953  0.00  0.00    +0.010 A 
ATOM     31  C   UNL     1      14.027   8.618  17.682  0.00  0.00    +0.005 A 
BRANCH  29  32
ATOM     32  C   UNL     1      14.496   8.774  15.556  0.00  0.00    +0.100 C 
ATOM     33  N   UNL     1      14.710   9.094  14.827  0.00  0.00    -0.191 NA
ENDBRANCH  29  32
ENDBRANCH   2  26
BRANCH   8   9
ATOM      9  C   UNL     1      13.205   6.856  19.933  0.00  0.00    +0.255 A 
ATOM     10  N   UNL     1      12.893   7.203  20.614  0.00  0.00    -0.189 NA
ATOM     11  C   UNL     1      12.080   7.062  20.624  0.00  0.00    +0.203 A 
ATOM     12  N   UNL     1      11.889   6.628  19.948  0.00  0.00    -0.056 NA
ATOM     13  O   UNL     1      12.585   6.501  19.522  0.00  0.00    -0.335 OA
BRANCH  11  14
ATOM     14  C   UNL     1      11.552   7.311  21.205  0.00  0.00    +0.042 A 
ATOM     15  C   UNL     1      11.529   8.104  21.430  0.00  0.00    +0.043 A 
ATOM     16  C   UNL     1      11.000   8.354  22.012  0.00  0.00    +0.177 A 
ATOM     17  C   UNL     1      10.494   7.809  22.369  0.00  0.00    +0.176 A 
ATOM     18  O   UNL     1      10.035   8.213  22.923  0.00  0.00    -0.435 OA
ATOM     19  C   UNL     1      10.257   9.007  22.907  0.00  0.00    +0.429 C 
ATOM     20  O   UNL     1      10.854   9.094  22.344  0.00  0.00    -0.435 OA
ATOM     21  C   UNL     1      10.516   7.015  22.145  0.00  0.00    +0.040 A 
ATOM     22  C   UNL     1      11.046   6.767  21.563  0.00  0.00    +0.006 A 
ENDBRANCH  11  14
ENDBRANCH   8   9
TORSDOF 4
ENDMDL
MODEL 5
REMARK VINA RESULT:     -10.1      2.748      3.968
REMARK  Name = 
REMARK  4 active torsions:
REMARK  status: ('A' for Active; 'I' for Inactive)
REMARK    1  A    between atoms: C_2  and  C_26
REMARK    2  A    between atoms: C_8  and  C_9
REMARK    3  A    between atoms: C_11  and  C_14
REMARK    4  A    between atoms: C_29  and  C_32
REMARK                            x       y       z     vdW  Elec       q    Type
REMARK                         _______ _______ _______ _____ _____    ______ ____
ROOT
ATOM      1  O   UNL     1      -1.440   0.774  25.116  0.00  0.00    -0.270 OA
ATOM      2  C   UNL     1      -0.848   1.236  24.774  0.00  0.00    +0.250 C 
ATOM      3  N   UNL     1      -0.229   0.876  24.365  0.00  0.00    -0.263 N 
ATOM      4  C   UNL     1       0.364   1.337  24.023  0.00  0.00    +0.141 C 
ATOM      5  C   UNL     1       0.982   0.977  23.614  0.00  0.00    +0.094 A 
ATOM      6  C   UNL     1       1.009   0.156  23.546  0.00  0.00    +0.078 A 
ATOM      7  C   UNL     1       0.417  -0.307  23.888  0.00  0.00    +0.077 C 
ATOM      8  C   UNL     1      -0.202   0.054  24.297  0.00  0.00    +0.161 C 
ATOM     23  N   UNL     1       1.683  -0.043  23.113  0.00  0.00    -0.227 NA
ATOM     24  C   UNL     1       2.073   0.656  22.913  0.00  0.00    +0.198 A 
ATOM     25  N   UNL     1       1.639   1.287  23.223  0.00  0.00    -0.225 NA
ENDROOT
BRANCH   2  26
ATOM     26  C   UNL     1      -0.875   2.058  24.842  0.00  0.00    +0.054 A 
ATOM     27  C   UNL     1      -1.264   2.506  24.268  0.00  0.00    +0.005 A 
ATOM     28  C   UNL     1      -1.291   3.329  24.337  0.00  0.00    +0.010 A 
ATOM     29  C   UNL     1      -0.929   3.701  24.977  0.00  0.00    +0.068 A 
ATOM     30  C   UNL     1      -0.540   3.252  25.551  0.00  0.00    +0.010 A 
ATOM     31  C   UNL     1      -0.514   2.431  25.482  0.00  0.00    +0.005 A 
BRANCH  29  32
ATOM     32  C   UNL     1      -0.956   4.523  25.045  0.00  0.00    +0.100 C 
ATOM     33  N   UNL     1      -0.984   5.345  25.111  0.00  0.00    -0.191 NA
ENDBRANCH  29  32
ENDBRANCH   2  26
BRANCH   8   9
ATOM      9  C   UNL     1      -0.795  -0.407  24.639  0.00  0.00    +0.255 A 
ATOM     10  N   UNL     1      -1.353  -0.859  24.232  0.00  0.00    -0.189 NA
ATOM     11  C   UNL     1      -1.837  -1.229  24.788  0.00  0.00    +0.203 A 
ATOM     12  N   UNL     1      -1.578  -1.006  25.540  0.00  0.00    -0.056 NA
ATOM     13  O   UNL     1      -0.934  -0.498  25.447  0.00  0.00    -0.335 OA
BRANCH  11  14
ATOM     14  C   UNL     1      -2.468  -1.733  24.623  0.00  0.00    +0.042 A 
ATOM     15  C   UNL     1      -3.140  -1.442  24.244  0.00  0.00    +0.043 A 
ATOM     16  C   UNL     1      -3.772  -1.946  24.079  0.00  0.00    +0.177 A 
ATOM     17  C   UNL     1      -3.731  -2.742  24.292  0.00  0.00    +0.176 A 
ATOM     18  O   UNL     1      -4.434  -3.105  24.059  0.00  0.00    -0.435 OA
ATOM     19  C   UNL     1      -4.909  -2.534  23.702  0.00  0.00    +0.429 C 
ATOM     20  O   UNL     1      -4.500  -1.818  23.714  0.00  0.00    -0.435 OA
ATOM     21  C   UNL     1      -3.058  -3.034  24.671  0.00  0.00    +0.040 A 
ATOM     22  C   UNL     1      -2.427  -2.529  24.836  0.00  0.00    +0.006 A 
ENDBRANCH  11  14
ENDBRANCH   8   9
TORSDOF 4
ENDMDL
MODEL 6
REMARK VINA RESULT:     -10.0      1.607      3.239
REMARK  Name = 
REMARK  4 active torsions:
REMARK  status: ('A' for Active; 'I' for Inactive)
REMARK    1  A    between atoms: C_2  and  C_26
REMARK    2  A    between atoms: C_8  and  C_9
REMARK    3  A    between atoms: C_11  and  C_14
REMARK    4  A    between atoms: C_29  and  C_32
REMARK                            x       y       z     vdW  Elec       q    Type
REMARK                         _______ _______ _______ _____ _____    ______ ____
ROOT
ATOM      1  O   UNL     1      -2.940   1.844  24.410  0.00  0.00    -0.270 OA
ATOM      2  C   UNL     1      -2.941   2.631  24.661  0.00  0.00    +0.250 C 
ATOM      3  N   UNL     1      -2.238   3.061  24.671  0.00  0.00    -0.263 N 
ATOM      4  C   UNL     1      -2.238   3.847  24.921  0.00  0.00    +0.141 C 
ATOM      5  C   UNL     1      -1.534   4.277  24.931  0.00  0.00    +0.094 A 
ATOM      6  C   UNL     1      -0.830   3.921  24.691  0.00  0.00    +0.078 A 
ATOM      7  C   UNL     1      -0.829   3.135  24.441  0.00  0.00    +0.077 C 
ATOM      8  C   UNL     1      -1.533   2.705  24.431  0.00  0.00    +0.161 C 
ATOM     23  N   UNL     1      -0.226   4.479  24.760  0.00  0.00    -0.227 NA
ATOM     24  C   UNL     1      -0.557   5.180  25.042  0.00  0.00    +0.198 A 
ATOM     25  N   UNL     1      -1.366   5.055  25.148  0.00  0.00    -0.225 NA
ENDROOT
BRANCH   2  26
ATOM     26  C   UNL     1      -3.646   2.986  24.900  0.00  0.00    +0.054 A 
ATOM     27  C   UNL     1      -4.114   3.386  24.350  0.00  0.00    +0.005 A 
ATOM     28  C   UNL     1      -4.819   3.742  24.591  0.00  0.00    +0.010 A 
ATOM     29  C   UNL     1      -5.055   3.698  25.379  0.00  0.00    +0.068 A 
ATOM     30  C   UNL     1      -4.587   3.298  25.929  0.00  0.00    +0.010 A 
ATOM     31  C   UNL     1      -3.882   2.943  25.689  0.00  0.00    +0.005 A 
BRANCH  29  32
ATOM     32  C   UNL     1      -5.760   4.054  25.619  0.00  0.00    +0.100 C 
ATOM     33  N   UNL     1      -6.465   4.409  25.858  0.00  0.00    -0.191 NA
ENDBRANCH  29  32
ENDBRANCH   2  26
BRANCH   8   9
ATOM      9  C   UNL     1      -1.532   1.919  24.181  0.00  0.00    +0.255 A 
ATOM     10  N   UNL     1      -1.381   1.260  24.654  0.00  0.00    -0.189 NA
ATOM     11  C   UNL     1      -1.439   0.586  24.181  0.00  0.00    +0.203 A 
ATOM     12  N   UNL     1      -1.625   0.829  23.414  0.00  0.00    -0.056 NA
ATOM     13  O   UNL     1      -1.683   1.653  23.415  0.00  0.00    -0.335 OA
BRANCH  11  14
ATOM     14  C   UNL     1      -1.329  -0.192  24.430  0.00  0.00    +0.042 A 
ATOM     15  C   UNL     1      -1.927  -0.748  24.320  0.00  0.00    +0.043 A 
ATOM     16  C   UNL     1      -1.818  -1.527  24.569  0.00  0.00    +0.177 A 
ATOM     17  C   UNL     1      -1.109  -1.750  24.927  0.00  0.00    +0.176 A 
ATOM     18  O   UNL     1      -1.158  -2.551  25.114  0.00  0.00    -0.435 OA
ATOM     19  C   UNL     1      -1.897  -2.825  24.871  0.00  0.00    +0.429 C 
ATOM     20  O   UNL     1      -2.304  -2.192  24.534  0.00  0.00    -0.435 OA
ATOM     21  C   UNL     1      -0.509  -1.192  25.037  0.00  0.00    +0.040 A 
ATOM     22  C   UNL     1      -0.620  -0.414  24.788  0.00  0.00    +0.006 A 
ENDBRANCH  11  14
ENDBRANCH   8   9
TORSDOF 4
ENDMDL
MODEL 7
REMARK VINA RESULT:      -9.9      1.535      5.230
REMARK  Name = 
REMARK  4 active torsions:
REMARK  status: ('A' for Active; 'I' for Inactive)
REMARK    1  A    between atoms: C_2  and  C_26
REMARK    2  A    between atoms: C_8  and  C_9
REMARK    3  A    between atoms: C_11  and  C_14
REMARK    4  A    between atoms: C_29  and  C_32
REMARK                            x       y       z     vdW  Elec       q    Type
REMARK                         _______ _______ _______ _____ _____    ______ ____
ROOT
ATOM      1  O   UNL     1      -2.961   1.025  24.202  0.00  0.00    -0.270 OA
ATOM      2  C   UNL     1      -3.608   0.644  24.545  0.00  0.00    +0.250 C 
ATOM      3  N   UNL     1      -4.229   1.088  24.857  0.00  0.00    -0.263 N 
ATOM      4  C   UNL     1      -4.876   0.709  25.200  0.00  0.00    +0.141 C 
ATOM      5  C   UNL     1      -5.498   1.153  25.512  0.00  0.00    +0.094 A 
ATOM      6  C   UNL     1      -5.473   1.976  25.480  0.00  0.00    +0.078 A 
ATOM      7  C   UNL     1      -4.826   2.357  25.137  0.00  0.00    +0.077 C 
ATOM      8  C   UNL     1      -4.205   1.913  24.825  0.00  0.00    +0.161 C 
ATOM     23  N   UNL     1      -6.162   2.266  25.830  0.00  0.00    -0.227 NA
ATOM     24  C   UNL     1      -6.612   1.621  26.078  0.00  0.00    +0.198 A 
ATOM     25  N   UNL     1      -6.202   0.932  25.881  0.00  0.00    -0.225 NA
ENDROOT
BRANCH   2  26
ATOM     26  C   UNL     1      -3.633  -0.179  24.577  0.00  0.00    +0.054 A 
ATOM     27  C   UNL     1      -3.302  -0.578  25.219  0.00  0.00    +0.005 A 
ATOM     28  C   UNL     1      -3.327  -1.402  25.250  0.00  0.00    +0.010 A 
ATOM     29  C   UNL     1      -3.683  -1.827  24.640  0.00  0.00    +0.068 A 
ATOM     30  C   UNL     1      -4.014  -1.429  23.997  0.00  0.00    +0.010 A 
ATOM     31  C   UNL     1      -3.988  -0.605  23.967  0.00  0.00    +0.005 A 
BRANCH  29  32
ATOM     32  C   UNL     1      -3.707  -2.652  24.671  0.00  0.00    +0.100 C 
ATOM     33  N   UNL     1      -3.731  -3.475  24.703  0.00  0.00    -0.191 NA
ENDBRANCH  29  32
ENDBRANCH   2  26
BRANCH   8   9
ATOM      9  C   UNL     1      -3.558   2.293  24.482  0.00  0.00    +0.255 A 
ATOM     10  N   UNL     1      -3.043   2.814  24.862  0.00  0.00    -0.189 NA
ATOM     11  C   UNL     1      -2.479   3.062  24.314  0.00  0.00    +0.203 A 
ATOM     12  N   UNL     1      -2.644   2.693  23.594  0.00  0.00    -0.056 NA
ATOM     13  O   UNL     1      -3.311   2.218  23.699  0.00  0.00    -0.335 OA
BRANCH  11  14
ATOM     14  C   UNL     1      -1.859   3.585  24.460  0.00  0.00    +0.042 A 
ATOM     15  C   UNL     1      -2.019   4.373  24.642  0.00  0.00    +0.043 A 
ATOM     16  C   UNL     1      -1.398   4.898  24.787  0.00  0.00    +0.177 A 
ATOM     17  C   UNL     1      -0.618   4.633  24.751  0.00  0.00    +0.176 A 
ATOM     18  O   UNL     1      -0.124   5.271  24.919  0.00  0.00    -0.435 OA
ATOM     19  C   UNL     1      -0.598   5.931  25.060  0.00  0.00    +0.429 C 
ATOM     20  O   UNL     1      -1.386   5.699  24.978  0.00  0.00    -0.435 OA
ATOM     21  C   UNL     1      -0.458   3.844  24.569  0.00  0.00    +0.040 A 
ATOM     22  C   UNL     1      -1.078   3.320  24.423  0.00  0.00    +0.006 A 
ENDBRANCH  11  14
ENDBRANCH   8   9
TORSDOF 4
ENDMDL
MODEL 8
REMARK VINA RESULT:      -9.8      2.591      4.780
REMARK  Name = 
REMARK  4 active torsions:
REMARK  status: ('A' for Active; 'I' for Inactive)
REMARK    1  A    between atoms: C_2  and  C_26
REMARK    2  A    between atoms: C_8  and  C_9
REMARK    3  A    between atoms: C_11  and  C_14
REMARK    4  A    between atoms: C_29  and  C_32
REMARK                            x       y       z     vdW  Elec       q    Type
REMARK                         _______ _______ _______ _____ _____    ______ ____
ROOT
ATOM      1  O   UNL     1      -1.978   1.272  23.841  0.00  0.00    -0.270 OA
ATOM      2  C   UNL     1      -1.456   0.649  23.985  0.00  0.00    +0.250 C 
ATOM      3  N   UNL     1      -1.745  -0.077  24.250  0.00  0.00    -0.263 N 
ATOM      4  C   UNL     1      -1.224  -0.700  24.394  0.00  0.00    +0.141 C 
ATOM      5  C   UNL     1      -1.513  -1.426  24.659  0.00  0.00    +0.094 A 
ATOM      6  C   UNL     1      -2.322  -1.529  24.779  0.00  0.00    +0.078 A 
ATOM      7  C   UNL     1      -2.843  -0.906  24.635  0.00  0.00    +0.077 C 
ATOM      8  C   UNL     1      -2.555  -0.180  24.370  0.00  0.00    +0.161 C 
ATOM     23  N   UNL     1      -2.444  -2.302  25.041  0.00  0.00    -0.227 NA
ATOM     24  C   UNL     1      -1.711  -2.677  25.083  0.00  0.00    +0.198 A 
ATOM     25  N   UNL     1      -1.134  -2.135  24.846  0.00  0.00    -0.225 NA
ENDROOT
BRANCH   2  26
ATOM     26  C   UNL     1      -0.647   0.752  23.865  0.00  0.00    +0.054 A 
ATOM     27  C   UNL     1      -0.203   1.194  24.403  0.00  0.00    +0.005 A 
ATOM     28  C   UNL     1       0.607   1.297  24.282  0.00  0.00    +0.010 A 
ATOM     29  C   UNL     1       0.972   0.959  23.625  0.00  0.00    +0.068 A 
ATOM     30  C   UNL     1       0.528   0.517  23.087  0.00  0.00    +0.010 A 
ATOM     31  C   UNL     1      -0.281   0.414  23.208  0.00  0.00    +0.005 A 
BRANCH  29  32
ATOM     32  C   UNL     1       1.782   1.063  23.505  0.00  0.00    +0.100 C 
ATOM     33  N   UNL     1       2.592   1.167  23.384  0.00  0.00    -0.191 NA
ENDBRANCH  29  32
ENDBRANCH   2  26
BRANCH   8   9
ATOM      9  C   UNL     1      -3.075   0.443  24.225  0.00  0.00    +0.255 A 
ATOM     10  N   UNL     1      -3.550   0.819  24.786  0.00  0.00    -0.189 NA
ATOM     11  C   UNL     1      -3.981   1.408  24.404  0.00  0.00    +0.203 A 
ATOM     12  N   UNL     1      -3.774   1.397  23.605  0.00  0.00    -0.056 NA
ATOM     13  O   UNL     1      -3.214   0.800  23.495  0.00  0.00    -0.335 OA
BRANCH  11  14
ATOM     14  C   UNL     1      -4.524   1.919  24.756  0.00  0.00    +0.042 A 
ATOM     15  C   UNL     1      -4.336   2.715  24.858  0.00  0.00    +0.043 A 
ATOM     16  C   UNL     1      -4.879   3.226  25.211  0.00  0.00    +0.177 A 
ATOM     17  C   UNL     1      -5.610   2.940  25.462  0.00  0.00    +0.176 A 
ATOM     18  O   UNL     1      -6.031   3.569  25.789  0.00  0.00    -0.435 OA
ATOM     19  C   UNL     1      -5.560   4.244  25.740  0.00  0.00    +0.429 C 
ATOM     20  O   UNL     1      -4.848   4.032  25.382  0.00  0.00    -0.435 OA
ATOM     21  C   UNL     1      -5.799   2.143  25.361  0.00  0.00    +0.040 A 
ATOM     22  C   UNL     1      -5.255   1.633  25.008  0.00  0.00    +0.006 A 
ENDBRANCH  11  14
ENDBRANCH   8   9
TORSDOF 4
ENDMDL
MODEL 9
REMARK VINA RESULT:      -9.7      3.391      4.740
REMARK  Name = 
REMARK  4 active torsions:
REMARK  status: ('A' for Active; 'I' for Inactive)
REMARK    1  A    between atoms: C_2  and  C_26
REMARK    2  A    between atoms: C_8  and  C_9
REMARK    3  A    between atoms: C_11  and  C_14
REMARK    4  A    between atoms: C_29  and  C_32
REMARK                            x       y       z     vdW  Elec       q    Type
REMARK                         _______ _______ _______ _____ _____    ______ ____
ROOT
ATOM      1  O   UNL     1      -1.467   1.815  24.454  0.00  0.00    -0.270 OA
ATOM      2  C   UNL     1      -2.205   1.518  24.674  0.00  0.00    +0.250 C 
ATOM      3  N   UNL     1      -2.304   0.708  24.795  0.00  0.00    -0.263 N 
ATOM      4  C   UNL     1      -3.041   0.410  25.015  0.00  0.00    +0.141 C 
ATOM      5  C   UNL     1      -3.140  -0.399  25.136  0.00  0.00    +0.094 A 
ATOM      6  C   UNL     1      -2.502  -0.912  25.037  0.00  0.00    +0.078 A 
ATOM      7  C   UNL     1      -1.764  -0.616  24.817  0.00  0.00    +0.077 C 
ATOM      8  C   UNL     1      -1.665   0.194  24.696  0.00  0.00    +0.161 C 
ATOM     23  N   UNL     1      -2.764  -1.679  25.193  0.00  0.00    -0.227 NA
ATOM     24  C   UNL     1      -3.565  -1.640  25.389  0.00  0.00    +0.198 A 
ATOM     25  N   UNL     1      -3.797  -0.848  25.353  0.00  0.00    -0.225 NA
ENDROOT
BRANCH   2  26
ATOM     26  C   UNL     1      -2.843   2.031  24.773  0.00  0.00    +0.054 A 
ATOM     27  C   UNL     1      -3.372   2.156  24.152  0.00  0.00    +0.005 A 
ATOM     28  C   UNL     1      -4.010   2.670  24.252  0.00  0.00    +0.010 A 
ATOM     29  C   UNL     1      -4.119   3.057  24.971  0.00  0.00    +0.068 A 
ATOM     30  C   UNL     1      -3.590   2.932  25.592  0.00  0.00    +0.010 A 
ATOM     31  C   UNL     1      -2.953   2.418  25.493  0.00  0.00    +0.005 A 
BRANCH  29  32
ATOM     32  C   UNL     1      -4.758   3.571  25.070  0.00  0.00    +0.100 C 
ATOM     33  N   UNL     1      -5.396   4.083  25.170  0.00  0.00    -0.191 NA
ENDBRANCH  29  32
ENDBRANCH   2  26
BRANCH   8   9
ATOM      9  C   UNL     1      -0.928   0.492  24.476  0.00  0.00    +0.255 A 
ATOM     10  N   UNL     1      -0.400   0.139  23.949  0.00  0.00    -0.189 NA
ATOM     11  C   UNL     1       0.266   0.622  23.891  0.00  0.00    +0.203 A 
ATOM     12  N   UNL     1       0.150   1.275  24.383  0.00  0.00    -0.056 NA
ATOM     13  O   UNL     1      -0.588   1.194  24.744  0.00  0.00    -0.335 OA
BRANCH  11  14
ATOM     14  C   UNL     1       0.930   0.479  23.424  0.00  0.00    +0.042 A 
ATOM     15  C   UNL     1       1.627   0.897  23.560  0.00  0.00    +0.043 A 
ATOM     16  C   UNL     1       2.293   0.754  23.093  0.00  0.00    +0.177 A 
ATOM     17  C   UNL     1       2.259   0.192  22.490  0.00  0.00    +0.176 A 
ATOM     18  O   UNL     1       2.996   0.169  22.122  0.00  0.00    -0.435 OA
ATOM     19  C   UNL     1       3.486   0.716  22.497  0.00  0.00    +0.429 C 
ATOM     20  O   UNL     1       3.051   1.077  23.097  0.00  0.00    -0.435 OA
ATOM     21  C   UNL     1       1.561  -0.227  22.353  0.00  0.00    +0.040 A 
ATOM     22  C   UNL     1       0.896  -0.083  22.821  0.00  0.00    +0.006 A 
ENDBRANCH  11  14
ENDBRANCH   8   9
TORSDOF 4
ENDMDL
MODEL 10
REMARK VINA RESULT:      -9.6      2.332      5.692
REMARK  Name = 
REMARK  4 active torsions:
REMARK  status: ('A' for Active; 'I' for Inactive)
REMARK    1  A    between atoms: C_2  and  C_26
REMARK    2  A    between atoms: C_8  and  C_9
REMARK    3  A    between atoms: C_11  and  C_14
REMARK    4  A    between atoms: C_29  and  C_32
REMARK                            x       y       z     vdW  Elec       q    Type
REMARK                         _______ _______ _______ _____ _____    ______ ____
ROOT
ATOM      1  O   UNL     1      -2.651   0.783  25.237  0.00  0.00    -0.270 OA
ATOM      2  C   UNL     1      -2.212   0.196  24.857  0.00  0.00    +0.250 C 
ATOM      3  N   UNL     1      -1.481   0.379  24.522  0.00  0.00    -0.263 N 
ATOM      4  C   UNL     1      -1.042  -0.207  24.142  0.00  0.00    +0.141 C 
ATOM      5  C   UNL     1      -0.311  -0.024  23.808  0.00  0.00    +0.094 A 
ATOM      6  C   UNL     1      -0.018   0.745  23.853  0.00  0.00    +0.078 A 
ATOM      7  C   UNL     1      -0.456   1.332  24.233  0.00  0.00    +0.077 C 
ATOM      8  C   UNL     1      -1.187   1.149  24.567  0.00  0.00    +0.161 C 
ATOM     23  N   UNL     1       0.716   0.762  23.474  0.00  0.00    -0.227 NA
ATOM     24  C   UNL     1       0.875   0.002  23.195  0.00  0.00    +0.198 A 
ATOM     25  N   UNL     1       0.240  -0.484  23.402  0.00  0.00    -0.225 NA
ENDROOT
BRANCH   2  26
ATOM     26  C   UNL     1      -2.506  -0.573  24.812  0.00  0.00    +0.054 A 
ATOM     27  C   UNL     1      -3.029  -0.781  24.208  0.00  0.00    +0.005 A 
ATOM     28  C   UNL     1      -3.323  -1.551  24.164  0.00  0.00    +0.010 A 
ATOM     29  C   UNL     1      -3.093  -2.113  24.721  0.00  0.00    +0.068 A 
ATOM     30  C   UNL     1      -2.569  -1.905  25.325  0.00  0.00    +0.010 A 
ATOM     31  C   UNL     1      -2.276  -1.136  25.369  0.00  0.00    +0.005 A 
BRANCH  29  32
ATOM     32  C   UNL     1      -3.387  -2.883  24.676  0.00  0.00    +0.100 C 
ATOM     33  N   UNL     1      -3.679  -3.652  24.630  0.00  0.00    -0.191 NA
ENDBRANCH  29  32
ENDBRANCH   2  26
BRANCH   8   9
ATOM      9  C   UNL     1      -1.626   1.736  24.947  0.00  0.00    +0.255 A 
ATOM     10  N   UNL     1      -2.314   2.089  24.660  0.00  0.00    -0.189 NA
ATOM     11  C   UNL     1      -2.568   2.643  25.216  0.00  0.00    +0.203 A 
ATOM     12  N   UNL     1      -2.036   2.633  25.847  0.00  0.00    -0.056 NA
ATOM     13  O   UNL     1      -1.454   2.072  25.680  0.00  0.00    -0.335 OA
BRANCH  11  14
ATOM     14  C   UNL     1      -3.236   3.123  25.152  0.00  0.00    +0.042 A 
ATOM     15  C   UNL     1      -3.892   2.983  25.630  0.00  0.00    +0.043 A 
ATOM     16  C   UNL     1      -4.560   3.463  25.567  0.00  0.00    +0.177 A 
ATOM     17  C   UNL     1      -4.571   4.084  25.024  0.00  0.00    +0.176 A 
ATOM     18  O   UNL     1      -5.301   4.462  25.083  0.00  0.00    -0.435 OA
ATOM     19  C   UNL     1      -5.742   4.075  25.663  0.00  0.00    +0.429 C 
ATOM     20  O   UNL     1      -5.283   3.458  25.961  0.00  0.00    -0.435 OA
ATOM     21  C   UNL     1      -3.914   4.225  24.544  0.00  0.00    +0.040 A 
ATOM     22  C   UNL     1      -3.246   3.744  24.609  0.00  0.00    +0.006 A 
ENDBRANCH  11  14
ENDBRANCH   8   9
TORSDOF 4
ENDMDL
