MODEL 1
REMARK VINA RESULT:     -10.7      0.000      0.000
REMARK  Name = 
REMARK  6 active torsions:
REMARK  status: ('A' for Active; 'I' for Inactive)
REMARK    1  A    between atoms: N_2  and  C_4
REMARK    2  A    between atoms: C_7  and  C_10
REMARK    3  A    between atoms: N_12  and  C_13
REMARK    4  A    between atoms: C_13  and  C_14
REMARK    5  A    between atoms: C_21  and  C_22
REMARK    6  A    between atoms: C_22  and  N_23
REMARK                            x       y       z     vdW  Elec       q    Type
REMARK                         _______ _______ _______ _____ _____    ______ ____
ROOT
ATOM     14  C   UNL     1      -4.201   2.619  25.133  0.00  0.00    +0.079 C 
ATOM     15  C   UNL     1      -4.242   3.178  25.673  0.00  0.00    +0.018 C 
ATOM     16  C   UNL     1      -3.655   3.706  25.851  0.00  0.00    +0.005 C 
ATOM     17  C   UNL     1      -3.899   4.270  26.504  0.00  0.00    +0.017 C 
ATOM     18  C   UNL     1      -3.977   3.774  26.086  0.00  0.00    +0.072 C 
ATOM     19  N   UNL     1      -3.607   3.161  25.320  0.00  0.00    -0.272 NA
ATOM     20  C   UNL     1      -2.766   3.284  24.987  0.00  0.00    +0.073 C 
ATOM     21  C   UNL     1      -2.847   3.819  25.526  0.00  0.00    +0.032 C 
ENDROOT
BRANCH  14  13
ATOM     13  C   UNL     1      -4.508   1.984  24.707  0.00  0.00    +0.131 C 
BRANCH  13  12
ATOM     10  C   UNL     1      -4.566   0.560  24.599  0.00  0.00    +0.265 C 
ATOM     11  O   UNL     1      -5.374   0.604  24.444  0.00  0.00    -0.268 OA
ATOM     12  N   UNL     1      -4.132   1.250  24.731  0.00  0.00    -0.200 NA
BRANCH  10   7
ATOM      4  C   UNL     1      -3.437  -1.641  24.671  0.00  0.00    +0.048 A 
ATOM      5  C   UNL     1      -3.711  -1.341  23.952  0.00  0.00    +0.015 A 
ATOM      6  C   UNL     1      -4.087  -0.607  23.928  0.00  0.00    +0.006 A 
ATOM      7  C   UNL     1      -4.190  -0.174  24.623  0.00  0.00    +0.055 A 
ATOM      8  C   UNL     1      -3.916  -0.474  25.341  0.00  0.00    +0.006 A 
ATOM      9  C   UNL     1      -3.540  -1.208  25.365  0.00  0.00    +0.015 A 
BRANCH   4   2
ATOM      1  C   UNL     1      -2.237  -2.415  24.694  0.00  0.00    +0.112 C 
ATOM      2  N   UNL     1      -3.061  -2.375  24.694  0.00  0.00    -0.304 N 
ATOM      3  C   UNL     1      -3.508  -3.068  24.717  0.00  0.00    +0.112 C 
ENDBRANCH   4   2
ENDBRANCH  10   7
ENDBRANCH  13  12
ENDBRANCH  14  13
BRANCH  21  22
ATOM     22  C   UNL     1      -2.291   4.385  25.756  0.00  0.00    +0.073 C 
BRANCH  22  23
ATOM     23  N   UNL     1      -1.583   4.457  25.342  0.00  0.00    -0.273 NA
ATOM     24  C   UNL     1      -0.979   3.895  25.312  0.00  0.00    +0.072 C 
ATOM     25  C   UNL     1      -0.374   4.195  24.836  0.00  0.00    +0.019 C 
ATOM     26  C   UNL     1      -0.606   4.941  24.571  0.00  0.00    +0.019 C 
ATOM     27  C   UNL     1      -1.352   5.104  24.884  0.00  0.00    +0.072 C 
ENDBRANCH  22  23
ENDBRANCH  21  22
TORSDOF 6
ENDMDL
MODEL 2
REMARK VINA RESULT:     -10.3      1.041      5.219
REMARK  Name = 
REMARK  6 active torsions:
REMARK  status: ('A' for Active; 'I' for Inactive)
REMARK    1  A    between atoms: N_2  and  C_4
REMARK    2  A    between atoms: C_7  and  C_10
REMARK    3  A    between atoms: N_12  and  C_13
REMARK    4  A    between atoms: C_13  and  C_14
REMARK    5  A    between atoms: C_21  and  C_22
REMARK    6  A    between atoms: C_22  and  N_23
REMARK                            x       y       z     vdW  Elec       q    Type
REMARK                         _______ _______ _______ _____ _____    ______ ____
ROOT
ATOM     14  C   UNL     1      -4.246   0.330  24.693  0.00  0.00    +0.079 C 
ATOM     15  C   UNL     1      -4.390  -0.368  24.381  0.00  0.00    +0.018 C 
ATOM     16  C   UNL     1      -3.877  -0.995  24.369  0.00  0.00    +0.005 C 
ATOM     17  C   UNL     1      -4.234  -1.710  23.962  0.00  0.00    +0.017 C 
ATOM     18  C   UNL     1      -4.224  -1.097  24.187  0.00  0.00    +0.072 C 
ATOM     19  N   UNL     1      -3.729  -0.313  24.677  0.00  0.00    -0.272 NA
ATOM     20  C   UNL     1      -2.879  -0.421  24.993  0.00  0.00    +0.073 C 
ATOM     21  C   UNL     1      -3.061  -1.092  24.675  0.00  0.00    +0.032 C 
ENDROOT
BRANCH  14  13
ATOM     13  C   UNL     1      -4.450   1.105  24.888  0.00  0.00    +0.131 C 
BRANCH  13  12
ATOM     10  C   UNL     1      -4.082   2.477  25.037  0.00  0.00    +0.265 C 
ATOM     11  O   UNL     1      -4.876   2.681  25.122  0.00  0.00    -0.268 OA
ATOM     12  N   UNL     1      -3.868   1.689  24.920  0.00  0.00    -0.200 NA
BRANCH  10   7
ATOM      4  C   UNL     1      -2.337   4.229  25.131  0.00  0.00    +0.048 A 
ATOM      5  C   UNL     1      -2.773   4.045  25.807  0.00  0.00    +0.015 A 
ATOM      6  C   UNL     1      -3.355   3.461  25.775  0.00  0.00    +0.006 A 
ATOM      7  C   UNL     1      -3.500   3.061  25.068  0.00  0.00    +0.055 A 
ATOM      8  C   UNL     1      -3.064   3.246  24.393  0.00  0.00    +0.006 A 
ATOM      9  C   UNL     1      -2.482   3.830  24.424  0.00  0.00    +0.015 A 
BRANCH   4   2
ATOM      1  C   UNL     1      -0.959   4.605  25.104  0.00  0.00    +0.112 C 
ATOM      2  N   UNL     1      -1.755   4.814  25.163  0.00  0.00    -0.304 N 
ATOM      3  C   UNL     1      -1.969   5.605  25.254  0.00  0.00    +0.112 C 
ENDBRANCH   4   2
ENDBRANCH  10   7
ENDBRANCH  13  12
ENDBRANCH  14  13
BRANCH  21  22
ATOM     22  C   UNL     1      -2.587  -1.766  24.629  0.00  0.00    +0.073 C 
BRANCH  22  23
ATOM     23  N   UNL     1      -1.774  -1.708  24.753  0.00  0.00    -0.273 NA
ATOM     24  C   UNL     1      -1.200  -1.619  24.167  0.00  0.00    +0.072 C 
ATOM     25  C   UNL     1      -0.462  -1.585  24.535  0.00  0.00    +0.019 C 
ATOM     26  C   UNL     1      -0.581  -1.652  25.349  0.00  0.00    +0.019 C 
ATOM     27  C   UNL     1      -1.392  -1.729  25.483  0.00  0.00    +0.072 C 
ENDBRANCH  22  23
ENDBRANCH  21  22
TORSDOF 6
ENDMDL
MODEL 3
REMARK VINA RESULT:     -10.1      1.676      2.742
REMARK  Name = 
REMARK  6 active torsions:
REMARK  status: ('A' for Active; 'I' for Inactive)
REMARK    1  A    between atoms: N_2  and  C_4
REMARK    2  A    between atoms: C_7  and  C_10
REMARK    3  A    between atoms: N_12  and  C_13
REMARK    4  A    between atoms: C_13  and  C_14
REMARK    5  A    between atoms: C_21  and  C_22
REMARK    6  A    between atoms: C_22  and  N_23
REMARK                            x       y       z     vdW  Elec       q    Type
REMARK                         _______ _______ _______ _____ _____    ______ ____
ROOT
ATOM     14  C   UNL     1      -0.995   1.649  25.553  0.00  0.00    +0.079 C 
ATOM     15  C   UNL     1      -0.735   2.378  25.470  0.00  0.00    +0.018 C 
ATOM     16  C   UNL     1      -1.196   3.032  25.349  0.00  0.00    +0.005 C 
ATOM     17  C   UNL     1      -0.704   3.779  25.279  0.00  0.00    +0.017 C 
ATOM     18  C   UNL     1      -0.805   3.139  25.360  0.00  0.00    +0.072 C 
ATOM     19  N   UNL     1      -1.458   2.321  25.429  0.00  0.00    -0.272 NA
ATOM     20  C   UNL     1      -2.360   2.435  25.353  0.00  0.00    +0.073 C 
ATOM     21  C   UNL     1      -2.064   3.135  25.277  0.00  0.00    +0.032 C 
ENDROOT
BRANCH  14  13
ATOM     13  C   UNL     1      -0.891   0.840  25.671  0.00  0.00    +0.131 C 
BRANCH  13  12
ATOM     10  C   UNL     1      -1.377  -0.498  25.553  0.00  0.00    +0.265 C 
ATOM     11  O   UNL     1      -0.760  -0.766  26.029  0.00  0.00    -0.268 OA
ATOM     12  N   UNL     1      -1.443   0.304  25.373  0.00  0.00    -0.200 NA
BRANCH  10   7
ATOM      4  C   UNL     1      -3.035  -2.104  24.660  0.00  0.00    +0.048 A 
ATOM      5  C   UNL     1      -2.261  -2.108  24.373  0.00  0.00    +0.015 A 
ATOM      6  C   UNL     1      -1.709  -1.573  24.671  0.00  0.00    +0.006 A 
ATOM      7  C   UNL     1      -1.930  -1.034  25.255  0.00  0.00    +0.055 A 
ATOM      8  C   UNL     1      -2.703  -1.030  25.541  0.00  0.00    +0.006 A 
ATOM      9  C   UNL     1      -3.256  -1.565  25.244  0.00  0.00    +0.015 A 
BRANCH   4   2
ATOM      1  C   UNL     1      -4.166  -2.383  23.832  0.00  0.00    +0.112 C 
ATOM      2  N   UNL     1      -3.587  -2.640  24.362  0.00  0.00    -0.304 N 
ATOM      3  C   UNL     1      -3.561  -3.431  24.592  0.00  0.00    +0.112 C 
ENDBRANCH   4   2
ENDBRANCH  10   7
ENDBRANCH  13  12
ENDBRANCH  14  13
BRANCH  21  22
ATOM     22  C   UNL     1      -2.475   3.839  25.152  0.00  0.00    +0.073 C 
BRANCH  22  23
ATOM     23  N   UNL     1      -3.294   3.828  25.059  0.00  0.00    -0.273 NA
ATOM     24  C   UNL     1      -3.699   3.761  24.343  0.00  0.00    +0.072 C 
ATOM     25  C   UNL     1      -4.509   3.772  24.506  0.00  0.00    +0.019 C 
ATOM     26  C   UNL     1      -4.603   3.847  25.322  0.00  0.00    +0.019 C 
ATOM     27  C   UNL     1      -3.852   3.881  25.664  0.00  0.00    +0.072 C 
ENDBRANCH  22  23
ENDBRANCH  21  22
TORSDOF 6
ENDMDL
MODEL 4
REMARK VINA RESULT:      -9.9      2.015      6.056
REMARK  Name = 
REMARK  6 active torsions:
REMARK  status: ('A' for Active; 'I' for Inactive)
REMARK    1  A    between atoms: N_2  and  C_4
REMARK    2  A    between atoms: C_7  and  C_10
REMARK    3  A    between atoms: N_12  and  C_13
REMARK    4  A    between atoms: C_13  and  C_14
REMARK    5  A    between atoms: C_21  and  C_22
REMARK    6  A    between atoms: C_22  and  N_23
REMARK                            x       y       z     vdW  Elec       q    Type
REMARK                         _______ _______ _______ _____ _____    ______ ____
ROOT
ATOM     14  C   UNL     1      -0.487  -0.360  24.576  0.00  0.00    +0.079 C 
ATOM     15  C   UNL     1      -0.444  -1.060  24.913  0.00  0.00    +0.018 C 
ATOM     16  C   UNL     1      -1.054  -1.587  24.983  0.00  0.00    +0.005 C 
ATOM     17  C   UNL     1      -0.800  -2.338  25.403  0.00  0.00    +0.017 C 
ATOM     18  C   UNL     1      -0.719  -1.741  25.150  0.00  0.00    +0.072 C 
ATOM     19  N   UNL     1      -1.104  -0.903  24.652  0.00  0.00    -0.272 NA
ATOM     20  C   UNL     1      -1.978  -0.875  24.390  0.00  0.00    +0.073 C 
ATOM     21  C   UNL     1      -1.893  -1.554  24.729  0.00  0.00    +0.032 C 
ENDROOT
BRANCH  14  13
ATOM     13  C   UNL     1      -0.167   0.361  24.334  0.00  0.00    +0.131 C 
BRANCH  13  12
ATOM     10  C   UNL     1      -0.141   1.785  24.442  0.00  0.00    +0.265 C 
ATOM     11  O   UNL     1       0.620   1.796  24.125  0.00  0.00    -0.268 OA
ATOM     12  N   UNL     1      -0.535   1.068  24.546  0.00  0.00    -0.200 NA
BRANCH  10   7
ATOM      4  C   UNL     1      -1.245   3.906  25.078  0.00  0.00    +0.048 A 
ATOM      5  C   UNL     1      -1.368   3.587  24.328  0.00  0.00    +0.015 A 
ATOM      6  C   UNL     1      -1.000   2.880  24.115  0.00  0.00    +0.006 A 
ATOM      7  C   UNL     1      -0.509   2.492  24.654  0.00  0.00    +0.055 A 
ATOM      8  C   UNL     1      -0.387   2.812  25.404  0.00  0.00    +0.006 A 
ATOM      9  C   UNL     1      -0.755   3.519  25.616  0.00  0.00    +0.015 A 
BRANCH   4   2
ATOM      1  C   UNL     1      -1.277   5.335  25.071  0.00  0.00    +0.112 C 
ATOM      2  N   UNL     1      -1.614   4.614  25.290  0.00  0.00    -0.304 N 
ATOM      3  C   UNL     1      -2.318   4.601  25.719  0.00  0.00    +0.112 C 
ENDBRANCH   4   2
ENDBRANCH  10   7
ENDBRANCH  13  12
ENDBRANCH  14  13
BRANCH  21  22
ATOM     22  C   UNL     1      -2.470  -2.134  24.833  0.00  0.00    +0.073 C 
BRANCH  22  23
ATOM     23  N   UNL     1      -3.218  -2.037  24.500  0.00  0.00    -0.273 NA
ATOM     24  C   UNL     1      -3.551  -2.508  23.910  0.00  0.00    +0.072 C 
ATOM     25  C   UNL     1      -4.304  -2.213  23.743  0.00  0.00    +0.019 C 
ATOM     26  C   UNL     1      -4.435  -1.560  24.229  0.00  0.00    +0.019 C 
ATOM     27  C   UNL     1      -3.764  -1.451  24.697  0.00  0.00    +0.072 C 
ENDBRANCH  22  23
ENDBRANCH  21  22
TORSDOF 6
ENDMDL
MODEL 5
REMARK VINA RESULT:      -9.7      1.875      5.476
REMARK  Name = 
REMARK  6 active torsions:
REMARK  status: ('A' for Active; 'I' for Inactive)
REMARK    1  A    between atoms: N_2  and  C_4
REMARK    2  A    between atoms: C_7  and  C_10
REMARK    3  A    between atoms: N_12  and  C_13
REMARK    4  A    between atoms: C_13  and  C_14
REMARK    5  A    between atoms: C_21  and  C_22
REMARK    6  A    between atoms: C_22  and  N_23
REMARK                            x       y       z     vdW  Elec       q    Type
REMARK                         _______ _______ _______ _____ _____    ______ ____
ROOT
ATOM     14  C   UNL     1      -1.145   0.704  24.425  0.00  0.00    +0.079 C 
ATOM     15  C   UNL     1      -0.623   0.127  24.462  0.00  0.00    +0.018 C 
ATOM     16  C   UNL     1      -0.795  -0.659  24.548  0.00  0.00    +0.005 C 
ATOM     17  C   UNL     1      -0.053  -1.163  24.568  0.00  0.00    +0.017 C 
ATOM     18  C   UNL     1      -0.395  -0.607  24.526  0.00  0.00    +0.072 C 
ATOM     19  N   UNL     1      -1.312  -0.100  24.513  0.00  0.00    -0.272 NA
ATOM     20  C   UNL     1      -2.099  -0.554  24.591  0.00  0.00    +0.073 C 
ATOM     21  C   UNL     1      -1.556  -1.090  24.623  0.00  0.00    +0.032 C 
ENDROOT
BRANCH  14  13
ATOM     13  C   UNL     1      -1.361   1.496  24.354  0.00  0.00    +0.131 C 
BRANCH  13  12
ATOM     10  C   UNL     1      -2.335   2.531  24.505  0.00  0.00    +0.265 C 
ATOM     11  O   UNL     1      -1.816   3.070  24.157  0.00  0.00    -0.268 OA
ATOM     12  N   UNL     1      -2.108   1.744  24.603  0.00  0.00    -0.200 NA
BRANCH  10   7
ATOM      4  C   UNL     1      -4.573   3.275  25.252  0.00  0.00    +0.048 A 
ATOM      5  C   UNL     1      -4.492   2.864  24.541  0.00  0.00    +0.015 A 
ATOM      6  C   UNL     1      -3.745   2.616  24.292  0.00  0.00    +0.006 A 
ATOM      7  C   UNL     1      -3.081   2.779  24.754  0.00  0.00    +0.055 A 
ATOM      8  C   UNL     1      -3.163   3.189  25.464  0.00  0.00    +0.006 A 
ATOM      9  C   UNL     1      -3.910   3.437  25.714  0.00  0.00    +0.015 A 
BRANCH   4   2
ATOM      1  C   UNL     1      -5.861   2.970  25.792  0.00  0.00    +0.112 C 
ATOM      2  N   UNL     1      -5.320   3.522  25.501  0.00  0.00    -0.304 N 
ATOM      3  C   UNL     1      -5.526   4.319  25.459  0.00  0.00    +0.112 C 
ENDBRANCH   4   2
ENDBRANCH  10   7
ENDBRANCH  13  12
ENDBRANCH  14  13
BRANCH  21  22
ATOM     22  C   UNL     1      -1.662  -1.904  24.709  0.00  0.00    +0.073 C 
BRANCH  22  23
ATOM     23  N   UNL     1      -2.423  -2.220  24.728  0.00  0.00    -0.273 NA
ATOM     24  C   UNL     1      -2.816  -2.575  24.094  0.00  0.00    +0.072 C 
ATOM     25  C   UNL     1      -3.562  -2.812  24.357  0.00  0.00    +0.019 C 
ATOM     26  C   UNL     1      -3.629  -2.604  25.153  0.00  0.00    +0.019 C 
ATOM     27  C   UNL     1      -2.926  -2.238  25.382  0.00  0.00    +0.072 C 
ENDBRANCH  22  23
ENDBRANCH  21  22
TORSDOF 6
ENDMDL
