MODEL 1
REMARK VINA RESULT:     -10.2      0.000      0.000
REMARK  Name = 
REMARK  10 active torsions:
REMARK  status: ('A' for Active; 'I' for Inactive)
REMARK    1  A    between atoms: O_2  and  C_3
REMARK    2  A    between atoms: C_3  and  C_5
REMARK    3  A    between atoms: C_5  and  C_6
REMARK    4  A    between atoms: C_5  and  N_15
REMARK    5  A    between atoms: C_6  and  C_7
REMARK    6  A    between atoms: C_10  and  O_11
REMARK    7  A    between atoms: C_16  and  C_18
REMARK    8  A    between atoms: N_26  and  C_27
REMARK    9  A    between atoms: C_33  and  C_35
REMARK   10  A    between atoms: C_38  and  N_41
REMARK                            x       y       z     vdW  Elec       q    Type
REMARK                         _______ _______ _______ _____ _____    ______ ____
ROOT
ATOM     18  C   UNL     1      -1.320   1.155  24.487  0.00  0.00    +0.175 C 
ATOM     19  C   UNL     1      -0.922   0.499  24.181  0.00  0.00    +0.123 C 
ATOM     20  N   UNL     1      -0.165   0.586  23.866  0.00  0.00    -0.272 N 
ATOM     21  C   UNL     1       0.195   1.328  23.857  0.00  0.00    +0.115 C 
ATOM     22  C   UNL     1      -0.201   1.983  24.162  0.00  0.00    +0.117 C 
ATOM     23  N   UNL     1      -0.959   1.896  24.478  0.00  0.00    -0.253 N 
ATOM     24  C   UNL     1      -1.356   2.551  24.783  0.00  0.00    +0.324 C 
ATOM     25  O   UNL     1      -2.114   2.464  25.099  0.00  0.00    -0.251 OA
ATOM     26  N   UNL     1      -0.996   3.294  24.774  0.00  0.00    -0.190 NA
ATOM     33  C   UNL     1       0.232  -0.069  23.560  0.00  0.00    +0.249 C 
ATOM     34  O   UNL     1      -0.128  -0.812  23.569  0.00  0.00    -0.270 OA
ENDROOT
BRANCH  26  27
ATOM     27  C   UNL     1      -1.393   3.948  25.080  0.00  0.00    +0.097 C 
ATOM     28  C   UNL     1      -1.338   4.679  24.699  0.00  0.00    +0.022 C 
ATOM     29  C   UNL     1      -1.736   5.334  25.005  0.00  0.00    +0.002 C 
ATOM     30  C   UNL     1      -2.188   5.259  25.691  0.00  0.00    +0.000 C 
ATOM     31  C   UNL     1      -2.243   4.529  26.071  0.00  0.00    +0.002 C 
ATOM     32  C   UNL     1      -1.846   3.874  25.766  0.00  0.00    +0.022 C 
ENDBRANCH  26  27
BRANCH  33  35
ATOM     35  C   UNL     1       0.990   0.018  23.245  0.00  0.00    +0.054 A 
ATOM     36  C   UNL     1       1.106  -0.032  22.429  0.00  0.00    +0.006 A 
ATOM     37  C   UNL     1       1.863   0.055  22.114  0.00  0.00    +0.015 A 
ATOM     38  C   UNL     1       2.505   0.191  22.615  0.00  0.00    +0.048 A 
ATOM     39  C   UNL     1       2.389   0.241  23.430  0.00  0.00    +0.015 A 
ATOM     40  C   UNL     1       1.632   0.154  23.745  0.00  0.00    +0.006 A 
BRANCH  38  41
ATOM     41  N   UNL     1       3.262   0.278  22.300  0.00  0.00    -0.304 N 
ATOM     42  C   UNL     1       3.406   0.083  21.510  0.00  0.00    +0.112 C 
ATOM     43  C   UNL     1       3.876   0.560  22.773  0.00  0.00    +0.112 C 
ENDBRANCH  38  41
ENDBRANCH  33  35
BRANCH  18  16
ATOM     15  N   UNL     1      -2.679   0.742  24.343  0.00  0.00    -0.194 NA
ATOM     16  C   UNL     1      -2.077   1.068  24.802  0.00  0.00    +0.262 C 
ATOM     17  O   UNL     1      -2.231   1.307  25.577  0.00  0.00    -0.271 OA
BRANCH  15   5
ATOM      5  C   UNL     1      -3.437   0.655  24.658  0.00  0.00    +0.198 C 
BRANCH   5   3
ATOM      3  C   UNL     1      -4.039   1.173  24.435  0.00  0.00    +0.337 C 
ATOM      4  O   UNL     1      -4.102   1.417  23.649  0.00  0.00    -0.248 OA
BRANCH   3   2
ATOM      1  C   UNL     1      -5.169   1.978  24.776  0.00  0.00    +0.256 C 
ATOM      2  O   UNL     1      -4.578   1.446  24.997  0.00  0.00    -0.443 OA
ENDBRANCH   3   2
ENDBRANCH   5   3
BRANCH   5   6
ATOM      6  C   UNL     1      -3.593   0.050  25.197  0.00  0.00    +0.059 C 
BRANCH   6   7
ATOM      7  C   UNL     1      -3.681  -0.726  24.933  0.00  0.00    -0.020 A 
ATOM      8  C   UNL     1      -3.380  -1.350  25.380  0.00  0.00    -0.001 A 
ATOM      9  C   UNL     1      -3.468  -2.127  25.116  0.00  0.00    +0.037 A 
ATOM     10  C   UNL     1      -3.857  -2.279  24.404  0.00  0.00    +0.139 A 
ATOM     13  C   UNL     1      -4.158  -1.654  23.957  0.00  0.00    +0.037 A 
ATOM     14  C   UNL     1      -4.070  -0.878  24.222  0.00  0.00    -0.001 A 
BRANCH  10  11
ATOM     11  O   UNL     1      -3.945  -3.056  24.139  0.00  0.00    -0.471 OA
ATOM     12  C   UNL     1      -3.316  -3.585  24.201  0.00  0.00    +0.252 C 
ENDBRANCH  10  11
ENDBRANCH   6   7
ENDBRANCH   5   6
ENDBRANCH  15   5
ENDBRANCH  18  16
TORSDOF 10
ENDMDL
MODEL 2
REMARK VINA RESULT:      -9.1      1.136      4.259
REMARK  Name = 
REMARK  10 active torsions:
REMARK  status: ('A' for Active; 'I' for Inactive)
REMARK    1  A    between atoms: O_2  and  C_3
REMARK    2  A    between atoms: C_3  and  C_5
REMARK    3  A    between atoms: C_5  and  C_6
REMARK    4  A    between atoms: C_5  and  N_15
REMARK    5  A    between atoms: C_6  and  C_7
REMARK    6  A    between atoms: C_10  and  O_11
REMARK    7  A    between atoms: C_16  and  C_18
REMARK    8  A    between atoms: N_26  and  C_27
REMARK    9  A    between atoms: C_33  and  C_35
REMARK   10  A    between atoms: C_38  and  N_41
REMARK                            x       y       z     vdW  Elec       q    Type
REMARK                         _______ _______ _______ _____ _____    ______ ____
ROOT
ATOM     18  C   UNL     1      -1.434   0.652  24.487  0.00  0.00    +0.175 C 
ATOM     19  C   UNL     1      -0.787   1.135  24.314  0.00  0.00    +0.123 C 
ATOM     20  N   UNL     1      -0.108   0.811  23.974  0.00  0.00    -0.272 N 
ATOM     21  C   UNL     1      -0.077   0.003  23.807  0.00  0.00    +0.115 C 
ATOM     22  C   UNL     1      -0.722  -0.480  23.980  0.00  0.00    +0.117 C 
ATOM     23  N   UNL     1      -1.401  -0.155  24.320  0.00  0.00    -0.253 N 
ATOM     24  C   UNL     1      -2.047  -0.638  24.492  0.00  0.00    +0.324 C 
ATOM     25  O   UNL     1      -2.725  -0.314  24.832  0.00  0.00    -0.251 OA
ATOM     26  N   UNL     1      -2.015  -1.446  24.325  0.00  0.00    -0.190 NA
ATOM     33  C   UNL     1       0.537   1.294  23.802  0.00  0.00    +0.249 C 
ATOM     34  O   UNL     1       0.505   2.101  23.969  0.00  0.00    -0.270 OA
ENDROOT
BRANCH  26  27
ATOM     27  C   UNL     1      -2.661  -1.928  24.498  0.00  0.00    +0.097 C 
ATOM     28  C   UNL     1      -2.652  -2.403  25.173  0.00  0.00    +0.022 C 
ATOM     29  C   UNL     1      -3.298  -2.886  25.346  0.00  0.00    +0.002 C 
ATOM     30  C   UNL     1      -3.953  -2.894  24.845  0.00  0.00    +0.000 C 
ATOM     31  C   UNL     1      -3.962  -2.420  24.171  0.00  0.00    +0.002 C 
ATOM     32  C   UNL     1      -3.316  -1.936  23.997  0.00  0.00    +0.022 C 
ENDBRANCH  26  27
BRANCH  33  35
ATOM     35  C   UNL     1       1.215   0.970  23.462  0.00  0.00    +0.054 A 
ATOM     36  C   UNL     1       1.961   1.180  23.747  0.00  0.00    +0.006 A 
ATOM     37  C   UNL     1       2.639   0.856  23.407  0.00  0.00    +0.015 A 
ATOM     38  C   UNL     1       2.572   0.321  22.782  0.00  0.00    +0.048 A 
ATOM     39  C   UNL     1       1.828   0.111  22.497  0.00  0.00    +0.015 A 
ATOM     40  C   UNL     1       1.149   0.435  22.837  0.00  0.00    +0.006 A 
BRANCH  38  41
ATOM     41  N   UNL     1       3.250  -0.003  22.443  0.00  0.00    -0.304 N 
ATOM     42  C   UNL     1       3.387   0.082  21.633  0.00  0.00    +0.112 C 
ATOM     43  C   UNL     1       3.792  -0.412  22.911  0.00  0.00    +0.112 C 
ENDBRANCH  38  41
ENDBRANCH  33  35
BRANCH  18  16
ATOM     15  N   UNL     1      -2.454   1.651  24.500  0.00  0.00    -0.194 NA
ATOM     16  C   UNL     1      -2.112   0.976  24.827  0.00  0.00    +0.262 C 
ATOM     17  O   UNL     1      -2.447   0.623  25.493  0.00  0.00    -0.271 OA
BRANCH  15   5
ATOM      5  C   UNL     1      -3.132   1.975  24.840  0.00  0.00    +0.198 C 
BRANCH   5   3
ATOM      3  C   UNL     1      -3.874   1.808  24.521  0.00  0.00    +0.337 C 
ATOM      4  O   UNL     1      -3.987   1.834  23.704  0.00  0.00    -0.248 OA
BRANCH   3   2
ATOM      1  C   UNL     1      -5.266   1.546  24.711  0.00  0.00    +0.256 C 
ATOM      2  O   UNL     1      -4.503   1.614  25.019  0.00  0.00    -0.443 OA
ENDBRANCH   3   2
ENDBRANCH   5   3
BRANCH   5   6
ATOM      6  C   UNL     1      -3.069   2.467  25.499  0.00  0.00    +0.059 C 
BRANCH   6   7
ATOM      7  C   UNL     1      -2.717   3.210  25.428  0.00  0.00    -0.020 A 
ATOM      8  C   UNL     1      -2.078   3.411  25.910  0.00  0.00    -0.001 A 
ATOM      9  C   UNL     1      -1.725   4.153  25.839  0.00  0.00    +0.037 A 
ATOM     10  C   UNL     1      -2.012   4.695  25.286  0.00  0.00    +0.139 A 
ATOM     13  C   UNL     1      -2.650   4.493  24.804  0.00  0.00    +0.037 A 
ATOM     14  C   UNL     1      -3.003   3.751  24.875  0.00  0.00    -0.001 A 
BRANCH  10  11
ATOM     11  O   UNL     1      -1.659   5.438  25.215  0.00  0.00    -0.471 OA
ATOM     12  C   UNL     1      -0.918   5.510  24.862  0.00  0.00    +0.252 C 
ENDBRANCH  10  11
ENDBRANCH   6   7
ENDBRANCH   5   6
ENDBRANCH  15   5
ENDBRANCH  18  16
TORSDOF 10
ENDMDL
MODEL 3
REMARK VINA RESULT:      -8.5      1.451      5.388
REMARK  Name = 
REMARK  10 active torsions:
REMARK  status: ('A' for Active; 'I' for Inactive)
REMARK    1  A    between atoms: O_2  and  C_3
REMARK    2  A    between atoms: C_3  and  C_5
REMARK    3  A    between atoms: C_5  and  C_6
REMARK    4  A    between atoms: C_5  and  N_15
REMARK    5  A    between atoms: C_6  and  C_7
REMARK    6  A    between atoms: C_10  and  O_11
REMARK    7  A    between atoms: C_16  and  C_18
REMARK    8  A    between atoms: N_26  and  C_27
REMARK    9  A    between atoms: C_33  and  C_35
REMARK   10  A    between atoms: C_38  and  N_41
REMARK                            x       y       z     vdW  Elec       q    Type
REMARK                         _______ _______ _______ _____ _____    ______ ____
ROOT
ATOM     18  C   UNL     1      -1.094   0.899  24.401  0.00  0.00    +0.175 C 
ATOM     19  C   UNL     1      -1.859   0.711  24.651  0.00  0.00    +0.123 C 
ATOM     20  N   UNL     1      -2.174  -0.034  24.488  0.00  0.00    -0.272 N 
ATOM     21  C   UNL     1      -1.726  -0.591  24.077  0.00  0.00    +0.115 C 
ATOM     22  C   UNL     1      -0.962  -0.404  23.828  0.00  0.00    +0.117 C 
ATOM     23  N   UNL     1      -0.647   0.341  23.990  0.00  0.00    -0.253 N 
ATOM     24  C   UNL     1       0.117   0.529  23.741  0.00  0.00    +0.324 C 
ATOM     25  O   UNL     1       0.432   1.274  23.903  0.00  0.00    -0.251 OA
ATOM     26  N   UNL     1       0.565  -0.029  23.329  0.00  0.00    -0.190 NA
ATOM     33  C   UNL     1      -2.937  -0.221  24.737  0.00  0.00    +0.249 C 
ATOM     34  O   UNL     1      -3.386   0.336  25.149  0.00  0.00    -0.270 OA
ENDROOT
BRANCH  26  27
ATOM     27  C   UNL     1       1.329   0.160  23.080  0.00  0.00    +0.097 C 
ATOM     28  C   UNL     1       1.578  -0.049  22.321  0.00  0.00    +0.022 C 
ATOM     29  C   UNL     1       2.341   0.139  22.072  0.00  0.00    +0.002 C 
ATOM     30  C   UNL     1       2.856   0.535  22.581  0.00  0.00    +0.000 C 
ATOM     31  C   UNL     1       2.607   0.743  23.339  0.00  0.00    +0.002 C 
ATOM     32  C   UNL     1       1.843   0.556  23.589  0.00  0.00    +0.022 C 
ENDBRANCH  26  27
BRANCH  33  35
ATOM     35  C   UNL     1      -3.253  -0.966  24.575  0.00  0.00    +0.054 A 
ATOM     36  C   UNL     1      -3.753  -1.070  23.927  0.00  0.00    +0.006 A 
ATOM     37  C   UNL     1      -4.069  -1.815  23.764  0.00  0.00    +0.015 A 
ATOM     38  C   UNL     1      -3.884  -2.456  24.251  0.00  0.00    +0.048 A 
ATOM     39  C   UNL     1      -3.385  -2.352  24.898  0.00  0.00    +0.015 A 
ATOM     40  C   UNL     1      -3.069  -1.607  25.060  0.00  0.00    +0.006 A 
BRANCH  38  41
ATOM     41  N   UNL     1      -4.200  -3.200  24.088  0.00  0.00    -0.304 N 
ATOM     42  C   UNL     1      -3.848  -3.876  24.406  0.00  0.00    +0.112 C 
ATOM     43  C   UNL     1      -4.867  -3.271  23.608  0.00  0.00    +0.112 C 
ENDBRANCH  38  41
ENDBRANCH  33  35
BRANCH  18  16
ATOM     15  N   UNL     1      -1.003   2.046  25.247  0.00  0.00    -0.194 NA
ATOM     16  C   UNL     1      -0.779   1.643  24.563  0.00  0.00    +0.262 C 
ATOM     17  O   UNL     1      -0.238   1.984  24.041  0.00  0.00    -0.271 OA
BRANCH  15   5
ATOM      5  C   UNL     1      -0.688   2.791  25.409  0.00  0.00    +0.198 C 
BRANCH   5   3
ATOM      3  C   UNL     1      -0.040   2.864  25.915  0.00  0.00    +0.337 C 
ATOM      4  O   UNL     1       0.591   3.355  25.708  0.00  0.00    -0.248 OA
BRANCH   3   2
ATOM      1  C   UNL     1       0.605   2.553  27.151  0.00  0.00    +0.256 C 
ATOM      2  O   UNL     1      -0.023   2.446  26.626  0.00  0.00    -0.443 OA
ENDBRANCH   3   2
ENDBRANCH   5   3
BRANCH   5   6
ATOM      6  C   UNL     1      -1.019   3.464  25.066  0.00  0.00    +0.059 C 
BRANCH   6   7
ATOM      7  C   UNL     1      -1.800   3.671  25.233  0.00  0.00    -0.020 A 
ATOM      8  C   UNL     1      -2.351   3.730  24.622  0.00  0.00    -0.001 A 
ATOM      9  C   UNL     1      -3.132   3.937  24.789  0.00  0.00    +0.037 A 
ATOM     10  C   UNL     1      -3.362   4.085  25.568  0.00  0.00    +0.139 A 
ATOM     13  C   UNL     1      -2.810   4.026  26.179  0.00  0.00    +0.037 A 
ATOM     14  C   UNL     1      -2.029   3.818  26.011  0.00  0.00    -0.001 A 
BRANCH  10  11
ATOM     11  O   UNL     1      -4.142   4.292  25.736  0.00  0.00    -0.471 OA
ATOM     12  C   UNL     1      -4.756   3.778  25.539  0.00  0.00    +0.252 C 
ENDBRANCH  10  11
ENDBRANCH   6   7
ENDBRANCH   5   6
ENDBRANCH  15   5
ENDBRANCH  18  16
TORSDOF 10
ENDMDL
MODEL 4
REMARK VINA RESULT:      -7.6      2.717      4.758
REMARK  Name = 
REMARK  10 active torsions:
REMARK  status: ('A' for Active; 'I' for Inactive)
REMARK    1  A    between atoms: O_2  and  C_3
REMARK    2  A    between atoms: C_3  and  C_5
REMARK    3  A    between atoms: C_5  and  C_6
REMARK    4  A    between atoms: C_5  and  N_15
REMARK    5  A    between atoms: C_6  and  C_7
REMARK    6  A    between atoms: C_10  and  O_11
REMARK    7  A    between atoms: C_16  and  C_18
REMARK    8  A    between atoms: N_26  and  C_27
REMARK    9  A    between atoms: C_33  and  C_35
REMARK   10  A    between atoms: C_38  and  N_41
REMARK                            x       y       z     vdW  Elec       q    Type
REMARK                         _______ _______ _______ _____ _____    ______ ____
ROOT
ATOM     18  C   UNL     1      -1.431   1.338  25.013  0.00  0.00    +0.175 C 
ATOM     19  C   UNL     1      -1.072   2.021  25.307  0.00  0.00    +0.123 C 
ATOM     20  N   UNL     1      -0.595   1.980  25.979  0.00  0.00    -0.272 N 
ATOM     21  C   UNL     1      -0.478   1.256  26.357  0.00  0.00    +0.115 C 
ATOM     22  C   UNL     1      -0.836   0.574  26.064  0.00  0.00    +0.117 C 
ATOM     23  N   UNL     1      -1.313   0.615  25.392  0.00  0.00    -0.253 N 
ATOM     24  C   UNL     1      -1.672  -0.067  25.098  0.00  0.00    +0.324 C 
ATOM     25  O   UNL     1      -2.149  -0.025  24.426  0.00  0.00    -0.251 OA
ATOM     26  N   UNL     1      -1.554  -0.791  25.477  0.00  0.00    -0.190 NA
ATOM     33  C   UNL     1      -0.237   2.662  26.272  0.00  0.00    +0.249 C 
ATOM     34  O   UNL     1      -0.354   3.386  25.894  0.00  0.00    -0.270 OA
ENDROOT
BRANCH  26  27
ATOM     27  C   UNL     1      -1.914  -1.472  25.183  0.00  0.00    +0.097 C 
ATOM     28  C   UNL     1      -2.698  -1.641  25.376  0.00  0.00    +0.022 C 
ATOM     29  C   UNL     1      -3.058  -2.323  25.083  0.00  0.00    +0.002 C 
ATOM     30  C   UNL     1      -2.633  -2.836  24.596  0.00  0.00    +0.000 C 
ATOM     31  C   UNL     1      -1.850  -2.668  24.403  0.00  0.00    +0.002 C 
ATOM     32  C   UNL     1      -1.489  -1.986  24.697  0.00  0.00    +0.022 C 
ENDBRANCH  26  27
BRANCH  33  35
ATOM     35  C   UNL     1       0.240   2.621  26.944  0.00  0.00    +0.054 A 
ATOM     36  C   UNL     1      -0.103   2.520  27.688  0.00  0.00    +0.006 A 
ATOM     37  C   UNL     1       0.374   2.479  28.361  0.00  0.00    +0.015 A 
ATOM     38  C   UNL     1       1.194   2.539  28.288  0.00  0.00    +0.048 A 
ATOM     39  C   UNL     1       1.537   2.639  27.545  0.00  0.00    +0.015 A 
ATOM     40  C   UNL     1       1.060   2.680  26.873  0.00  0.00    +0.006 A 
BRANCH  38  41
ATOM     41  N   UNL     1       1.670   2.498  28.960  0.00  0.00    -0.304 N 
ATOM     42  C   UNL     1       2.474   2.680  28.908  0.00  0.00    +0.112 C 
ATOM     43  C   UNL     1       1.345   2.274  29.684  0.00  0.00    +0.112 C 
ENDBRANCH  38  41
ENDBRANCH  33  35
BRANCH  18  16
ATOM     15  N   UNL     1      -2.565   1.877  24.332  0.00  0.00    -0.194 NA
ATOM     16  C   UNL     1      -1.908   1.380  24.341  0.00  0.00    +0.262 C 
ATOM     17  O   UNL     1      -1.727   0.922  23.679  0.00  0.00    -0.271 OA
BRANCH  15   5
ATOM      5  C   UNL     1      -3.042   1.918  23.660  0.00  0.00    +0.198 C 
BRANCH   5   3
ATOM      3  C   UNL     1      -2.770   2.305  22.984  0.00  0.00    +0.337 C 
ATOM      4  O   UNL     1      -2.417   3.048  23.048  0.00  0.00    -0.248 OA
BRANCH   3   2
ATOM      1  C   UNL     1      -2.618   2.355  21.564  0.00  0.00    +0.256 C 
ATOM      2  O   UNL     1      -2.851   1.949  22.244  0.00  0.00    -0.443 OA
ENDBRANCH   3   2
ENDBRANCH   5   3
BRANCH   5   6
ATOM      6  C   UNL     1      -3.791   1.573  23.663  0.00  0.00    +0.059 C 
BRANCH   6   7
ATOM      7  C   UNL     1      -4.362   1.831  24.200  0.00  0.00    -0.020 A 
ATOM      8  C   UNL     1      -4.478   2.638  24.322  0.00  0.00    -0.001 A 
ATOM      9  C   UNL     1      -5.049   2.896  24.859  0.00  0.00    +0.037 A 
ATOM     10  C   UNL     1      -5.505   2.346  25.273  0.00  0.00    +0.139 A 
ATOM     13  C   UNL     1      -5.388   1.539  25.149  0.00  0.00    +0.037 A 
ATOM     14  C   UNL     1      -4.817   1.281  24.613  0.00  0.00    -0.001 A 
BRANCH  10  11
ATOM     11  O   UNL     1      -6.076   2.603  25.809  0.00  0.00    -0.471 OA
ATOM     12  C   UNL     1      -6.278   2.131  26.454  0.00  0.00    +0.252 C 
ENDBRANCH  10  11
ENDBRANCH   6   7
ENDBRANCH   5   6
ENDBRANCH  15   5
ENDBRANCH  18  16
TORSDOF 10
ENDMDL
MODEL 5
REMARK VINA RESULT:      -7.3      1.650      6.244
REMARK  Name = 
REMARK  10 active torsions:
REMARK  status: ('A' for Active; 'I' for Inactive)
REMARK    1  A    between atoms: O_2  and  C_3
REMARK    2  A    between atoms: C_3  and  C_5
REMARK    3  A    between atoms: C_5  and  C_6
REMARK    4  A    between atoms: C_5  and  N_15
REMARK    5  A    between atoms: C_6  and  C_7
REMARK    6  A    between atoms: C_10  and  O_11
REMARK    7  A    between atoms: C_16  and  C_18
REMARK    8  A    between atoms: N_26  and  C_27
REMARK    9  A    between atoms: C_33  and  C_35
REMARK   10  A    between atoms: C_38  and  N_41
REMARK                            x       y       z     vdW  Elec       q    Type
REMARK                         _______ _______ _______ _____ _____    ______ ____
ROOT
ATOM     18  C   UNL     1      -2.375   0.570  24.079  0.00  0.00    +0.175 C 
ATOM     19  C   UNL     1      -2.323   1.392  24.133  0.00  0.00    +0.123 C 
ATOM     20  N   UNL     1      -2.964   1.828  24.415  0.00  0.00    -0.272 N 
ATOM     21  C   UNL     1      -3.657   1.442  24.642  0.00  0.00    +0.115 C 
ATOM     22  C   UNL     1      -3.710   0.622  24.588  0.00  0.00    +0.117 C 
ATOM     23  N   UNL     1      -3.069   0.185  24.306  0.00  0.00    -0.253 N 
ATOM     24  C   UNL     1      -3.121  -0.636  24.251  0.00  0.00    +0.324 C 
ATOM     25  O   UNL     1      -2.480  -1.073  23.970  0.00  0.00    -0.251 OA
ATOM     26  N   UNL     1      -3.814  -1.022  24.479  0.00  0.00    -0.190 NA
ATOM     33  C   UNL     1      -2.912   2.649  24.469  0.00  0.00    +0.249 C 
ATOM     34  O   UNL     1      -2.219   3.035  24.242  0.00  0.00    -0.270 OA
ENDROOT
BRANCH  26  27
ATOM     27  C   UNL     1      -3.866  -1.843  24.424  0.00  0.00    +0.097 C 
ATOM     28  C   UNL     1      -3.520  -2.317  25.005  0.00  0.00    +0.022 C 
ATOM     29  C   UNL     1      -3.572  -3.139  24.950  0.00  0.00    +0.002 C 
ATOM     30  C   UNL     1      -3.969  -3.486  24.316  0.00  0.00    +0.000 C 
ATOM     31  C   UNL     1      -4.314  -3.012  23.736  0.00  0.00    +0.002 C 
ATOM     32  C   UNL     1      -4.263  -2.191  23.790  0.00  0.00    +0.022 C 
ENDBRANCH  26  27
BRANCH  33  35
ATOM     35  C   UNL     1      -3.553   3.086  24.751  0.00  0.00    +0.054 A 
ATOM     36  C   UNL     1      -4.164   3.300  24.239  0.00  0.00    +0.006 A 
ATOM     37  C   UNL     1      -4.805   3.736  24.520  0.00  0.00    +0.015 A 
ATOM     38  C   UNL     1      -4.835   3.958  25.315  0.00  0.00    +0.048 A 
ATOM     39  C   UNL     1      -4.225   3.745  25.826  0.00  0.00    +0.015 A 
ATOM     40  C   UNL     1      -3.584   3.308  25.545  0.00  0.00    +0.006 A 
BRANCH  38  41
ATOM     41  N   UNL     1      -5.476   4.395  25.596  0.00  0.00    -0.304 N 
ATOM     42  C   UNL     1      -6.186   4.015  25.776  0.00  0.00    +0.112 C 
ATOM     43  C   UNL     1      -5.407   5.210  25.699  0.00  0.00    +0.112 C 
ENDBRANCH  38  41
ENDBRANCH  33  35
BRANCH  18  16
ATOM     15  N   UNL     1      -1.020   0.138  24.208  0.00  0.00    -0.194 NA
ATOM     16  C   UNL     1      -1.734   0.133  23.797  0.00  0.00    +0.262 C 
ATOM     17  O   UNL     1      -1.809  -0.308  23.104  0.00  0.00    -0.271 OA
BRANCH  15   5
ATOM      5  C   UNL     1      -0.379  -0.298  23.926  0.00  0.00    +0.198 C 
BRANCH   5   3
ATOM      3  C   UNL     1      -0.095  -0.941  24.358  0.00  0.00    +0.337 C 
ATOM      4  O   UNL     1       0.140  -1.629  23.967  0.00  0.00    -0.248 OA
BRANCH   3   2
ATOM      1  C   UNL     1       0.018  -1.587  25.627  0.00  0.00    +0.256 C 
ATOM      2  O   UNL     1      -0.046  -0.896  25.181  0.00  0.00    -0.443 OA
ENDBRANCH   3   2
ENDBRANCH   5   3
BRANCH   5   6
ATOM      6  C   UNL     1      -0.021  -0.092  23.212  0.00  0.00    +0.059 C 
BRANCH   6   7
ATOM      7  C   UNL     1       0.732   0.244  23.210  0.00  0.00    -0.020 A 
ATOM      8  C   UNL     1       1.342  -0.115  22.785  0.00  0.00    -0.001 A 
ATOM      9  C   UNL     1       2.096   0.221  22.782  0.00  0.00    +0.037 A 
ATOM     10  C   UNL     1       2.239   0.916  23.204  0.00  0.00    +0.139 A 
ATOM     13  C   UNL     1       1.629   1.274  23.628  0.00  0.00    +0.037 A 
ATOM     14  C   UNL     1       0.876   0.938  23.631  0.00  0.00    -0.001 A 
BRANCH  10  11
ATOM     11  O   UNL     1       2.993   1.252  23.202  0.00  0.00    -0.471 OA
ATOM     12  C   UNL     1       3.607   0.884  22.793  0.00  0.00    +0.252 C 
ENDBRANCH  10  11
ENDBRANCH   6   7
ENDBRANCH   5   6
ENDBRANCH  15   5
ENDBRANCH  18  16
TORSDOF 10
ENDMDL
MODEL 6
REMARK VINA RESULT:      -7.1      0.873      2.207
REMARK  Name = 
REMARK  10 active torsions:
REMARK  status: ('A' for Active; 'I' for Inactive)
REMARK    1  A    between atoms: O_2  and  C_3
REMARK    2  A    between atoms: C_3  and  C_5
REMARK    3  A    between atoms: C_5  and  C_6
REMARK    4  A    between atoms: C_5  and  N_15
REMARK    5  A    between atoms: C_6  and  C_7
REMARK    6  A    between atoms: C_10  and  O_11
REMARK    7  A    between atoms: C_16  and  C_18
REMARK    8  A    between atoms: N_26  and  C_27
REMARK    9  A    between atoms: C_33  and  C_35
REMARK   10  A    between atoms: C_38  and  N_41
REMARK                            x       y       z     vdW  Elec       q    Type
REMARK                         _______ _______ _______ _____ _____    ______ ____
ROOT
ATOM     18  C   UNL     1      -1.128   0.494  24.670  0.00  0.00    +0.175 C 
ATOM     19  C   UNL     1      -0.655  -0.087  24.323  0.00  0.00    +0.123 C 
ATOM     20  N   UNL     1       0.046   0.124  23.944  0.00  0.00    -0.272 N 
ATOM     21  C   UNL     1       0.275   0.916  23.911  0.00  0.00    +0.115 C 
ATOM     22  C   UNL     1      -0.197   1.497  24.257  0.00  0.00    +0.117 C 
ATOM     23  N   UNL     1      -0.899   1.286  24.636  0.00  0.00    -0.253 N 
ATOM     24  C   UNL     1      -1.372   1.866  24.983  0.00  0.00    +0.324 C 
ATOM     25  O   UNL     1      -2.073   1.655  25.362  0.00  0.00    -0.251 OA
ATOM     26  N   UNL     1      -1.142   2.659  24.950  0.00  0.00    -0.190 NA
ATOM     33  C   UNL     1       0.518  -0.457  23.598  0.00  0.00    +0.249 C 
ATOM     34  O   UNL     1       0.289  -1.249  23.630  0.00  0.00    -0.270 OA
ENDROOT
BRANCH  26  27
ATOM     27  C   UNL     1      -1.615   3.239  25.296  0.00  0.00    +0.097 C 
ATOM     28  C   UNL     1      -1.593   3.355  26.113  0.00  0.00    +0.022 C 
ATOM     29  C   UNL     1      -2.066   3.935  26.460  0.00  0.00    +0.002 C 
ATOM     30  C   UNL     1      -2.560   4.400  25.990  0.00  0.00    +0.000 C 
ATOM     31  C   UNL     1      -2.582   4.284  25.174  0.00  0.00    +0.002 C 
ATOM     32  C   UNL     1      -2.109   3.704  24.827  0.00  0.00    +0.022 C 
ENDBRANCH  26  27
BRANCH  33  35
ATOM     35  C   UNL     1       1.220  -0.246  23.218  0.00  0.00    +0.054 A 
ATOM     36  C   UNL     1       1.913  -0.149  23.656  0.00  0.00    +0.006 A 
ATOM     37  C   UNL     1       2.614   0.062  23.276  0.00  0.00    +0.015 A 
ATOM     38  C   UNL     1       2.623   0.176  22.459  0.00  0.00    +0.048 A 
ATOM     39  C   UNL     1       1.930   0.080  22.022  0.00  0.00    +0.015 A 
ATOM     40  C   UNL     1       1.229  -0.131  22.401  0.00  0.00    +0.006 A 
BRANCH  38  41
ATOM     41  N   UNL     1       3.324   0.387  22.080  0.00  0.00    -0.304 N 
ATOM     42  C   UNL     1       3.902   0.814  22.487  0.00  0.00    +0.112 C 
ATOM     43  C   UNL     1       3.449   0.173  21.293  0.00  0.00    +0.112 C 
ENDBRANCH  38  41
ENDBRANCH  33  35
BRANCH  18  16
ATOM     15  N   UNL     1      -2.498   0.093  24.605  0.00  0.00    -0.194 NA
ATOM     16  C   UNL     1      -1.830   0.283  25.049  0.00  0.00    +0.262 C 
ATOM     17  O   UNL     1      -1.863   0.263  25.874  0.00  0.00    -0.271 OA
BRANCH  15   5
ATOM      5  C   UNL     1      -3.199  -0.118  24.984  0.00  0.00    +0.198 C 
BRANCH   5   3
ATOM      3  C   UNL     1      -3.509  -0.876  24.887  0.00  0.00    +0.337 C 
ATOM      4  O   UNL     1      -3.727  -1.320  25.548  0.00  0.00    -0.248 OA
BRANCH   3   2
ATOM      1  C   UNL     1      -3.810  -1.984  24.036  0.00  0.00    +0.256 C 
ATOM      2  O   UNL     1      -3.602  -1.191  24.130  0.00  0.00    -0.443 OA
ENDBRANCH   3   2
ENDBRANCH   5   3
BRANCH   5   6
ATOM      6  C   UNL     1      -3.591   0.429  25.461  0.00  0.00    +0.059 C 
BRANCH   6   7
ATOM      7  C   UNL     1      -4.292   0.777  25.201  0.00  0.00    -0.020 A 
ATOM      8  C   UNL     1      -4.944   0.819  25.705  0.00  0.00    -0.001 A 
ATOM      9  C   UNL     1      -5.645   1.167  25.444  0.00  0.00    +0.037 A 
ATOM     10  C   UNL     1      -5.694   1.473  24.679  0.00  0.00    +0.139 A 
ATOM     13  C   UNL     1      -5.042   1.430  24.176  0.00  0.00    +0.037 A 
ATOM     14  C   UNL     1      -4.341   1.082  24.436  0.00  0.00    -0.001 A 
BRANCH  10  11
ATOM     11  O   UNL     1      -6.395   1.821  24.418  0.00  0.00    -0.471 OA
ATOM     12  C   UNL     1      -6.867   2.242  24.946  0.00  0.00    +0.252 C 
ENDBRANCH  10  11
ENDBRANCH   6   7
ENDBRANCH   5   6
ENDBRANCH  15   5
ENDBRANCH  18  16
TORSDOF 10
ENDMDL
