MODEL 1
REMARK VINA RESULT:     -13.2      0.000      0.000
REMARK  Name = 
REMARK  5 active torsions:
REMARK  status: ('A' for Active; 'I' for Inactive)
REMARK    1  A    between atoms: O_2  and  C_3
REMARK    2  A    between atoms: C_3  and  C_4
REMARK    3  A    between atoms: C_4  and  C_5
REMARK    4  A    between atoms: N_7  and  C_8
REMARK    5  A    between atoms: N_20  and  C_21
REMARK                            x       y       z     vdW  Elec       q    Type
REMARK                         _______ _______ _______ _____ _____    ______ ____
ROOT
ATOM      8  C   UNL     1      -3.366   2.977  25.172  0.00  0.00    +0.129 A 
ATOM      9  C   UNL     1      -3.994   3.494  25.314  0.00  0.00    +0.023 A 
ATOM     10  C   UNL     1      -4.768   3.210  25.323  0.00  0.00    +0.014 A 
ATOM     11  C   UNL     1      -4.915   2.410  25.190  0.00  0.00    +0.041 A 
ATOM     12  C   UNL     1      -5.611   1.811  25.137  0.00  0.00    +0.058 C 
ATOM     13  C   UNL     1      -6.310   1.775  25.184  0.00  0.00    +0.011 C 
ATOM     14  C   UNL     1      -5.689   1.267  25.045  0.00  0.00    +0.043 C 
ATOM     15  C   UNL     1      -5.083   0.508  24.861  0.00  0.00    +0.097 C 
ATOM     16  N   UNL     1      -4.349   0.908  24.876  0.00  0.00    -0.262 N 
ATOM     17  C   UNL     1      -5.038   1.068  24.958  0.00  0.00    +0.101 C 
ATOM     18  C   UNL     1      -3.533   1.020  24.833  0.00  0.00    +0.327 C 
ATOM     19  O   UNL     1      -3.213   1.773  24.944  0.00  0.00    -0.250 OA
ATOM     20  N   UNL     1      -3.036   0.380  24.679  0.00  0.00    -0.162 NA
ATOM     28  C   UNL     1      -4.956   1.884  25.099  0.00  0.00    +0.110 C 
ATOM     29  N   UNL     1      -4.288   1.893  25.049  0.00  0.00    -0.298 N 
ATOM     30  C   UNL     1      -3.514   2.176  25.040  0.00  0.00    +0.276 A 
ATOM     31  O   UNL     1      -2.753   1.878  24.927  0.00  0.00    -0.266 OA
ENDROOT
BRANCH  20  21
ATOM     21  C   UNL     1      -3.355  -0.372  24.569  0.00  0.00    +0.075 A 
ATOM     22  C   UNL     1      -3.424  -0.889  25.208  0.00  0.00    +0.019 A 
ATOM     23  C   UNL     1      -3.743  -1.642  25.098  0.00  0.00    +0.031 A 
ATOM     24  C   UNL     1      -3.993  -1.878  24.347  0.00  0.00    +0.140 A 
ATOM     25  F   UNL     1      -4.312  -2.632  24.237  0.00  0.00    -0.204 F 
ATOM     26  C   UNL     1      -3.924  -1.361  23.708  0.00  0.00    +0.031 A 
ATOM     27  C   UNL     1      -3.606  -0.609  23.818  0.00  0.00    +0.019 A 
ENDBRANCH  20  21
BRANCH   8   7
ATOM      5  C   UNL     1      -2.414   3.982  25.523  0.00  0.00    +0.248 C 
ATOM      6  O   UNL     1      -3.010   4.418  25.891  0.00  0.00    -0.273 OA
ATOM      7  N   UNL     1      -2.592   3.261  25.164  0.00  0.00    -0.174 NA
BRANCH   5   4
ATOM      4  C   UNL     1      -1.640   4.267  25.515  0.00  0.00    +0.119 C 
BRANCH   4   3
ATOM      3  C   UNL     1      -1.467   4.981  25.138  0.00  0.00    +0.152 C 
BRANCH   3   2
ATOM      1  C   UNL     1      -0.334   5.319  24.336  0.00  0.00    +0.174 C 
ATOM      2  O   UNL     1      -0.685   5.236  25.077  0.00  0.00    -0.351 OA
ENDBRANCH   3   2
ENDBRANCH   4   3
ENDBRANCH   5   4
ENDBRANCH   8   7
TORSDOF 5
ENDMDL
MODEL 2
REMARK VINA RESULT:     -13.0      1.992      4.641
REMARK  Name = 
REMARK  5 active torsions:
REMARK  status: ('A' for Active; 'I' for Inactive)
REMARK    1  A    between atoms: O_2  and  C_3
REMARK    2  A    between atoms: C_3  and  C_4
REMARK    3  A    between atoms: C_4  and  C_5
REMARK    4  A    between atoms: N_7  and  C_8
REMARK    5  A    between atoms: N_20  and  C_21
REMARK                            x       y       z     vdW  Elec       q    Type
REMARK                         _______ _______ _______ _____ _____    ______ ____
ROOT
ATOM      8  C   UNL     1      -4.080   0.757  24.663  0.00  0.00    +0.129 A 
ATOM      9  C   UNL     1      -4.894   0.726  24.798  0.00  0.00    +0.023 A 
ATOM     10  C   UNL     1      -5.299   1.405  25.033  0.00  0.00    +0.014 A 
ATOM     11  C   UNL     1      -4.891   2.115  25.132  0.00  0.00    +0.041 A 
ATOM     12  C   UNL     1      -5.031   2.992  25.368  0.00  0.00    +0.058 C 
ATOM     13  C   UNL     1      -5.539   3.435  25.564  0.00  0.00    +0.011 C 
ATOM     14  C   UNL     1      -4.736   3.461  25.430  0.00  0.00    +0.043 C 
ATOM     15  C   UNL     1      -3.782   3.692  25.318  0.00  0.00    +0.097 C 
ATOM     16  N   UNL     1      -3.484   2.947  25.086  0.00  0.00    -0.262 N 
ATOM     17  C   UNL     1      -4.112   3.231  25.265  0.00  0.00    +0.101 C 
ATOM     18  C   UNL     1      -2.935   2.376  24.853  0.00  0.00    +0.327 C 
ATOM     19  O   UNL     1      -3.181   1.602  24.709  0.00  0.00    -0.250 OA
ATOM     20  N   UNL     1      -2.141   2.580  24.763  0.00  0.00    -0.162 NA
ATOM     28  C   UNL     1      -4.580   2.547  25.182  0.00  0.00    +0.110 C 
ATOM     29  N   UNL     1      -4.077   2.145  24.997  0.00  0.00    -0.298 N 
ATOM     30  C   UNL     1      -3.672   1.466  24.762  0.00  0.00    +0.276 A 
ATOM     31  O   UNL     1      -2.899   1.248  24.574  0.00  0.00    -0.266 OA
ENDROOT
BRANCH  20  21
ATOM     21  C   UNL     1      -1.895   3.354  24.906  0.00  0.00    +0.075 A 
ATOM     22  C   UNL     1      -1.885   3.904  24.292  0.00  0.00    +0.019 A 
ATOM     23  C   UNL     1      -1.639   4.678  24.434  0.00  0.00    +0.031 A 
ATOM     24  C   UNL     1      -1.402   4.903  25.193  0.00  0.00    +0.140 A 
ATOM     25  F   UNL     1      -1.155   5.677  25.336  0.00  0.00    -0.204 F 
ATOM     26  C   UNL     1      -1.412   4.352  25.807  0.00  0.00    +0.031 A 
ATOM     27  C   UNL     1      -1.658   3.579  25.665  0.00  0.00    +0.019 A 
ENDBRANCH  20  21
BRANCH   8   7
ATOM      5  C   UNL     1      -4.091  -0.622  24.289  0.00  0.00    +0.248 C 
ATOM      6  O   UNL     1      -4.910  -0.641  24.385  0.00  0.00    -0.273 OA
ATOM      7  N   UNL     1      -3.676   0.077  24.428  0.00  0.00    -0.174 NA
BRANCH   5   4
ATOM      4  C   UNL     1      -3.688  -1.302  24.054  0.00  0.00    +0.119 C 
BRANCH   4   3
ATOM      3  C   UNL     1      -3.898  -2.036  24.367  0.00  0.00    +0.152 C 
BRANCH   3   2
ATOM      1  C   UNL     1      -3.282  -3.293  24.650  0.00  0.00    +0.174 C 
ATOM      2  O   UNL     1      -3.518  -2.720  24.107  0.00  0.00    -0.351 OA
ENDBRANCH   3   2
ENDBRANCH   4   3
ENDBRANCH   5   4
ENDBRANCH   8   7
TORSDOF 5
ENDMDL
MODEL 3
REMARK VINA RESULT:     -12.5      2.637      4.055
REMARK  Name = 
REMARK  5 active torsions:
REMARK  status: ('A' for Active; 'I' for Inactive)
REMARK    1  A    between atoms: O_2  and  C_3
REMARK    2  A    between atoms: C_3  and  C_4
REMARK    3  A    between atoms: C_4  and  C_5
REMARK    4  A    between atoms: N_7  and  C_8
REMARK    5  A    between atoms: N_20  and  C_21
REMARK                            x       y       z     vdW  Elec       q    Type
REMARK                         _______ _______ _______ _____ _____    ______ ____
ROOT
ATOM      8  C   UNL     1      -1.151  -0.069  24.322  0.00  0.00    +0.129 A 
ATOM      9  C   UNL     1      -1.080  -0.863  24.533  0.00  0.00    +0.023 A 
ATOM     10  C   UNL     1      -1.714  -1.253  24.889  0.00  0.00    +0.014 A 
ATOM     11  C   UNL     1      -2.418  -0.849  25.034  0.00  0.00    +0.041 A 
ATOM     12  C   UNL     1      -3.255  -0.979  25.390  0.00  0.00    +0.058 C 
ATOM     13  C   UNL     1      -3.656  -1.471  25.689  0.00  0.00    +0.011 C 
ATOM     14  C   UNL     1      -3.722  -0.687  25.479  0.00  0.00    +0.043 C 
ATOM     15  C   UNL     1      -3.993   0.246  25.301  0.00  0.00    +0.097 C 
ATOM     16  N   UNL     1      -3.290   0.532  24.950  0.00  0.00    -0.262 N 
ATOM     17  C   UNL     1      -3.532  -0.080  25.225  0.00  0.00    +0.101 C 
ATOM     18  C   UNL     1      -2.769   1.063  24.594  0.00  0.00    +0.327 C 
ATOM     19  O   UNL     1      -2.010   0.816  24.381  0.00  0.00    -0.250 OA
ATOM     20  N   UNL     1      -3.005   1.839  24.451  0.00  0.00    -0.162 NA
ATOM     28  C   UNL     1      -2.850  -0.542  25.105  0.00  0.00    +0.110 C 
ATOM     29  N   UNL     1      -2.488  -0.054  24.823  0.00  0.00    -0.298 N 
ATOM     30  C   UNL     1      -1.855   0.336  24.466  0.00  0.00    +0.276 A 
ATOM     31  O   UNL     1      -1.684   1.088  24.176  0.00  0.00    -0.266 OA
ENDROOT
BRANCH  20  21
ATOM     21  C   UNL     1      -3.763   2.086  24.663  0.00  0.00    +0.075 A 
ATOM     22  C   UNL     1      -3.892   2.436  25.399  0.00  0.00    +0.019 A 
ATOM     23  C   UNL     1      -4.648   2.683  25.612  0.00  0.00    +0.031 A 
ATOM     24  C   UNL     1      -5.279   2.581  25.088  0.00  0.00    +0.140 A 
ATOM     25  F   UNL     1      -6.037   2.828  25.301  0.00  0.00    -0.204 F 
ATOM     26  C   UNL     1      -5.150   2.231  24.353  0.00  0.00    +0.031 A 
ATOM     27  C   UNL     1      -4.393   1.984  24.140  0.00  0.00    +0.019 A 
ENDBRANCH  20  21
BRANCH   8   7
ATOM      5  C   UNL     1       0.134  -0.111  23.699  0.00  0.00    +0.248 C 
ATOM      6  O   UNL     1       0.151  -0.930  23.789  0.00  0.00    -0.273 OA
ATOM      7  N   UNL     1      -0.517   0.321  23.965  0.00  0.00    -0.174 NA
BRANCH   5   4
ATOM      4  C   UNL     1       0.768   0.278  23.343  0.00  0.00    +0.119 C 
BRANCH   4   3
ATOM      3  C   UNL     1       1.377  -0.158  22.995  0.00  0.00    +0.152 C 
BRANCH   3   2
ATOM      1  C   UNL     1       2.703   0.140  22.555  0.00  0.00    +0.174 C 
ATOM      2  O   UNL     1       1.887   0.203  22.456  0.00  0.00    -0.351 OA
ENDBRANCH   3   2
ENDBRANCH   4   3
ENDBRANCH   5   4
ENDBRANCH   8   7
TORSDOF 5
ENDMDL
MODEL 4
REMARK VINA RESULT:     -12.1      2.008      3.193
REMARK  Name = 
REMARK  5 active torsions:
REMARK  status: ('A' for Active; 'I' for Inactive)
REMARK    1  A    between atoms: O_2  and  C_3
REMARK    2  A    between atoms: C_3  and  C_4
REMARK    3  A    between atoms: C_4  and  C_5
REMARK    4  A    between atoms: N_7  and  C_8
REMARK    5  A    between atoms: N_20  and  C_21
REMARK                            x       y       z     vdW  Elec       q    Type
REMARK                         _______ _______ _______ _____ _____    ______ ____
ROOT
ATOM      8  C   UNL     1      -1.232   1.645  24.988  0.00  0.00    +0.129 A 
ATOM      9  C   UNL     1      -0.423   1.692  24.829  0.00  0.00    +0.023 A 
ATOM     10  C   UNL     1      -0.009   1.019  24.594  0.00  0.00    +0.014 A 
ATOM     11  C   UNL     1      -0.403   0.298  24.518  0.00  0.00    +0.041 A 
ATOM     12  C   UNL     1      -0.248  -0.580  24.293  0.00  0.00    +0.058 C 
ATOM     13  C   UNL     1       0.264  -1.014  24.090  0.00  0.00    +0.011 C 
ATOM     14  C   UNL     1      -0.534  -1.057  24.248  0.00  0.00    +0.043 C 
ATOM     15  C   UNL     1      -1.479  -1.308  24.392  0.00  0.00    +0.097 C 
ATOM     16  N   UNL     1      -1.788  -0.566  24.619  0.00  0.00    -0.262 N 
ATOM     17  C   UNL     1      -1.158  -0.838  24.427  0.00  0.00    +0.101 C 
ATOM     18  C   UNL     1      -2.343  -0.004  24.859  0.00  0.00    +0.327 C 
ATOM     19  O   UNL     1      -2.111   0.779  24.982  0.00  0.00    -0.250 OA
ATOM     20  N   UNL     1      -3.129  -0.225  24.976  0.00  0.00    -0.162 NA
ATOM     28  C   UNL     1      -0.705  -0.142  24.485  0.00  0.00    +0.110 C 
ATOM     29  N   UNL     1      -1.211   0.251  24.678  0.00  0.00    -0.298 N 
ATOM     30  C   UNL     1      -1.626   0.924  24.913  0.00  0.00    +0.276 A 
ATOM     31  O   UNL     1      -2.398   1.128  25.119  0.00  0.00    -0.266 OA
ENDROOT
BRANCH  20  21
ATOM     21  C   UNL     1      -3.361  -1.007  24.853  0.00  0.00    +0.075 A 
ATOM     22  C   UNL     1      -3.662  -1.237  24.121  0.00  0.00    +0.019 A 
ATOM     23  C   UNL     1      -3.894  -2.018  23.997  0.00  0.00    +0.031 A 
ATOM     24  C   UNL     1      -3.825  -2.571  24.606  0.00  0.00    +0.140 A 
ATOM     25  F   UNL     1      -4.057  -3.353  24.483  0.00  0.00    -0.204 F 
ATOM     26  C   UNL     1      -3.523  -2.340  25.339  0.00  0.00    +0.031 A 
ATOM     27  C   UNL     1      -3.291  -1.559  25.462  0.00  0.00    +0.019 A 
ENDBRANCH  20  21
BRANCH   8   7
ATOM      5  C   UNL     1      -1.242   3.029  25.342  0.00  0.00    +0.248 C 
ATOM      6  O   UNL     1      -0.426   3.065  25.226  0.00  0.00    -0.273 OA
ATOM      7  N   UNL     1      -1.645   2.319  25.223  0.00  0.00    -0.174 NA
BRANCH   5   4
ATOM      4  C   UNL     1      -1.655   3.703  25.576  0.00  0.00    +0.119 C 
BRANCH   4   3
ATOM      3  C   UNL     1      -1.440   4.443  25.280  0.00  0.00    +0.152 C 
BRANCH   3   2
ATOM      1  C   UNL     1      -1.748   5.822  25.067  0.00  0.00    +0.174 C 
ATOM      2  O   UNL     1      -1.911   5.102  25.435  0.00  0.00    -0.351 OA
ENDBRANCH   3   2
ENDBRANCH   4   3
ENDBRANCH   5   4
ENDBRANCH   8   7
TORSDOF 5
ENDMDL
MODEL 5
REMARK VINA RESULT:     -11.9      2.523      3.801
REMARK  Name = 
REMARK  5 active torsions:
REMARK  status: ('A' for Active; 'I' for Inactive)
REMARK    1  A    between atoms: O_2  and  C_3
REMARK    2  A    between atoms: C_3  and  C_4
REMARK    3  A    between atoms: C_4  and  C_5
REMARK    4  A    between atoms: N_7  and  C_8
REMARK    5  A    between atoms: N_20  and  C_21
REMARK                            x       y       z     vdW  Elec       q    Type
REMARK                         _______ _______ _______ _____ _____    ______ ____
ROOT
ATOM      8  C   UNL     1      -0.933   1.955  24.382  0.00  0.00    +0.129 A 
ATOM      9  C   UNL     1      -0.424   2.560  24.616  0.00  0.00    +0.023 A 
ATOM     10  C   UNL     1      -0.724   3.228  24.996  0.00  0.00    +0.014 A 
ATOM     11  C   UNL     1      -1.534   3.291  25.141  0.00  0.00    +0.041 A 
ATOM     12  C   UNL     1      -2.150   3.861  25.515  0.00  0.00    +0.058 C 
ATOM     13  C   UNL     1      -2.200   4.483  25.836  0.00  0.00    +0.011 C 
ATOM     14  C   UNL     1      -2.700   3.883  25.604  0.00  0.00    +0.043 C 
ATOM     15  C   UNL     1      -3.453   3.276  25.403  0.00  0.00    +0.097 C 
ATOM     16  N   UNL     1      -3.036   2.655  25.031  0.00  0.00    -0.262 N 
ATOM     17  C   UNL     1      -2.888   3.285  25.328  0.00  0.00    +0.101 C 
ATOM     18  C   UNL     1      -2.908   1.934  24.649  0.00  0.00    +0.327 C 
ATOM     19  O   UNL     1      -2.143   1.714  24.430  0.00  0.00    -0.250 OA
ATOM     20  N   UNL     1      -3.543   1.435  24.486  0.00  0.00    -0.162 NA
ATOM     28  C   UNL     1      -2.064   3.281  25.211  0.00  0.00    +0.110 C 
ATOM     29  N   UNL     1      -2.043   2.685  24.907  0.00  0.00    -0.298 N 
ATOM     30  C   UNL     1      -1.742   2.017  24.527  0.00  0.00    +0.276 A 
ATOM     31  O   UNL     1      -2.029   1.311  24.211  0.00  0.00    -0.266 OA
ENDROOT
BRANCH  20  21
ATOM     21  C   UNL     1      -4.308   1.655  24.705  0.00  0.00    +0.075 A 
ATOM     22  C   UNL     1      -4.755   2.139  24.209  0.00  0.00    +0.019 A 
ATOM     23  C   UNL     1      -5.519   2.359  24.426  0.00  0.00    +0.031 A 
ATOM     24  C   UNL     1      -5.837   2.095  25.141  0.00  0.00    +0.140 A 
ATOM     25  F   UNL     1      -6.602   2.315  25.359  0.00  0.00    -0.204 F 
ATOM     26  C   UNL     1      -5.389   1.611  25.637  0.00  0.00    +0.031 A 
ATOM     27  C   UNL     1      -4.625   1.391  25.419  0.00  0.00    +0.019 A 
ENDBRANCH  20  21
BRANCH   8   7
ATOM      5  C   UNL     1       0.184   1.186  23.934  0.00  0.00    +0.248 C 
ATOM      6  O   UNL     1       0.698   1.752  24.244  0.00  0.00    -0.273 OA
ATOM      7  N   UNL     1      -0.632   1.287  24.003  0.00  0.00    -0.174 NA
BRANCH   5   4
ATOM      4  C   UNL     1       0.486   0.518  23.555  0.00  0.00    +0.119 C 
BRANCH   4   3
ATOM      3  C   UNL     1       1.229   0.548  23.195  0.00  0.00    +0.152 C 
BRANCH   3   2
ATOM      1  C   UNL     1       2.241  -0.064  22.395  0.00  0.00    +0.174 C 
ATOM      2  O   UNL     1       1.498  -0.092  22.751  0.00  0.00    -0.351 OA
ENDBRANCH   3   2
ENDBRANCH   4   3
ENDBRANCH   5   4
ENDBRANCH   8   7
TORSDOF 5
ENDMDL
