MODEL 1
REMARK VINA RESULT:     -12.8      0.000      0.000
REMARK  Name = 
REMARK  8 active torsions:
REMARK  status: ('A' for Active; 'I' for Inactive)
REMARK    1  A    between atoms: C_2  and  C_3
REMARK    2  A    between atoms: C_3  and  C_4
REMARK    3  A    between atoms: C_9  and  C_10
REMARK    4  A    between atoms: C_10  and  C_11
REMARK    5  A    between atoms: C_14  and  C_15
REMARK    6  A    between atoms: C_15  and  O_16
REMARK    7  A    between atoms: O_16  and  C_17
REMARK    8  A    between atoms: C_27  and  N_30
REMARK                            x       y       z     vdW  Elec       q    Type
REMARK                         _______ _______ _______ _____ _____    ______ ____
ROOT
ATOM      4  C   UNL     1      -0.571   3.110  24.866  0.00  0.00    +0.012 C 
ATOM      5  C   UNL     1      -0.121   3.293  24.199  0.00  0.00    +0.019 C 
ATOM      6  C   UNL     1      -0.065   4.073  23.941  0.00  0.00    +0.089 C 
ATOM      7  N   UNL     1      -0.459   4.673  24.349  0.00  0.00    -0.218 NA
ATOM      8  C   UNL     1      -0.910   4.490  25.015  0.00  0.00    +0.089 C 
ATOM      9  C   UNL     1      -0.966   3.709  25.274  0.00  0.00    +0.024 C 
ENDROOT
BRANCH   4   3
ATOM      3  C   UNL     1      -0.628   2.328  25.125  0.00  0.00    +0.085 C 
BRANCH   3   2
ATOM      1  O   UNL     1       0.301   1.850  24.149  0.00  0.00    -0.275 OA
ATOM      2  C   UNL     1      -0.339   1.716  24.654  0.00  0.00    +0.226 C 
ATOM     24  N   UNL     1      -0.689   0.969  24.686  0.00  0.00    -0.279 N 
ATOM     25  C   UNL     1      -0.400   0.357  24.215  0.00  0.00    +0.095 C 
ATOM     26  C   UNL     1      -0.750  -0.390  24.248  0.00  0.00    +0.044 C 
ATOM     27  C   UNL     1      -1.389  -0.523  24.752  0.00  0.00    +0.093 C 
ATOM     28  C   UNL     1      -1.678   0.089  25.224  0.00  0.00    +0.044 C 
ATOM     29  C   UNL     1      -1.328   0.836  25.191  0.00  0.00    +0.095 C 
BRANCH  27  30
ATOM     30  N   UNL     1      -1.739  -1.270  24.785  0.00  0.00    -0.280 N 
ATOM     31  C   UNL     1      -1.383  -1.960  25.063  0.00  0.00    +0.350 A 
ATOM     32  O   UNL     1      -0.615  -2.025  25.357  0.00  0.00    -0.244 OA
ATOM     33  N   UNL     1      -1.931  -2.574  24.996  0.00  0.00    -0.191 NA
ATOM     34  C   UNL     1      -2.624  -2.263  24.677  0.00  0.00    +0.102 A 
ATOM     35  C   UNL     1      -3.349  -2.608  24.487  0.00  0.00    +0.021 A 
ATOM     36  C   UNL     1      -3.954  -2.149  24.168  0.00  0.00    +0.002 A 
ATOM     37  C   UNL     1      -3.836  -1.343  24.038  0.00  0.00    +0.002 A 
ATOM     38  C   UNL     1      -3.112  -0.996  24.227  0.00  0.00    +0.019 A 
ATOM     39  C   UNL     1      -2.505  -1.457  24.547  0.00  0.00    +0.082 A 
ENDBRANCH  27  30
ENDBRANCH   3   2
ENDBRANCH   4   3
BRANCH   9  10
ATOM     10  C   UNL     1      -1.416   3.526  25.941  0.00  0.00    +0.051 C 
BRANCH  10  11
ATOM     11  C   UNL     1      -2.194   3.794  25.999  0.00  0.00    +0.100 A 
ATOM     12  N   UNL     1      -2.430   4.566  26.173  0.00  0.00    -0.082 NA
ATOM     13  O   UNL     1      -3.254   4.587  26.176  0.00  0.00    -0.354 OA
ATOM     14  C   UNL     1      -3.529   3.828  26.004  0.00  0.00    +0.198 A 
ATOM     23  C   UNL     1      -2.874   3.339  25.895  0.00  0.00    +0.057 A 
BRANCH  14  15
ATOM     15  C   UNL     1      -4.319   3.600  25.950  0.00  0.00    +0.272 C 
BRANCH  15  16
ATOM     16  O   UNL     1      -4.620   3.316  25.236  0.00  0.00    -0.467 OA
BRANCH  16  17
ATOM     17  C   UNL     1      -5.204   2.734  25.236  0.00  0.00    +0.139 A 
ATOM     18  C   UNL     1      -5.214   2.159  24.644  0.00  0.00    +0.037 A 
ATOM     19  C   UNL     1      -5.798   1.577  24.644  0.00  0.00    +0.003 A 
ATOM     20  C   UNL     1      -6.372   1.569  25.236  0.00  0.00    +0.000 A 
ATOM     21  C   UNL     1      -6.362   2.143  25.829  0.00  0.00    +0.003 A 
ATOM     22  C   UNL     1      -5.778   2.726  25.829  0.00  0.00    +0.037 A 
ENDBRANCH  16  17
ENDBRANCH  15  16
ENDBRANCH  14  15
ENDBRANCH  10  11
ENDBRANCH   9  10
TORSDOF 8
ENDMDL
MODEL 2
REMARK VINA RESULT:     -11.8      1.510      6.149
REMARK  Name = 
REMARK  8 active torsions:
REMARK  status: ('A' for Active; 'I' for Inactive)
REMARK    1  A    between atoms: C_2  and  C_3
REMARK    2  A    between atoms: C_3  and  C_4
REMARK    3  A    between atoms: C_9  and  C_10
REMARK    4  A    between atoms: C_10  and  C_11
REMARK    5  A    between atoms: C_14  and  C_15
REMARK    6  A    between atoms: C_15  and  O_16
REMARK    7  A    between atoms: O_16  and  C_17
REMARK    8  A    between atoms: C_27  and  N_30
REMARK                            x       y       z     vdW  Elec       q    Type
REMARK                         _______ _______ _______ _____ _____    ______ ____
ROOT
ATOM      4  C   UNL     1      -3.802  -1.038  24.601  0.00  0.00    +0.012 C 
ATOM      5  C   UNL     1      -4.442  -1.198  24.106  0.00  0.00    +0.019 C 
ATOM      6  C   UNL     1      -4.536  -1.951  23.784  0.00  0.00    +0.089 C 
ATOM      7  N   UNL     1      -3.989  -2.545  23.956  0.00  0.00    -0.218 NA
ATOM      8  C   UNL     1      -3.349  -2.385  24.451  0.00  0.00    +0.089 C 
ATOM      9  C   UNL     1      -3.255  -1.631  24.773  0.00  0.00    +0.024 C 
ENDROOT
BRANCH   4   3
ATOM      3  C   UNL     1      -3.708  -0.284  24.924  0.00  0.00    +0.085 C 
BRANCH   3   2
ATOM      1  O   UNL     1      -4.574   0.279  23.936  0.00  0.00    -0.275 OA
ATOM      2  C   UNL     1      -4.006   0.374  24.527  0.00  0.00    +0.226 C 
ATOM     24  N   UNL     1      -3.736   1.130  24.720  0.00  0.00    -0.279 N 
ATOM     25  C   UNL     1      -4.034   1.789  24.323  0.00  0.00    +0.095 C 
ATOM     26  C   UNL     1      -3.764   2.544  24.517  0.00  0.00    +0.044 C 
ATOM     27  C   UNL     1      -3.197   2.640  25.108  0.00  0.00    +0.093 C 
ATOM     28  C   UNL     1      -2.899   1.981  25.505  0.00  0.00    +0.044 C 
ATOM     29  C   UNL     1      -3.169   1.226  25.311  0.00  0.00    +0.095 C 
BRANCH  27  30
ATOM     30  N   UNL     1      -2.927   3.396  25.302  0.00  0.00    -0.280 N 
ATOM     31  C   UNL     1      -3.341   3.961  25.736  0.00  0.00    +0.350 A 
ATOM     32  O   UNL     1      -4.097   3.871  26.054  0.00  0.00    -0.244 OA
ATOM     33  N   UNL     1      -2.866   4.634  25.798  0.00  0.00    -0.191 NA
ATOM     34  C   UNL     1      -2.159   4.483  25.401  0.00  0.00    +0.102 A 
ATOM     35  C   UNL     1      -1.485   4.943  25.279  0.00  0.00    +0.021 A 
ATOM     36  C   UNL     1      -0.849   4.638  24.851  0.00  0.00    +0.002 A 
ATOM     37  C   UNL     1      -0.887   3.874  24.544  0.00  0.00    +0.002 A 
ATOM     38  C   UNL     1      -1.561   3.413  24.665  0.00  0.00    +0.019 A 
ATOM     39  C   UNL     1      -2.197   3.718  25.094  0.00  0.00    +0.082 A 
ENDBRANCH  27  30
ENDBRANCH   3   2
ENDBRANCH   4   3
BRANCH   9  10
ATOM     10  C   UNL     1      -2.615  -1.471  25.268  0.00  0.00    +0.051 C 
BRANCH  10  11
ATOM     11  C   UNL     1      -1.845  -1.608  25.005  0.00  0.00    +0.100 A 
ATOM     12  N   UNL     1      -1.471  -2.342  24.960  0.00  0.00    -0.082 NA
ATOM     13  O   UNL     1      -0.709  -2.223  24.668  0.00  0.00    -0.354 OA
ATOM     14  C   UNL     1      -0.611  -1.415  24.531  0.00  0.00    +0.198 A 
ATOM     23  C   UNL     1      -1.314  -1.036  24.739  0.00  0.00    +0.057 A 
BRANCH  14  15
ATOM     15  C   UNL     1       0.068  -1.052  24.237  0.00  0.00    +0.272 C 
BRANCH  15  16
ATOM     16  O   UNL     1       0.006  -0.454  23.673  0.00  0.00    -0.467 OA
BRANCH  16  17
ATOM     17  C   UNL     1       0.680  -0.049  23.424  0.00  0.00    +0.139 A 
ATOM     18  C   UNL     1       1.182  -0.390  22.865  0.00  0.00    +0.037 A 
ATOM     19  C   UNL     1       1.856   0.015  22.616  0.00  0.00    +0.003 A 
ATOM     20  C   UNL     1       2.029   0.760  22.926  0.00  0.00    +0.000 A 
ATOM     21  C   UNL     1       1.526   1.100  23.485  0.00  0.00    +0.003 A 
ATOM     22  C   UNL     1       0.852   0.696  23.735  0.00  0.00    +0.037 A 
ENDBRANCH  16  17
ENDBRANCH  15  16
ENDBRANCH  14  15
ENDBRANCH  10  11
ENDBRANCH   9  10
TORSDOF 8
ENDMDL
MODEL 3
REMARK VINA RESULT:     -11.5      2.792      6.655
REMARK  Name = 
REMARK  8 active torsions:
REMARK  status: ('A' for Active; 'I' for Inactive)
REMARK    1  A    between atoms: C_2  and  C_3
REMARK    2  A    between atoms: C_3  and  C_4
REMARK    3  A    between atoms: C_9  and  C_10
REMARK    4  A    between atoms: C_10  and  C_11
REMARK    5  A    between atoms: C_14  and  C_15
REMARK    6  A    between atoms: C_15  and  O_16
REMARK    7  A    between atoms: O_16  and  C_17
REMARK    8  A    between atoms: C_27  and  N_30
REMARK                            x       y       z     vdW  Elec       q    Type
REMARK                         _______ _______ _______ _____ _____    ______ ____
ROOT
ATOM      4  C   UNL     1      -0.599   0.021  24.361  0.00  0.00    +0.012 C 
ATOM      5  C   UNL     1      -0.869  -0.481  24.957  0.00  0.00    +0.019 C 
ATOM      6  C   UNL     1      -0.555  -1.240  25.030  0.00  0.00    +0.089 C 
ATOM      7  N   UNL     1       0.029  -1.497  24.508  0.00  0.00    -0.218 NA
ATOM      8  C   UNL     1       0.300  -0.995  23.912  0.00  0.00    +0.089 C 
ATOM      9  C   UNL     1      -0.014  -0.235  23.839  0.00  0.00    +0.024 C 
ENDROOT
BRANCH   4   3
ATOM      3  C   UNL     1      -0.913   0.781  24.288  0.00  0.00    +0.085 C 
BRANCH   3   2
ATOM      1  O   UNL     1      -0.573   1.202  25.611  0.00  0.00    -0.275 OA
ATOM      2  C   UNL     1      -1.083   1.224  24.963  0.00  0.00    +0.226 C 
ATOM     24  N   UNL     1      -1.764   1.690  24.990  0.00  0.00    -0.279 N 
ATOM     25  C   UNL     1      -1.934   2.133  25.665  0.00  0.00    +0.095 C 
ATOM     26  C   UNL     1      -2.614   2.599  25.692  0.00  0.00    +0.044 C 
ATOM     27  C   UNL     1      -3.125   2.621  25.044  0.00  0.00    +0.093 C 
ATOM     28  C   UNL     1      -2.955   2.178  24.369  0.00  0.00    +0.044 C 
ATOM     29  C   UNL     1      -2.274   1.712  24.342  0.00  0.00    +0.095 C 
BRANCH  27  30
ATOM     30  N   UNL     1      -3.805   3.087  25.071  0.00  0.00    -0.280 N 
ATOM     31  C   UNL     1      -3.850   3.891  24.893  0.00  0.00    +0.350 A 
ATOM     32  O   UNL     1      -3.222   4.371  24.656  0.00  0.00    -0.244 OA
ATOM     33  N   UNL     1      -4.633   4.131  24.993  0.00  0.00    -0.191 NA
ATOM     34  C   UNL     1      -5.072   3.476  25.233  0.00  0.00    +0.102 A 
ATOM     35  C   UNL     1      -5.871   3.383  25.414  0.00  0.00    +0.021 A 
ATOM     36  C   UNL     1      -6.159   2.645  25.643  0.00  0.00    +0.002 A 
ATOM     37  C   UNL     1      -5.648   2.000  25.692  0.00  0.00    +0.002 A 
ATOM     38  C   UNL     1      -4.848   2.092  25.511  0.00  0.00    +0.019 A 
ATOM     39  C   UNL     1      -4.560   2.831  25.281  0.00  0.00    +0.082 A 
ENDBRANCH  27  30
ENDBRANCH   3   2
ENDBRANCH   4   3
BRANCH   9  10
ATOM     10  C   UNL     1       0.256   0.267  23.243  0.00  0.00    +0.051 C 
BRANCH  10  11
ATOM     11  C   UNL     1       0.994   0.138  22.897  0.00  0.00    +0.100 A 
ATOM     12  N   UNL     1       1.135  -0.268  22.193  0.00  0.00    -0.082 NA
ATOM     13  O   UNL     1       1.947  -0.266  22.054  0.00  0.00    -0.354 OA
ATOM     14  C   UNL     1       2.310   0.143  22.673  0.00  0.00    +0.198 A 
ATOM     23  C   UNL     1       1.720   0.392  23.193  0.00  0.00    +0.057 A 
BRANCH  14  15
ATOM     15  C   UNL     1       3.119   0.278  22.756  0.00  0.00    +0.272 C 
BRANCH  15  16
ATOM     16  O   UNL     1       3.630  -0.352  22.907  0.00  0.00    -0.467 OA
BRANCH  16  17
ATOM     17  C   UNL     1       4.356  -0.216  23.272  0.00  0.00    +0.139 A 
ATOM     18  C   UNL     1       4.692  -0.798  23.752  0.00  0.00    +0.037 A 
ATOM     19  C   UNL     1       5.419  -0.661  24.117  0.00  0.00    +0.003 A 
ATOM     20  C   UNL     1       5.811   0.055  24.003  0.00  0.00    +0.000 A 
ATOM     21  C   UNL     1       5.475   0.637  23.523  0.00  0.00    +0.003 A 
ATOM     22  C   UNL     1       4.748   0.501  23.157  0.00  0.00    +0.037 A 
ENDBRANCH  16  17
ENDBRANCH  15  16
ENDBRANCH  14  15
ENDBRANCH  10  11
ENDBRANCH   9  10
TORSDOF 8
ENDMDL
MODEL 4
REMARK VINA RESULT:     -11.5      1.608      5.624
REMARK  Name = 
REMARK  8 active torsions:
REMARK  status: ('A' for Active; 'I' for Inactive)
REMARK    1  A    between atoms: C_2  and  C_3
REMARK    2  A    between atoms: C_3  and  C_4
REMARK    3  A    between atoms: C_9  and  C_10
REMARK    4  A    between atoms: C_10  and  C_11
REMARK    5  A    between atoms: C_14  and  C_15
REMARK    6  A    between atoms: C_15  and  O_16
REMARK    7  A    between atoms: O_16  and  C_17
REMARK    8  A    between atoms: C_27  and  N_30
REMARK                            x       y       z     vdW  Elec       q    Type
REMARK                         _______ _______ _______ _____ _____    ______ ____
ROOT
ATOM      4  C   UNL     1      -3.151  -1.890  24.705  0.00  0.00    +0.012 C 
ATOM      5  C   UNL     1      -3.534  -2.416  24.198  0.00  0.00    +0.019 C 
ATOM      6  C   UNL     1      -3.114  -3.037  23.855  0.00  0.00    +0.089 C 
ATOM      7  N   UNL     1      -2.311  -3.133  24.019  0.00  0.00    -0.218 NA
ATOM      8  C   UNL     1      -1.928  -2.606  24.526  0.00  0.00    +0.089 C 
ATOM      9  C   UNL     1      -2.348  -1.984  24.869  0.00  0.00    +0.024 C 
ENDROOT
BRANCH   4   3
ATOM      3  C   UNL     1      -3.571  -1.268  25.048  0.00  0.00    +0.085 C 
BRANCH   3   2
ATOM      1  O   UNL     1      -4.590  -1.339  24.048  0.00  0.00    -0.275 OA
ATOM      2  C   UNL     1      -4.199  -0.920  24.641  0.00  0.00    +0.226 C 
ATOM     24  N   UNL     1      -4.437  -0.152  24.827  0.00  0.00    -0.279 N 
ATOM     25  C   UNL     1      -5.064   0.196  24.420  0.00  0.00    +0.095 C 
ATOM     26  C   UNL     1      -5.302   0.964  24.607  0.00  0.00    +0.044 C 
ATOM     27  C   UNL     1      -4.911   1.384  25.200  0.00  0.00    +0.093 C 
ATOM     28  C   UNL     1      -4.284   1.036  25.607  0.00  0.00    +0.044 C 
ATOM     29  C   UNL     1      -4.046   0.268  25.421  0.00  0.00    +0.095 C 
BRANCH  27  30
ATOM     30  N   UNL     1      -5.149   2.152  25.386  0.00  0.00    -0.280 N 
ATOM     31  C   UNL     1      -5.774   2.359  25.883  0.00  0.00    +0.350 A 
ATOM     32  O   UNL     1      -6.271   1.835  26.281  0.00  0.00    -0.244 OA
ATOM     33  N   UNL     1      -5.814   3.183  25.912  0.00  0.00    -0.191 NA
ATOM     34  C   UNL     1      -5.214   3.484  25.434  0.00  0.00    +0.102 A 
ATOM     35  C   UNL     1      -4.988   4.256  25.251  0.00  0.00    +0.021 A 
ATOM     36  C   UNL     1      -4.352   4.392  24.745  0.00  0.00    +0.002 A 
ATOM     37  C   UNL     1      -3.941   3.755  24.420  0.00  0.00    +0.002 A 
ATOM     38  C   UNL     1      -4.166   2.982  24.601  0.00  0.00    +0.019 A 
ATOM     39  C   UNL     1      -4.803   2.847  25.109  0.00  0.00    +0.082 A 
ENDBRANCH  27  30
ENDBRANCH   3   2
ENDBRANCH   4   3
BRANCH   9  10
ATOM     10  C   UNL     1      -1.965  -1.458  25.376  0.00  0.00    +0.051 C 
BRANCH  10  11
ATOM     11  C   UNL     1      -1.317  -1.024  25.107  0.00  0.00    +0.100 A 
ATOM     12  N   UNL     1      -0.596  -1.337  24.855  0.00  0.00    -0.082 NA
ATOM     13  O   UNL     1      -0.108  -0.709  24.636  0.00  0.00    -0.354 OA
ATOM     14  C   UNL     1      -0.528  -0.008  24.752  0.00  0.00    +0.198 A 
ATOM     23  C   UNL     1      -1.274  -0.204  25.044  0.00  0.00    +0.057 A 
BRANCH  14  15
ATOM     15  C   UNL     1      -0.249   0.754  24.604  0.00  0.00    +0.272 C 
BRANCH  15  16
ATOM     16  O   UNL     1      -0.144   1.284  25.227  0.00  0.00    -0.467 OA
BRANCH  16  17
ATOM     17  C   UNL     1      -0.250   2.092  25.104  0.00  0.00    +0.139 A 
ATOM     18  C   UNL     1      -0.498   2.576  25.725  0.00  0.00    +0.037 A 
ATOM     19  C   UNL     1      -0.603   3.384  25.601  0.00  0.00    +0.003 A 
ATOM     20  C   UNL     1      -0.462   3.711  24.857  0.00  0.00    +0.000 A 
ATOM     21  C   UNL     1      -0.213   3.227  24.236  0.00  0.00    +0.003 A 
ATOM     22  C   UNL     1      -0.107   2.418  24.359  0.00  0.00    +0.037 A 
ENDBRANCH  16  17
ENDBRANCH  15  16
ENDBRANCH  14  15
ENDBRANCH  10  11
ENDBRANCH   9  10
TORSDOF 8
ENDMDL
MODEL 5
REMARK VINA RESULT:     -11.3      1.505      4.008
REMARK  Name = 
REMARK  8 active torsions:
REMARK  status: ('A' for Active; 'I' for Inactive)
REMARK    1  A    between atoms: C_2  and  C_3
REMARK    2  A    between atoms: C_3  and  C_4
REMARK    3  A    between atoms: C_9  and  C_10
REMARK    4  A    between atoms: C_10  and  C_11
REMARK    5  A    between atoms: C_14  and  C_15
REMARK    6  A    between atoms: C_15  and  O_16
REMARK    7  A    between atoms: O_16  and  C_17
REMARK    8  A    between atoms: C_27  and  N_30
REMARK                            x       y       z     vdW  Elec       q    Type
REMARK                         _______ _______ _______ _____ _____    ______ ____
ROOT
ATOM      4  C   UNL     1      -5.267   2.214  25.152  0.00  0.00    +0.012 C 
ATOM      5  C   UNL     1      -5.865   2.164  25.718  0.00  0.00    +0.019 C 
ATOM      6  C   UNL     1      -6.203   2.852  26.022  0.00  0.00    +0.089 C 
ATOM      7  N   UNL     1      -5.944   3.591  25.760  0.00  0.00    -0.218 NA
ATOM      8  C   UNL     1      -5.346   3.640  25.194  0.00  0.00    +0.089 C 
ATOM      9  C   UNL     1      -5.007   2.952  24.889  0.00  0.00    +0.024 C 
ENDROOT
BRANCH   4   3
ATOM      3  C   UNL     1      -4.928   1.526  24.848  0.00  0.00    +0.085 C 
BRANCH   3   2
ATOM      1  O   UNL     1      -5.489   0.735  25.898  0.00  0.00    -0.275 OA
ATOM      2  C   UNL     1      -4.938   0.830  25.291  0.00  0.00    +0.226 C 
ATOM     24  N   UNL     1      -4.397   0.229  25.128  0.00  0.00    -0.279 N 
ATOM     25  C   UNL     1      -4.407  -0.467  25.572  0.00  0.00    +0.095 C 
ATOM     26  C   UNL     1      -3.866  -1.068  25.409  0.00  0.00    +0.044 C 
ATOM     27  C   UNL     1      -3.315  -0.973  24.802  0.00  0.00    +0.093 C 
ATOM     28  C   UNL     1      -3.305  -0.277  24.358  0.00  0.00    +0.044 C 
ATOM     29  C   UNL     1      -3.846   0.324  24.521  0.00  0.00    +0.095 C 
BRANCH  27  30
ATOM     30  N   UNL     1      -2.773  -1.574  24.639  0.00  0.00    -0.280 N 
ATOM     31  C   UNL     1      -2.932  -2.271  24.227  0.00  0.00    +0.350 A 
ATOM     32  O   UNL     1      -3.660  -2.489  23.906  0.00  0.00    -0.244 OA
ATOM     33  N   UNL     1      -2.235  -2.712  24.193  0.00  0.00    -0.191 NA
ATOM     34  C   UNL     1      -1.646  -2.287  24.583  0.00  0.00    +0.102 A 
ATOM     35  C   UNL     1      -0.850  -2.449  24.724  0.00  0.00    +0.021 A 
ATOM     36  C   UNL     1      -0.386  -1.909  25.140  0.00  0.00    +0.002 A 
ATOM     37  C   UNL     1      -0.718  -1.206  25.416  0.00  0.00    +0.002 A 
ATOM     38  C   UNL     1      -1.515  -1.043  25.276  0.00  0.00    +0.019 A 
ATOM     39  C   UNL     1      -1.979  -1.584  24.859  0.00  0.00    +0.082 A 
ENDBRANCH  27  30
ENDBRANCH   3   2
ENDBRANCH   4   3
BRANCH   9  10
ATOM     10  C   UNL     1      -4.409   3.002  24.323  0.00  0.00    +0.051 C 
BRANCH  10  11
ATOM     11  C   UNL     1      -3.757   3.489  24.454  0.00  0.00    +0.100 A 
ATOM     12  N   UNL     1      -3.708   4.293  24.272  0.00  0.00    -0.082 NA
ATOM     13  O   UNL     1      -2.960   4.560  24.494  0.00  0.00    -0.354 OA
ATOM     14  C   UNL     1      -2.546   3.922  24.813  0.00  0.00    +0.198 A 
ATOM     23  C   UNL     1      -3.039   3.261  24.788  0.00  0.00    +0.057 A 
BRANCH  14  15
ATOM     15  C   UNL     1      -1.776   3.942  25.106  0.00  0.00    +0.272 C 
BRANCH  15  16
ATOM     16  O   UNL     1      -1.152   3.652  24.650  0.00  0.00    -0.467 OA
BRANCH  16  17
ATOM     17  C   UNL     1      -0.595   3.147  24.987  0.00  0.00    +0.139 A 
ATOM     18  C   UNL     1      -0.452   3.171  25.799  0.00  0.00    +0.037 A 
ATOM     19  C   UNL     1       0.106   2.665  26.135  0.00  0.00    +0.003 A 
ATOM     20  C   UNL     1       0.522   2.135  25.660  0.00  0.00    +0.000 A 
ATOM     21  C   UNL     1       0.379   2.110  24.847  0.00  0.00    +0.003 A 
ATOM     22  C   UNL     1      -0.179   2.616  24.510  0.00  0.00    +0.037 A 
ENDBRANCH  16  17
ENDBRANCH  15  16
ENDBRANCH  14  15
ENDBRANCH  10  11
ENDBRANCH   9  10
TORSDOF 8
ENDMDL
MODEL 6
REMARK VINA RESULT:     -11.3      1.682      3.857
REMARK  Name = 
REMARK  8 active torsions:
REMARK  status: ('A' for Active; 'I' for Inactive)
REMARK    1  A    between atoms: C_2  and  C_3
REMARK    2  A    between atoms: C_3  and  C_4
REMARK    3  A    between atoms: C_9  and  C_10
REMARK    4  A    between atoms: C_10  and  C_11
REMARK    5  A    between atoms: C_14  and  C_15
REMARK    6  A    between atoms: C_15  and  O_16
REMARK    7  A    between atoms: O_16  and  C_17
REMARK    8  A    between atoms: C_27  and  N_30
REMARK                            x       y       z     vdW  Elec       q    Type
REMARK                         _______ _______ _______ _____ _____    ______ ____
ROOT
ATOM      4  C   UNL     1      -3.483   3.657  25.470  0.00  0.00    +0.012 C 
ATOM      5  C   UNL     1      -3.417   4.145  26.131  0.00  0.00    +0.019 C 
ATOM      6  C   UNL     1      -4.091   4.359  26.555  0.00  0.00    +0.089 C 
ATOM      7  N   UNL     1      -4.832   4.084  26.318  0.00  0.00    -0.218 NA
ATOM      8  C   UNL     1      -4.898   3.595  25.657  0.00  0.00    +0.089 C 
ATOM      9  C   UNL     1      -4.224   3.381  25.233  0.00  0.00    +0.024 C 
ENDROOT
BRANCH   4   3
ATOM      3  C   UNL     1      -2.808   3.443  25.046  0.00  0.00    +0.085 C 
BRANCH   3   2
ATOM      1  O   UNL     1      -1.962   3.670  26.175  0.00  0.00    -0.275 OA
ATOM      2  C   UNL     1      -2.095   3.317  25.441  0.00  0.00    +0.226 C 
ATOM     24  N   UNL     1      -1.514   2.839  25.102  0.00  0.00    -0.279 N 
ATOM     25  C   UNL     1      -0.801   2.714  25.497  0.00  0.00    +0.095 C 
ATOM     26  C   UNL     1      -0.220   2.235  25.158  0.00  0.00    +0.044 C 
ATOM     27  C   UNL     1      -0.353   1.883  24.424  0.00  0.00    +0.093 C 
ATOM     28  C   UNL     1      -1.066   2.008  24.029  0.00  0.00    +0.044 C 
ATOM     29  C   UNL     1      -1.647   2.487  24.368  0.00  0.00    +0.095 C 
BRANCH  27  30
ATOM     30  N   UNL     1       0.228   1.405  24.085  0.00  0.00    -0.280 N 
ATOM     31  C   UNL     1       0.960   1.658  23.802  0.00  0.00    +0.350 A 
ATOM     32  O   UNL     1       1.240   2.434  23.808  0.00  0.00    -0.244 OA
ATOM     33  N   UNL     1       1.363   0.999  23.511  0.00  0.00    -0.191 NA
ATOM     34  C   UNL     1       0.880   0.339  23.615  0.00  0.00    +0.102 A 
ATOM     35  C   UNL     1       0.987  -0.458  23.433  0.00  0.00    +0.021 A 
ATOM     36  C   UNL     1       0.395  -1.005  23.604  0.00  0.00    +0.002 A 
ATOM     37  C   UNL     1      -0.307  -0.754  23.959  0.00  0.00    +0.002 A 
ATOM     38  C   UNL     1      -0.416   0.043  24.141  0.00  0.00    +0.019 A 
ATOM     39  C   UNL     1       0.178   0.590  23.969  0.00  0.00    +0.082 A 
ENDBRANCH  27  30
ENDBRANCH   3   2
ENDBRANCH   4   3
BRANCH   9  10
ATOM     10  C   UNL     1      -4.290   2.893  24.571  0.00  0.00    +0.051 C 
BRANCH  10  11
ATOM     11  C   UNL     1      -4.677   2.167  24.632  0.00  0.00    +0.100 A 
ATOM     12  N   UNL     1      -5.490   2.056  24.723  0.00  0.00    -0.082 NA
ATOM     13  O   UNL     1      -5.635   1.246  24.759  0.00  0.00    -0.354 OA
ATOM     14  C   UNL     1      -4.912   0.854  24.690  0.00  0.00    +0.198 A 
ATOM     23  C   UNL     1      -4.321   1.424  24.611  0.00  0.00    +0.057 A 
BRANCH  14  15
ATOM     15  C   UNL     1      -4.801   0.037  24.698  0.00  0.00    +0.272 C 
BRANCH  15  16
ATOM     16  O   UNL     1      -4.091  -0.286  24.432  0.00  0.00    -0.467 OA
BRANCH  16  17
ATOM     17  C   UNL     1      -3.959  -1.098  24.489  0.00  0.00    +0.139 A 
ATOM     18  C   UNL     1      -3.611  -1.414  25.168  0.00  0.00    +0.037 A 
ATOM     19  C   UNL     1      -3.480  -2.226  25.224  0.00  0.00    +0.003 A 
ATOM     20  C   UNL     1      -3.696  -2.723  24.603  0.00  0.00    +0.000 A 
ATOM     21  C   UNL     1      -4.044  -2.408  23.925  0.00  0.00    +0.003 A 
ATOM     22  C   UNL     1      -4.175  -1.596  23.867  0.00  0.00    +0.037 A 
ENDBRANCH  16  17
ENDBRANCH  15  16
ENDBRANCH  14  15
ENDBRANCH  10  11
ENDBRANCH   9  10
TORSDOF 8
ENDMDL
MODEL 7
REMARK VINA RESULT:     -11.0      1.331      4.771
REMARK  Name = 
REMARK  8 active torsions:
REMARK  status: ('A' for Active; 'I' for Inactive)
REMARK    1  A    between atoms: C_2  and  C_3
REMARK    2  A    between atoms: C_3  and  C_4
REMARK    3  A    between atoms: C_9  and  C_10
REMARK    4  A    between atoms: C_10  and  C_11
REMARK    5  A    between atoms: C_14  and  C_15
REMARK    6  A    between atoms: C_15  and  O_16
REMARK    7  A    between atoms: O_16  and  C_17
REMARK    8  A    between atoms: C_27  and  N_30
REMARK                            x       y       z     vdW  Elec       q    Type
REMARK                         _______ _______ _______ _____ _____    ______ ____
ROOT
ATOM      4  C   UNL     1      -0.051   0.745  23.982  0.00  0.00    +0.012 C 
ATOM      5  C   UNL     1       0.284   1.007  23.276  0.00  0.00    +0.019 C 
ATOM      6  C   UNL     1       0.798   0.517  22.856  0.00  0.00    +0.089 C 
ATOM      7  N   UNL     1       0.976  -0.236  23.142  0.00  0.00    -0.218 NA
ATOM      8  C   UNL     1       0.640  -0.499  23.849  0.00  0.00    +0.089 C 
ATOM      9  C   UNL     1       0.126  -0.008  24.269  0.00  0.00    +0.024 C 
ENDROOT
BRANCH   4   3
ATOM      3  C   UNL     1      -0.565   1.235  24.402  0.00  0.00    +0.085 C 
BRANCH   3   2
ATOM      1  O   UNL     1      -0.693   2.133  23.298  0.00  0.00    -0.275 OA
ATOM      2  C   UNL     1      -0.980   1.831  24.010  0.00  0.00    +0.226 C 
ATOM     24  N   UNL     1      -1.682   2.125  24.330  0.00  0.00    -0.279 N 
ATOM     25  C   UNL     1      -2.096   2.721  23.938  0.00  0.00    +0.095 C 
ATOM     26  C   UNL     1      -2.798   3.015  24.258  0.00  0.00    +0.044 C 
ATOM     27  C   UNL     1      -3.084   2.712  24.970  0.00  0.00    +0.093 C 
ATOM     28  C   UNL     1      -2.670   2.117  25.362  0.00  0.00    +0.044 C 
ATOM     29  C   UNL     1      -1.968   1.823  25.042  0.00  0.00    +0.095 C 
BRANCH  27  30
ATOM     30  N   UNL     1      -3.786   3.006  25.290  0.00  0.00    -0.280 N 
ATOM     31  C   UNL     1      -3.863   3.694  25.739  0.00  0.00    +0.350 A 
ATOM     32  O   UNL     1      -3.253   4.209  25.947  0.00  0.00    -0.244 OA
ATOM     33  N   UNL     1      -4.659   3.777  25.943  0.00  0.00    -0.191 NA
ATOM     34  C   UNL     1      -5.072   3.140  25.621  0.00  0.00    +0.102 A 
ATOM     35  C   UNL     1      -5.870   2.932  25.642  0.00  0.00    +0.021 A 
ATOM     36  C   UNL     1      -6.129   2.249  25.261  0.00  0.00    +0.002 A 
ATOM     37  C   UNL     1      -5.590   1.773  24.857  0.00  0.00    +0.002 A 
ATOM     38  C   UNL     1      -4.792   1.980  24.835  0.00  0.00    +0.019 A 
ATOM     39  C   UNL     1      -4.533   2.664  25.217  0.00  0.00    +0.082 A 
ENDBRANCH  27  30
ENDBRANCH   3   2
ENDBRANCH   4   3
BRANCH   9  10
ATOM     10  C   UNL     1      -0.210  -0.271  24.975  0.00  0.00    +0.051 C 
BRANCH  10  11
ATOM     11  C   UNL     1      -0.541  -1.025  25.019  0.00  0.00    +0.100 A 
ATOM     12  N   UNL     1      -0.165  -1.704  25.301  0.00  0.00    -0.082 NA
ATOM     13  O   UNL     1      -0.697  -2.331  25.246  0.00  0.00    -0.354 OA
ATOM     14  C   UNL     1      -1.402  -2.042  24.931  0.00  0.00    +0.198 A 
ATOM     23  C   UNL     1      -1.305  -1.234  24.791  0.00  0.00    +0.057 A 
BRANCH  14  15
ATOM     15  C   UNL     1      -2.083  -2.481  24.782  0.00  0.00    +0.272 C 
BRANCH  15  16
ATOM     16  O   UNL     1      -2.816  -2.209  25.044  0.00  0.00    -0.467 OA
BRANCH  16  17
ATOM     17  C   UNL     1      -3.477  -2.264  24.555  0.00  0.00    +0.139 A 
ATOM     18  C   UNL     1      -3.719  -3.000  24.269  0.00  0.00    +0.037 A 
ATOM     19  C   UNL     1      -4.380  -3.054  23.779  0.00  0.00    +0.003 A 
ATOM     20  C   UNL     1      -4.800  -2.374  23.574  0.00  0.00    +0.000 A 
ATOM     21  C   UNL     1      -4.558  -1.639  23.860  0.00  0.00    +0.003 A 
ATOM     22  C   UNL     1      -3.896  -1.583  24.350  0.00  0.00    +0.037 A 
ENDBRANCH  16  17
ENDBRANCH  15  16
ENDBRANCH  14  15
ENDBRANCH  10  11
ENDBRANCH   9  10
TORSDOF 8
ENDMDL
MODEL 8
REMARK VINA RESULT:     -10.9      1.356      4.631
REMARK  Name = 
REMARK  8 active torsions:
REMARK  status: ('A' for Active; 'I' for Inactive)
REMARK    1  A    between atoms: C_2  and  C_3
REMARK    2  A    between atoms: C_3  and  C_4
REMARK    3  A    between atoms: C_9  and  C_10
REMARK    4  A    between atoms: C_10  and  C_11
REMARK    5  A    between atoms: C_14  and  C_15
REMARK    6  A    between atoms: C_15  and  O_16
REMARK    7  A    between atoms: O_16  and  C_17
REMARK    8  A    between atoms: C_27  and  N_30
REMARK                            x       y       z     vdW  Elec       q    Type
REMARK                         _______ _______ _______ _____ _____    ______ ____
ROOT
ATOM      4  C   UNL     1      -1.857  -1.747  24.800  0.00  0.00    +0.012 C 
ATOM      5  C   UNL     1      -1.411  -2.237  24.308  0.00  0.00    +0.019 C 
ATOM      6  C   UNL     1      -1.758  -2.900  23.962  0.00  0.00    +0.089 C 
ATOM      7  N   UNL     1      -2.552  -3.073  24.108  0.00  0.00    -0.218 NA
ATOM      8  C   UNL     1      -2.997  -2.583  24.600  0.00  0.00    +0.089 C 
ATOM      9  C   UNL     1      -2.650  -1.920  24.946  0.00  0.00    +0.024 C 
ENDROOT
BRANCH   4   3
ATOM      3  C   UNL     1      -1.509  -1.083  25.146  0.00  0.00    +0.085 C 
BRANCH   3   2
ATOM      1  O   UNL     1      -0.438  -1.080  24.199  0.00  0.00    -0.275 OA
ATOM      2  C   UNL     1      -0.902  -0.684  24.755  0.00  0.00    +0.226 C 
ATOM     24  N   UNL     1      -0.759   0.113  24.919  0.00  0.00    -0.279 N 
ATOM     25  C   UNL     1      -0.153   0.512  24.527  0.00  0.00    +0.095 C 
ATOM     26  C   UNL     1      -0.010   1.308  24.691  0.00  0.00    +0.044 C 
ATOM     27  C   UNL     1      -0.474   1.704  25.247  0.00  0.00    +0.093 C 
ATOM     28  C   UNL     1      -1.080   1.305  25.638  0.00  0.00    +0.044 C 
ATOM     29  C   UNL     1      -1.223   0.509  25.474  0.00  0.00    +0.095 C 
BRANCH  27  30
ATOM     30  N   UNL     1      -0.331   2.500  25.411  0.00  0.00    -0.280 N 
ATOM     31  C   UNL     1       0.177   2.792  25.991  0.00  0.00    +0.350 A 
ATOM     32  O   UNL     1       0.632   2.339  26.510  0.00  0.00    -0.244 OA
ATOM     33  N   UNL     1       0.151   3.616  25.962  0.00  0.00    -0.191 NA
ATOM     34  C   UNL     1      -0.373   3.833  25.364  0.00  0.00    +0.102 A 
ATOM     35  C   UNL     1      -0.618   4.570  25.085  0.00  0.00    +0.021 A 
ATOM     36  C   UNL     1      -1.160   4.618  24.466  0.00  0.00    +0.002 A 
ATOM     37  C   UNL     1      -1.458   3.928  24.125  0.00  0.00    +0.002 A 
ATOM     38  C   UNL     1      -1.214   3.191  24.403  0.00  0.00    +0.019 A 
ATOM     39  C   UNL     1      -0.671   3.144  25.023  0.00  0.00    +0.082 A 
ENDBRANCH  27  30
ENDBRANCH   3   2
ENDBRANCH   4   3
BRANCH   9  10
ATOM     10  C   UNL     1      -3.096  -1.430  25.437  0.00  0.00    +0.051 C 
BRANCH  10  11
ATOM     11  C   UNL     1      -3.739  -1.013  25.132  0.00  0.00    +0.100 A 
ATOM     12  N   UNL     1      -4.206  -1.243  24.492  0.00  0.00    -0.082 NA
ATOM     13  O   UNL     1      -4.784  -0.666  24.377  0.00  0.00    -0.354 OA
ATOM     14  C   UNL     1      -4.673  -0.078  24.945  0.00  0.00    +0.198 A 
ATOM     23  C   UNL     1      -4.027  -0.293  25.411  0.00  0.00    +0.057 A 
BRANCH  14  15
ATOM     15  C   UNL     1      -5.128   0.604  25.031  0.00  0.00    +0.272 C 
BRANCH  15  16
ATOM     16  O   UNL     1      -4.929   1.289  24.618  0.00  0.00    -0.467 OA
BRANCH  16  17
ATOM     17  C   UNL     1      -5.118   2.029  24.929  0.00  0.00    +0.139 A 
ATOM     18  C   UNL     1      -5.813   2.128  25.364  0.00  0.00    +0.037 A 
ATOM     19  C   UNL     1      -6.002   2.869  25.674  0.00  0.00    +0.003 A 
ATOM     20  C   UNL     1      -5.499   3.510  25.550  0.00  0.00    +0.000 A 
ATOM     21  C   UNL     1      -4.804   3.410  25.115  0.00  0.00    +0.003 A 
ATOM     22  C   UNL     1      -4.614   2.670  24.804  0.00  0.00    +0.037 A 
ENDBRANCH  16  17
ENDBRANCH  15  16
ENDBRANCH  14  15
ENDBRANCH  10  11
ENDBRANCH   9  10
TORSDOF 8
ENDMDL
MODEL 9
REMARK VINA RESULT:      -9.8     15.731     18.671
REMARK  Name = 
REMARK  8 active torsions:
REMARK  status: ('A' for Active; 'I' for Inactive)
REMARK    1  A    between atoms: C_2  and  C_3
REMARK    2  A    between atoms: C_3  and  C_4
REMARK    3  A    between atoms: C_9  and  C_10
REMARK    4  A    between atoms: C_10  and  C_11
REMARK    5  A    between atoms: C_14  and  C_15
REMARK    6  A    between atoms: C_15  and  O_16
REMARK    7  A    between atoms: O_16  and  C_17
REMARK    8  A    between atoms: C_27  and  N_30
REMARK                            x       y       z     vdW  Elec       q    Type
REMARK                         _______ _______ _______ _____ _____    ______ ____
ROOT
ATOM      4  C   UNL     1      15.945   7.464  19.889  0.00  0.00    +0.012 C 
ATOM      5  C   UNL     1      16.337   6.748  19.774  0.00  0.00    +0.019 C 
ATOM      6  C   UNL     1      16.770   6.412  20.390  0.00  0.00    +0.089 C 
ATOM      7  N   UNL     1      16.811   6.791  21.121  0.00  0.00    -0.218 NA
ATOM      8  C   UNL     1      16.418   7.507  21.237  0.00  0.00    +0.089 C 
ATOM      9  C   UNL     1      15.985   7.844  20.620  0.00  0.00    +0.024 C 
ENDROOT
BRANCH   4   3
ATOM      3  C   UNL     1      15.511   7.801  19.273  0.00  0.00    +0.085 C 
BRANCH   3   2
ATOM      1  O   UNL     1      15.510   6.554  18.576  0.00  0.00    -0.275 OA
ATOM      2  C   UNL     1      15.241   7.330  18.653  0.00  0.00    +0.226 C 
ATOM     24  N   UNL     1      14.700   7.634  18.109  0.00  0.00    -0.279 N 
ATOM     25  C   UNL     1      14.429   7.162  17.489  0.00  0.00    +0.095 C 
ATOM     26  C   UNL     1      13.888   7.466  16.945  0.00  0.00    +0.044 C 
ATOM     27  C   UNL     1      13.618   8.242  17.021  0.00  0.00    +0.093 C 
ATOM     28  C   UNL     1      13.889   8.714  17.641  0.00  0.00    +0.044 C 
ATOM     29  C   UNL     1      14.430   8.409  18.185  0.00  0.00    +0.095 C 
BRANCH  27  30
ATOM     30  N   UNL     1      13.077   8.546  16.477  0.00  0.00    -0.280 N 
ATOM     31  C   UNL     1      13.258   8.854  15.734  0.00  0.00    +0.350 A 
ATOM     32  O   UNL     1      14.012   8.913  15.404  0.00  0.00    -0.244 OA
ATOM     33  N   UNL     1      12.553   9.094  15.378  0.00  0.00    -0.191 NA
ATOM     34  C   UNL     1      11.937   8.933  15.902  0.00  0.00    +0.102 A 
ATOM     35  C   UNL     1      11.122   9.051  15.849  0.00  0.00    +0.021 A 
ATOM     36  C   UNL     1      10.631   8.832  16.474  0.00  0.00    +0.002 A 
ATOM     37  C   UNL     1      10.955   8.493  17.153  0.00  0.00    +0.002 A 
ATOM     38  C   UNL     1      11.769   8.374  17.207  0.00  0.00    +0.019 A 
ATOM     39  C   UNL     1      12.261   8.595  16.581  0.00  0.00    +0.082 A 
ENDBRANCH  27  30
ENDBRANCH   3   2
ENDBRANCH   4   3
BRANCH   9  10
ATOM     10  C   UNL     1      15.592   8.560  20.736  0.00  0.00    +0.051 C 
BRANCH  10  11
ATOM     11  C   UNL     1      15.076   8.650  21.373  0.00  0.00    +0.100 A 
ATOM     12  N   UNL     1      15.287   8.861  22.142  0.00  0.00    -0.082 NA
ATOM     13  O   UNL     1      14.600   8.886  22.598  0.00  0.00    -0.354 OA
ATOM     14  C   UNL     1      13.963   8.691  22.110  0.00  0.00    +0.198 A 
ATOM     23  C   UNL     1      14.258   8.546  21.353  0.00  0.00    +0.057 A 
BRANCH  14  15
ATOM     15  C   UNL     1      13.172   8.650  22.339  0.00  0.00    +0.272 C 
BRANCH  15  16
ATOM     16  O   UNL     1      12.581   8.573  21.769  0.00  0.00    -0.467 OA
BRANCH  16  17
ATOM     17  C   UNL     1      11.804   8.417  21.999  0.00  0.00    +0.139 A 
ATOM     18  C   UNL     1      11.350   9.010  22.349  0.00  0.00    +0.037 A 
ATOM     19  C   UNL     1      10.574   8.853  22.578  0.00  0.00    +0.003 A 
ATOM     20  C   UNL     1      10.250   8.104  22.457  0.00  0.00    +0.000 A 
ATOM     21  C   UNL     1      10.705   7.511  22.107  0.00  0.00    +0.003 A 
ATOM     22  C   UNL     1      11.482   7.667  21.877  0.00  0.00    +0.037 A 
ENDBRANCH  16  17
ENDBRANCH  15  16
ENDBRANCH  14  15
ENDBRANCH  10  11
ENDBRANCH   9  10
TORSDOF 8
ENDMDL
