MODEL 1
REMARK VINA RESULT:     -11.3      0.000      0.000
REMARK  Name = 
REMARK  9 active torsions:
REMARK  status: ('A' for Active; 'I' for Inactive)
REMARK    1  A    between atoms: O_2  and  C_3
REMARK    2  A    between atoms: C_6  and  C_7
REMARK    3  A    between atoms: C_7  and  C_8
REMARK    4  A    between atoms: C_8  and  N_9
REMARK    5  A    between atoms: C_8  and  C_29
REMARK    6  A    between atoms: C_10  and  C_12
REMARK    7  A    between atoms: C_14  and  N_15
REMARK    8  A    between atoms: N_15  and  S_16
REMARK    9  A    between atoms: S_16  and  C_19
REMARK                            x       y       z     vdW  Elec       q    Type
REMARK                         _______ _______ _______ _____ _____    ______ ____
ROOT
ATOM     12  C   UNL     1      -2.904   2.904  24.710  0.00  0.00    +0.033 C 
ATOM     13  C   UNL     1      -2.189   2.576  24.465  0.00  0.00    -0.004 C 
ATOM     14  C   UNL     1      -1.478   2.958  24.639  0.00  0.00    +0.152 C 
ATOM     24  C   UNL     1      -1.483   3.668  25.060  0.00  0.00    +0.204 C 
ATOM     25  O   UNL     1      -0.773   4.050  25.234  0.00  0.00    -0.218 OA
ATOM     26  C   UNL     1      -2.198   3.997  25.305  0.00  0.00    +0.188 C 
ATOM     27  O   UNL     1      -2.205   4.706  25.725  0.00  0.00    -0.220 OA
ATOM     28  C   UNL     1      -2.909   3.615  25.130  0.00  0.00    +0.066 C 
ENDROOT
BRANCH  12  10
ATOM      9  N   UNL     1      -3.877   1.902  25.011  0.00  0.00    -0.194 NA
ATOM     10  C   UNL     1      -3.614   2.523  24.536  0.00  0.00    +0.261 C 
ATOM     11  O   UNL     1      -4.061   2.763  23.885  0.00  0.00    -0.269 OA
BRANCH   9   8
ATOM      8  C   UNL     1      -4.588   1.522  24.837  0.00  0.00    +0.179 C 
BRANCH   8  29
ATOM     29  C   UNL     1      -5.290   1.776  25.188  0.00  0.00    +0.281 C 
ATOM     30  N   UNL     1      -5.975   1.850  24.733  0.00  0.00    -0.086 NA
ATOM     31  O   UNL     1      -5.308   1.957  25.992  0.00  0.00    -0.270 OA
ENDBRANCH   8  29
BRANCH   8   7
ATOM      7  C   UNL     1      -4.597   0.886  24.310  0.00  0.00    +0.057 C 
BRANCH   7   6
ATOM      3  C   UNL     1      -3.808  -1.342  25.046  0.00  0.00    +0.139 A 
ATOM      4  C   UNL     1      -3.969  -0.756  25.605  0.00  0.00    +0.037 A 
ATOM      5  C   UNL     1      -4.232  -0.013  25.359  0.00  0.00    -0.001 A 
ATOM      6  C   UNL     1      -4.334   0.144  24.556  0.00  0.00    -0.020 A 
ATOM     32  C   UNL     1      -4.173  -0.442  23.998  0.00  0.00    -0.001 A 
ATOM     33  C   UNL     1      -3.910  -1.185  24.242  0.00  0.00    +0.037 A 
BRANCH   3   2
ATOM      1  C   UNL     1      -3.284  -2.633  24.735  0.00  0.00    +0.252 C 
ATOM      2  O   UNL     1      -3.546  -2.084  25.291  0.00  0.00    -0.471 OA
ENDBRANCH   3   2
ENDBRANCH   7   6
ENDBRANCH   8   7
ENDBRANCH   9   8
ENDBRANCH  12  10
BRANCH  14  15
ATOM     15  N   UNL     1      -0.762   2.629  24.394  0.00  0.00    -0.072 NA
BRANCH  15  16
ATOM     16  S   UNL     1      -0.650   1.812  24.427  0.00  0.00    +0.083 S 
ATOM     17  O   UNL     1      -0.860   1.751  23.633  0.00  0.00    -0.151 OA
ATOM     18  O   UNL     1      -0.440   1.875  25.223  0.00  0.00    -0.151 OA
BRANCH  16  19
ATOM     19  C   UNL     1      -0.538   0.996  24.462  0.00  0.00    +0.153 A 
ATOM     20  C   UNL     1      -0.562   0.531  25.144  0.00  0.00    +0.027 A 
ATOM     21  C   UNL     1      -0.422  -0.251  24.924  0.00  0.00    +0.009 A 
ATOM     22  C   UNL     1      -0.310  -0.271  24.107  0.00  0.00    +0.037 A 
ATOM     23  S   UNL     1      -0.383   0.500  23.821  0.00  0.00    -0.067 S 
ENDBRANCH  16  19
ENDBRANCH  15  16
ENDBRANCH  14  15
TORSDOF 9
ENDMDL
MODEL 2
REMARK VINA RESULT:     -10.9      1.197      3.738
REMARK  Name = 
REMARK  9 active torsions:
REMARK  status: ('A' for Active; 'I' for Inactive)
REMARK    1  A    between atoms: O_2  and  C_3
REMARK    2  A    between atoms: C_6  and  C_7
REMARK    3  A    between atoms: C_7  and  C_8
REMARK    4  A    between atoms: C_8  and  N_9
REMARK    5  A    between atoms: C_8  and  C_29
REMARK    6  A    between atoms: C_10  and  C_12
REMARK    7  A    between atoms: C_14  and  N_15
REMARK    8  A    between atoms: N_15  and  S_16
REMARK    9  A    between atoms: S_16  and  C_19
REMARK                            x       y       z     vdW  Elec       q    Type
REMARK                         _______ _______ _______ _____ _____    ______ ____
ROOT
ATOM     12  C   UNL     1      -3.630  -0.017  24.803  0.00  0.00    +0.033 C 
ATOM     13  C   UNL     1      -2.839   0.051  24.582  0.00  0.00    -0.004 C 
ATOM     14  C   UNL     1      -2.310  -0.561  24.746  0.00  0.00    +0.152 C 
ATOM     24  C   UNL     1      -2.574  -1.242  25.131  0.00  0.00    +0.204 C 
ATOM     25  O   UNL     1      -2.045  -1.854  25.294  0.00  0.00    -0.218 OA
ATOM     26  C   UNL     1      -3.365  -1.311  25.352  0.00  0.00    +0.188 C 
ATOM     27  O   UNL     1      -3.629  -1.991  25.736  0.00  0.00    -0.220 OA
ATOM     28  C   UNL     1      -3.894  -0.698  25.188  0.00  0.00    +0.066 C 
ENDROOT
BRANCH  12  10
ATOM      9  N   UNL     1      -4.201   1.248  25.141  0.00  0.00    -0.194 NA
ATOM     10  C   UNL     1      -4.158   0.595  24.640  0.00  0.00    +0.261 C 
ATOM     11  O   UNL     1      -4.644   0.552  23.975  0.00  0.00    -0.269 OA
BRANCH   9   8
ATOM      8  C   UNL     1      -4.730   1.859  24.978  0.00  0.00    +0.179 C 
BRANCH   8  29
ATOM     29  C   UNL     1      -5.495   1.838  25.287  0.00  0.00    +0.281 C 
ATOM     30  N   UNL     1      -6.143   1.972  24.795  0.00  0.00    -0.086 NA
ATOM     31  O   UNL     1      -5.611   1.685  26.089  0.00  0.00    -0.270 OA
ENDBRANCH   8  29
BRANCH   8   7
ATOM      7  C   UNL     1      -4.495   2.493  24.503  0.00  0.00    +0.057 C 
BRANCH   7   6
ATOM      3  C   UNL     1      -2.926   4.188  25.391  0.00  0.00    +0.139 A 
ATOM      4  C   UNL     1      -3.436   3.790  25.903  0.00  0.00    +0.037 A 
ATOM      5  C   UNL     1      -3.959   3.225  25.606  0.00  0.00    -0.001 A 
ATOM      6  C   UNL     1      -3.972   3.058  24.799  0.00  0.00    -0.020 A 
ATOM     32  C   UNL     1      -3.461   3.456  24.287  0.00  0.00    -0.001 A 
ATOM     33  C   UNL     1      -2.938   4.021  24.583  0.00  0.00    +0.037 A 
BRANCH   3   2
ATOM      1  C   UNL     1      -1.750   4.986  25.239  0.00  0.00    +0.252 C 
ATOM      2  O   UNL     1      -2.402   4.753  25.686  0.00  0.00    -0.471 OA
ENDBRANCH   3   2
ENDBRANCH   7   6
ENDBRANCH   8   7
ENDBRANCH   9   8
ENDBRANCH  12  10
BRANCH  14  15
ATOM     15  N   UNL     1      -1.518  -0.493  24.525  0.00  0.00    -0.072 NA
BRANCH  15  16
ATOM     16  S   UNL     1      -1.098   0.194  24.705  0.00  0.00    +0.083 S 
ATOM     17  O   UNL     1      -0.981  -0.078  25.475  0.00  0.00    -0.151 OA
ATOM     18  O   UNL     1      -1.215   0.467  23.935  0.00  0.00    -0.151 OA
BRANCH  16  19
ATOM     19  C   UNL     1      -0.678   0.882  24.884  0.00  0.00    +0.153 A 
ATOM     20  C   UNL     1      -0.608   1.228  25.630  0.00  0.00    +0.027 A 
ATOM     21  C   UNL     1      -0.141   1.903  25.554  0.00  0.00    +0.009 A 
ATOM     22  C   UNL     1       0.077   1.976  24.762  0.00  0.00    +0.037 A 
ATOM     23  S   UNL     1      -0.254   1.344  24.347  0.00  0.00    -0.067 S 
ENDBRANCH  16  19
ENDBRANCH  15  16
ENDBRANCH  14  15
TORSDOF 9
ENDMDL
MODEL 3
REMARK VINA RESULT:     -10.9      1.662      3.387
REMARK  Name = 
REMARK  9 active torsions:
REMARK  status: ('A' for Active; 'I' for Inactive)
REMARK    1  A    between atoms: O_2  and  C_3
REMARK    2  A    between atoms: C_6  and  C_7
REMARK    3  A    between atoms: C_7  and  C_8
REMARK    4  A    between atoms: C_8  and  N_9
REMARK    5  A    between atoms: C_8  and  C_29
REMARK    6  A    between atoms: C_10  and  C_12
REMARK    7  A    between atoms: C_14  and  N_15
REMARK    8  A    between atoms: N_15  and  S_16
REMARK    9  A    between atoms: S_16  and  C_19
REMARK                            x       y       z     vdW  Elec       q    Type
REMARK                         _______ _______ _______ _____ _____    ______ ____
ROOT
ATOM     12  C   UNL     1      -1.380   2.818  25.347  0.00  0.00    +0.033 C 
ATOM     13  C   UNL     1      -2.146   3.059  25.531  0.00  0.00    -0.004 C 
ATOM     14  C   UNL     1      -2.350   3.858  25.484  0.00  0.00    +0.152 C 
ATOM     24  C   UNL     1      -1.786   4.415  25.252  0.00  0.00    +0.204 C 
ATOM     25  O   UNL     1      -1.991   5.213  25.205  0.00  0.00    -0.218 OA
ATOM     26  C   UNL     1      -1.021   4.174  25.067  0.00  0.00    +0.188 C 
ATOM     27  O   UNL     1      -0.457   4.729  24.835  0.00  0.00    -0.220 OA
ATOM     28  C   UNL     1      -0.816   3.375  25.115  0.00  0.00    +0.066 C 
ENDROOT
BRANCH  12  10
ATOM      9  N   UNL     1      -1.446   1.490  24.822  0.00  0.00    -0.194 NA
ATOM     10  C   UNL     1      -1.176   2.020  25.394  0.00  0.00    +0.261 C 
ATOM     11  O   UNL     1      -0.701   1.753  26.013  0.00  0.00    -0.269 OA
BRANCH   9   8
ATOM      8  C   UNL     1      -1.241   0.693  24.870  0.00  0.00    +0.179 C 
BRANCH   8  29
ATOM     29  C   UNL     1      -0.614   0.400  24.421  0.00  0.00    +0.281 C 
ATOM     30  N   UNL     1      -0.084  -0.137  24.755  0.00  0.00    -0.086 NA
ATOM     31  O   UNL     1      -0.516   0.643  23.639  0.00  0.00    -0.270 OA
ENDBRANCH   8  29
BRANCH   8   7
ATOM      7  C   UNL     1      -1.664   0.187  25.367  0.00  0.00    +0.057 C 
BRANCH   7   6
ATOM      3  C   UNL     1      -3.747  -0.881  24.562  0.00  0.00    +0.139 A 
ATOM      4  C   UNL     1      -3.246  -0.500  24.028  0.00  0.00    +0.037 A 
ATOM      5  C   UNL     1      -2.552  -0.144  24.297  0.00  0.00    -0.001 A 
ATOM      6  C   UNL     1      -2.359  -0.169  25.098  0.00  0.00    -0.020 A 
ATOM     32  C   UNL     1      -2.859  -0.550  25.631  0.00  0.00    -0.001 A 
ATOM     33  C   UNL     1      -3.554  -0.906  25.364  0.00  0.00    +0.037 A 
BRANCH   3   2
ATOM      1  C   UNL     1      -4.405  -1.937  23.861  0.00  0.00    +0.252 C 
ATOM      2  O   UNL     1      -4.441  -1.237  24.294  0.00  0.00    -0.471 OA
ENDBRANCH   3   2
ENDBRANCH   7   6
ENDBRANCH   8   7
ENDBRANCH   9   8
ENDBRANCH  12  10
BRANCH  14  15
ATOM     15  N   UNL     1      -3.117   4.100  25.669  0.00  0.00    -0.072 NA
BRANCH  15  16
ATOM     16  S   UNL     1      -3.760   3.624  25.463  0.00  0.00    +0.083 S 
ATOM     17  O   UNL     1      -3.716   3.901  24.687  0.00  0.00    -0.151 OA
ATOM     18  O   UNL     1      -3.803   3.347  26.239  0.00  0.00    -0.151 OA
BRANCH  16  19
ATOM     19  C   UNL     1      -4.402   3.149  25.258  0.00  0.00    +0.153 A 
ATOM     20  C   UNL     1      -4.614   2.922  24.493  0.00  0.00    +0.027 A 
ATOM     21  C   UNL     1      -5.288   2.450  24.546  0.00  0.00    +0.009 A 
ATOM     22  C   UNL     1      -5.494   2.385  25.342  0.00  0.00    +0.037 A 
ATOM     23  S   UNL     1      -4.946   2.817  25.783  0.00  0.00    -0.067 S 
ENDBRANCH  16  19
ENDBRANCH  15  16
ENDBRANCH  14  15
TORSDOF 9
ENDMDL
MODEL 4
REMARK VINA RESULT:     -10.6      1.642      3.712
REMARK  Name = 
REMARK  9 active torsions:
REMARK  status: ('A' for Active; 'I' for Inactive)
REMARK    1  A    between atoms: O_2  and  C_3
REMARK    2  A    between atoms: C_6  and  C_7
REMARK    3  A    between atoms: C_7  and  C_8
REMARK    4  A    between atoms: C_8  and  N_9
REMARK    5  A    between atoms: C_8  and  C_29
REMARK    6  A    between atoms: C_10  and  C_12
REMARK    7  A    between atoms: C_14  and  N_15
REMARK    8  A    between atoms: N_15  and  S_16
REMARK    9  A    between atoms: S_16  and  C_19
REMARK                            x       y       z     vdW  Elec       q    Type
REMARK                         _______ _______ _______ _____ _____    ______ ____
ROOT
ATOM     12  C   UNL     1      -4.770   1.340  25.099  0.00  0.00    +0.033 C 
ATOM     13  C   UNL     1      -4.460   2.073  24.886  0.00  0.00    -0.004 C 
ATOM     14  C   UNL     1      -4.834   2.767  25.131  0.00  0.00    +0.152 C 
ATOM     24  C   UNL     1      -5.519   2.726  25.589  0.00  0.00    +0.204 C 
ATOM     25  O   UNL     1      -5.893   3.420  25.834  0.00  0.00    -0.218 OA
ATOM     26  C   UNL     1      -5.830   1.993  25.802  0.00  0.00    +0.188 C 
ATOM     27  O   UNL     1      -6.515   1.952  26.261  0.00  0.00    -0.220 OA
ATOM     28  C   UNL     1      -5.456   1.299  25.557  0.00  0.00    +0.066 C 
ENDROOT
BRANCH  12  10
ATOM      9  N   UNL     1      -3.706   0.395  25.228  0.00  0.00    -0.194 NA
ATOM     10  C   UNL     1      -4.397   0.646  24.854  0.00  0.00    +0.261 C 
ATOM     11  O   UNL     1      -4.716   0.204  24.235  0.00  0.00    -0.269 OA
BRANCH   9   8
ATOM      8  C   UNL     1      -3.333  -0.298  24.983  0.00  0.00    +0.179 C 
BRANCH   8  29
ATOM     29  C   UNL     1      -3.514  -1.016  25.348  0.00  0.00    +0.281 C 
ATOM     30  N   UNL     1      -3.676  -1.682  24.889  0.00  0.00    -0.086 NA
ATOM     31  O   UNL     1      -3.533  -1.068  26.170  0.00  0.00    -0.270 OA
ENDBRANCH   8  29
BRANCH   8   7
ATOM      7  C   UNL     1      -2.778  -0.275  24.371  0.00  0.00    +0.057 C 
BRANCH   7   6
ATOM      3  C   UNL     1      -0.567   0.773  24.747  0.00  0.00    +0.139 A 
ATOM      4  C   UNL     1      -0.930   0.347  25.353  0.00  0.00    +0.037 A 
ATOM      5  C   UNL     1      -1.667  -0.003  25.227  0.00  0.00    -0.001 A 
ATOM      6  C   UNL     1      -2.041   0.074  24.497  0.00  0.00    -0.020 A 
ATOM     32  C   UNL     1      -1.678   0.500  23.891  0.00  0.00    -0.001 A 
ATOM     33  C   UNL     1      -0.942   0.850  24.015  0.00  0.00    +0.037 A 
BRANCH   3   2
ATOM      1  C   UNL     1       0.529   1.554  24.268  0.00  0.00    +0.252 C 
ATOM      2  O   UNL     1       0.170   1.122  24.871  0.00  0.00    -0.471 OA
ENDBRANCH   3   2
ENDBRANCH   7   6
ENDBRANCH   8   7
ENDBRANCH   9   8
ENDBRANCH  12  10
BRANCH  14  15
ATOM     15  N   UNL     1      -4.523   3.500  24.918  0.00  0.00    -0.072 NA
BRANCH  15  16
ATOM     16  S   UNL     1      -3.734   3.678  25.084  0.00  0.00    +0.083 S 
ATOM     17  O   UNL     1      -3.932   3.823  25.871  0.00  0.00    -0.151 OA
ATOM     18  O   UNL     1      -3.536   3.533  24.295  0.00  0.00    -0.151 OA
BRANCH  16  19
ATOM     19  C   UNL     1      -2.946   3.855  25.249  0.00  0.00    +0.153 A 
ATOM     20  C   UNL     1      -2.565   3.745  25.973  0.00  0.00    +0.027 A 
ATOM     21  C   UNL     1      -1.783   3.995  25.889  0.00  0.00    +0.009 A 
ATOM     22  C   UNL     1      -1.681   4.260  25.115  0.00  0.00    +0.037 A 
ATOM     23  S   UNL     1      -2.400   4.173  24.718  0.00  0.00    -0.067 S 
ENDBRANCH  16  19
ENDBRANCH  15  16
ENDBRANCH  14  15
TORSDOF 9
ENDMDL
MODEL 5
REMARK VINA RESULT:     -10.5      1.486      3.756
REMARK  Name = 
REMARK  9 active torsions:
REMARK  status: ('A' for Active; 'I' for Inactive)
REMARK    1  A    between atoms: O_2  and  C_3
REMARK    2  A    between atoms: C_6  and  C_7
REMARK    3  A    between atoms: C_7  and  C_8
REMARK    4  A    between atoms: C_8  and  N_9
REMARK    5  A    between atoms: C_8  and  C_29
REMARK    6  A    between atoms: C_10  and  C_12
REMARK    7  A    between atoms: C_14  and  N_15
REMARK    8  A    between atoms: N_15  and  S_16
REMARK    9  A    between atoms: S_16  and  C_19
REMARK                            x       y       z     vdW  Elec       q    Type
REMARK                         _______ _______ _______ _____ _____    ______ ____
ROOT
ATOM     12  C   UNL     1      -4.002   2.799  25.008  0.00  0.00    +0.033 C 
ATOM     13  C   UNL     1      -4.185   2.044  24.733  0.00  0.00    -0.004 C 
ATOM     14  C   UNL     1      -4.918   1.706  24.909  0.00  0.00    +0.152 C 
ATOM     24  C   UNL     1      -5.467   2.125  25.361  0.00  0.00    +0.204 C 
ATOM     25  O   UNL     1      -6.199   1.788  25.537  0.00  0.00    -0.218 OA
ATOM     26  C   UNL     1      -5.284   2.880  25.636  0.00  0.00    +0.188 C 
ATOM     27  O   UNL     1      -5.832   3.299  26.088  0.00  0.00    -0.220 OA
ATOM     28  C   UNL     1      -4.551   3.218  25.460  0.00  0.00    +0.066 C 
ENDROOT
BRANCH  12  10
ATOM      9  N   UNL     1      -2.584   2.838  25.179  0.00  0.00    -0.194 NA
ATOM     10  C   UNL     1      -3.270   3.136  24.832  0.00  0.00    +0.261 C 
ATOM     11  O   UNL     1      -3.226   3.773  24.309  0.00  0.00    -0.269 OA
BRANCH   9   8
ATOM      8  C   UNL     1      -1.853   3.176  25.003  0.00  0.00    +0.179 C 
BRANCH   8  29
ATOM     29  C   UNL     1      -1.548   3.775  25.482  0.00  0.00    +0.281 C 
ATOM     30  N   UNL     1      -1.229   4.454  25.139  0.00  0.00    -0.086 NA
ATOM     31  O   UNL     1      -1.563   3.696  26.302  0.00  0.00    -0.270 OA
ENDBRANCH   8  29
BRANCH   8   7
ATOM      7  C   UNL     1      -1.425   2.915  24.347  0.00  0.00    +0.057 C 
BRANCH   7   6
ATOM      3  C   UNL     1      -0.326   0.698  24.388  0.00  0.00    +0.139 A 
ATOM      4  C   UNL     1      -0.339   1.164  25.069  0.00  0.00    +0.037 A 
ATOM      5  C   UNL     1      -0.705   1.904  25.054  0.00  0.00    -0.001 A 
ATOM      6  C   UNL     1      -1.058   2.176  24.361  0.00  0.00    -0.020 A 
ATOM     32  C   UNL     1      -1.045   1.710  23.681  0.00  0.00    -0.001 A 
ATOM     33  C   UNL     1      -0.679   0.971  23.694  0.00  0.00    +0.037 A 
BRANCH   3   2
ATOM      1  C   UNL     1       0.170  -0.450  23.698  0.00  0.00    +0.252 C 
ATOM      2  O   UNL     1       0.040  -0.041  24.401  0.00  0.00    -0.471 OA
ENDBRANCH   3   2
ENDBRANCH   7   6
ENDBRANCH   8   7
ENDBRANCH   9   8
ENDBRANCH  12  10
BRANCH  14  15
ATOM     15  N   UNL     1      -5.101   0.951  24.633  0.00  0.00    -0.072 NA
BRANCH  15  16
ATOM     16  S   UNL     1      -4.586   0.323  24.780  0.00  0.00    +0.083 S 
ATOM     17  O   UNL     1      -4.859   0.280  25.557  0.00  0.00    -0.151 OA
ATOM     18  O   UNL     1      -4.313   0.366  24.002  0.00  0.00    -0.151 OA
BRANCH  16  19
ATOM     19  C   UNL     1      -4.071  -0.305  24.926  0.00  0.00    +0.153 A 
ATOM     20  C   UNL     1      -3.724  -0.490  25.651  0.00  0.00    +0.027 A 
ATOM     21  C   UNL     1      -3.251  -1.157  25.544  0.00  0.00    +0.009 A 
ATOM     22  C   UNL     1      -3.306  -1.386  24.754  0.00  0.00    +0.037 A 
ATOM     23  S   UNL     1      -3.813  -0.859  24.370  0.00  0.00    -0.067 S 
ENDBRANCH  16  19
ENDBRANCH  15  16
ENDBRANCH  14  15
TORSDOF 9
ENDMDL
MODEL 6
REMARK VINA RESULT:     -10.0      1.531      3.805
REMARK  Name = 
REMARK  9 active torsions:
REMARK  status: ('A' for Active; 'I' for Inactive)
REMARK    1  A    between atoms: O_2  and  C_3
REMARK    2  A    between atoms: C_6  and  C_7
REMARK    3  A    between atoms: C_7  and  C_8
REMARK    4  A    between atoms: C_8  and  N_9
REMARK    5  A    between atoms: C_8  and  C_29
REMARK    6  A    between atoms: C_10  and  C_12
REMARK    7  A    between atoms: C_14  and  N_15
REMARK    8  A    between atoms: N_15  and  S_16
REMARK    9  A    between atoms: S_16  and  C_19
REMARK                            x       y       z     vdW  Elec       q    Type
REMARK                         _______ _______ _______ _____ _____    ______ ____
ROOT
ATOM     12  C   UNL     1      -0.663   1.274  24.295  0.00  0.00    +0.033 C 
ATOM     13  C   UNL     1      -1.004   0.667  24.736  0.00  0.00    -0.004 C 
ATOM     14  C   UNL     1      -0.746  -0.111  24.637  0.00  0.00    +0.152 C 
ATOM     24  C   UNL     1      -0.145  -0.280  24.096  0.00  0.00    +0.204 C 
ATOM     25  O   UNL     1       0.112  -1.057  23.997  0.00  0.00    -0.218 OA
ATOM     26  C   UNL     1       0.196   0.327  23.655  0.00  0.00    +0.188 C 
ATOM     27  O   UNL     1       0.796   0.158  23.115  0.00  0.00    -0.220 OA
ATOM     28  C   UNL     1      -0.063   1.105  23.754  0.00  0.00    +0.066 C 
ENDROOT
BRANCH  12  10
ATOM      9  N   UNL     1      -1.600   2.209  24.835  0.00  0.00    -0.194 NA
ATOM     10  C   UNL     1      -0.921   2.052  24.393  0.00  0.00    +0.261 C 
ATOM     11  O   UNL     1      -0.500   2.672  24.050  0.00  0.00    -0.269 OA
BRANCH   9   8
ATOM      8  C   UNL     1      -1.857   2.986  24.934  0.00  0.00    +0.179 C 
BRANCH   8  29
ATOM     29  C   UNL     1      -1.524   3.460  25.521  0.00  0.00    +0.281 C 
ATOM     30  N   UNL     1      -1.284   4.229  25.343  0.00  0.00    -0.086 NA
ATOM     31  O   UNL     1      -1.431   3.167  26.286  0.00  0.00    -0.270 OA
ENDBRANCH   8  29
BRANCH   8   7
ATOM      7  C   UNL     1      -2.448   3.290  24.443  0.00  0.00    +0.057 C 
BRANCH   7   6
ATOM      3  C   UNL     1      -4.784   2.510  24.693  0.00  0.00    +0.139 A 
ATOM      4  C   UNL     1      -4.394   2.856  25.333  0.00  0.00    +0.037 A 
ATOM      5  C   UNL     1      -3.615   3.116  25.249  0.00  0.00    -0.001 A 
ATOM      6  C   UNL     1      -3.227   3.030  24.527  0.00  0.00    -0.020 A 
ATOM     32  C   UNL     1      -3.617   2.685  23.887  0.00  0.00    -0.001 A 
ATOM     33  C   UNL     1      -4.395   2.425  23.970  0.00  0.00    +0.037 A 
BRANCH   3   2
ATOM      1  C   UNL     1      -5.869   2.096  25.525  0.00  0.00    +0.252 C 
ATOM      2  O   UNL     1      -5.562   2.250  24.776  0.00  0.00    -0.471 OA
ENDBRANCH   3   2
ENDBRANCH   7   6
ENDBRANCH   8   7
ENDBRANCH   9   8
ENDBRANCH  12  10
BRANCH  14  15
ATOM     15  N   UNL     1      -1.088  -0.718  25.078  0.00  0.00    -0.072 NA
BRANCH  15  16
ATOM     16  S   UNL     1      -1.906  -0.823  25.070  0.00  0.00    +0.083 S 
ATOM     17  O   UNL     1      -1.853  -1.179  24.328  0.00  0.00    -0.151 OA
ATOM     18  O   UNL     1      -1.958  -0.467  25.813  0.00  0.00    -0.151 OA
BRANCH  16  19
ATOM     19  C   UNL     1      -2.724  -0.928  25.063  0.00  0.00    +0.153 A 
ATOM     20  C   UNL     1      -3.190  -1.067  24.396  0.00  0.00    +0.027 A 
ATOM     21  C   UNL     1      -3.974  -1.137  24.643  0.00  0.00    +0.009 A 
ATOM     22  C   UNL     1      -3.993  -1.041  25.462  0.00  0.00    +0.037 A 
ATOM     23  S   UNL     1      -3.220  -0.912  25.722  0.00  0.00    -0.067 S 
ENDBRANCH  16  19
ENDBRANCH  15  16
ENDBRANCH  14  15
TORSDOF 9
ENDMDL
