MODEL 1
REMARK VINA RESULT:      -6.4      0.000      0.000
REMARK  Name = 
REMARK  6 active torsions:
REMARK  status: ('A' for Active; 'I' for Inactive)
REMARK    1  A    between atoms: O_2  and  C_3
REMARK    2  A    between atoms: C_3  and  C_4
REMARK    3  A    between atoms: N_6  and  C_7
REMARK    4  A    between atoms: C_7  and  C_8
REMARK    5  A    between atoms: C_11  and  N_12
REMARK    6  A    between atoms: N_12  and  C_13
REMARK                            x       y       z     vdW  Elec       q    Type
REMARK                         _______ _______ _______ _____ _____    ______ ____
ROOT
ATOM      8  C   UNL     1      -3.566   1.359  24.638  0.00  0.00    +0.169 C 
ATOM      9  O   UNL     1      -2.950   0.918  24.313  0.00  0.00    -0.350 OA
ATOM     10  C   UNL     1      -3.195   0.131  24.269  0.00  0.00    +0.162 C 
ATOM     11  C   UNL     1      -3.963   0.088  24.567  0.00  0.00    +0.135 C 
ATOM     17  C   UNL     1      -4.192   0.847  24.795  0.00  0.00    +0.199 C 
ATOM     18  O   UNL     1      -4.920   1.055  25.123  0.00  0.00    -0.219 OA
ENDROOT
BRANCH   8   7
ATOM      7  C   UNL     1      -3.557   2.173  24.782  0.00  0.00    +0.147 C 
BRANCH   7   6
ATOM      4  C   UNL     1      -2.829   3.382  25.001  0.00  0.00    +0.272 C 
ATOM      5  O   UNL     1      -3.538   3.804  25.025  0.00  0.00    -0.271 OA
ATOM      6  N   UNL     1      -2.839   2.566  24.880  0.00  0.00    -0.201 NA
BRANCH   4   3
ATOM      3  C   UNL     1      -2.111   3.776  25.099  0.00  0.00    +0.229 C 
BRANCH   3   2
ATOM      1  C   UNL     1      -1.370   4.997  25.147  0.00  0.00    +0.175 C 
ATOM      2  O   UNL     1      -2.093   4.601  25.129  0.00  0.00    -0.342 OA
ENDBRANCH   3   2
ENDBRANCH   4   3
ENDBRANCH   7   6
ENDBRANCH   8   7
BRANCH  11  12
ATOM     12  N   UNL     1      -4.422  -0.596  24.626  0.00  0.00    -0.211 NA
BRANCH  12  13
ATOM     13  C   UNL     1      -4.083  -1.333  24.474  0.00  0.00    +0.132 C 
ATOM     14  C   UNL     1      -3.612  -1.857  24.903  0.00  0.00    +0.162 C 
ATOM     15  O   UNL     1      -3.605  -2.375  24.260  0.00  0.00    -0.351 OA
ATOM     16  C   UNL     1      -4.076  -1.851  23.832  0.00  0.00    +0.162 C 
ENDBRANCH  12  13
ENDBRANCH  11  12
TORSDOF 6
ENDMDL
MODEL 2
REMARK VINA RESULT:      -6.2     16.258     18.560
REMARK  Name = 
REMARK  6 active torsions:
REMARK  status: ('A' for Active; 'I' for Inactive)
REMARK    1  A    between atoms: O_2  and  C_3
REMARK    2  A    between atoms: C_3  and  C_4
REMARK    3  A    between atoms: N_6  and  C_7
REMARK    4  A    between atoms: C_7  and  C_8
REMARK    5  A    between atoms: C_11  and  N_12
REMARK    6  A    between atoms: N_12  and  C_13
REMARK                            x       y       z     vdW  Elec       q    Type
REMARK                         _______ _______ _______ _____ _____    ______ ____
ROOT
ATOM      8  C   UNL     1      13.411   6.862  19.985  0.00  0.00    +0.169 C 
ATOM      9  O   UNL     1      13.471   6.863  20.807  0.00  0.00    -0.350 OA
ATOM     10  C   UNL     1      12.707   6.863  21.119  0.00  0.00    +0.162 C 
ATOM     11  C   UNL     1      12.175   6.862  20.488  0.00  0.00    +0.135 C 
ATOM     17  C   UNL     1      12.610   6.862  19.787  0.00  0.00    +0.199 C 
ATOM     18  O   UNL     1      12.299   6.861  19.023  0.00  0.00    -0.219 OA
ENDROOT
BRANCH   8   7
ATOM      7  C   UNL     1      14.042   6.862  19.452  0.00  0.00    +0.147 C 
BRANCH   7   6
ATOM      4  C   UNL     1      15.431   6.667  19.180  0.00  0.00    +0.272 C 
ATOM      5  O   UNL     1      15.308   6.888  18.394  0.00  0.00    -0.271 OA
ATOM      6  N   UNL     1      14.797   6.655  19.709  0.00  0.00    -0.201 NA
BRANCH   4   3
ATOM      3  C   UNL     1      16.187   6.460  19.437  0.00  0.00    +0.229 C 
BRANCH   3   2
ATOM      1  C   UNL     1      17.405   5.739  19.239  0.00  0.00    +0.175 C 
ATOM      2  O   UNL     1      16.631   5.911  19.009  0.00  0.00    -0.342 OA
ENDBRANCH   3   2
ENDBRANCH   4   3
ENDBRANCH   7   6
ENDBRANCH   8   7
BRANCH  11  12
ATOM     12  N   UNL     1      11.352   6.862  20.548  0.00  0.00    -0.211 NA
BRANCH  12  13
ATOM     13  C   UNL     1      10.987   7.190  21.211  0.00  0.00    +0.132 C 
ATOM     14  C   UNL     1      10.750   7.950  21.430  0.00  0.00    +0.162 C 
ATOM     15  O   UNL     1      10.471   7.655  22.149  0.00  0.00    -0.351 OA
ATOM     16  C   UNL     1      10.708   6.896  21.930  0.00  0.00    +0.162 C 
ENDBRANCH  12  13
ENDBRANCH  11  12
TORSDOF 6
ENDMDL
MODEL 3
REMARK VINA RESULT:      -6.2      0.869      4.701
REMARK  Name = 
REMARK  6 active torsions:
REMARK  status: ('A' for Active; 'I' for Inactive)
REMARK    1  A    between atoms: O_2  and  C_3
REMARK    2  A    between atoms: C_3  and  C_4
REMARK    3  A    between atoms: N_6  and  C_7
REMARK    4  A    between atoms: C_7  and  C_8
REMARK    5  A    between atoms: C_11  and  N_12
REMARK    6  A    between atoms: N_12  and  C_13
REMARK                            x       y       z     vdW  Elec       q    Type
REMARK                         _______ _______ _______ _____ _____    ______ ____
ROOT
ATOM      8  C   UNL     1      -3.554   1.277  24.613  0.00  0.00    +0.169 C 
ATOM      9  O   UNL     1      -2.767   1.358  24.845  0.00  0.00    -0.350 OA
ATOM     10  C   UNL     1      -2.605   2.163  24.921  0.00  0.00    +0.162 C 
ATOM     11  C   UNL     1      -3.293   2.580  24.736  0.00  0.00    +0.135 C 
ATOM     17  C   UNL     1      -3.880   2.032  24.546  0.00  0.00    +0.199 C 
ATOM     18  O   UNL     1      -4.655   2.209  24.327  0.00  0.00    -0.219 OA
ENDROOT
BRANCH   8   7
ATOM      7  C   UNL     1      -3.948   0.565  24.473  0.00  0.00    +0.147 C 
BRANCH   7   6
ATOM      4  C   UNL     1      -3.982  -0.862  24.540  0.00  0.00    +0.272 C 
ATOM      5  O   UNL     1      -4.671  -0.867  24.086  0.00  0.00    -0.271 OA
ATOM      6  N   UNL     1      -3.620  -0.145  24.733  0.00  0.00    -0.201 NA
BRANCH   4   3
ATOM      3  C   UNL     1      -3.654  -1.572  24.801  0.00  0.00    +0.229 C 
BRANCH   3   2
ATOM      1  C   UNL     1      -3.395  -2.962  24.594  0.00  0.00    +0.175 C 
ATOM      2  O   UNL     1      -3.769  -2.264  24.364  0.00  0.00    -0.342 OA
ENDBRANCH   3   2
ENDBRANCH   4   3
ENDBRANCH   7   6
ENDBRANCH   8   7
BRANCH  11  12
ATOM     12  N   UNL     1      -3.379   3.401  24.741  0.00  0.00    -0.211 NA
BRANCH  12  13
ATOM     13  C   UNL     1      -2.863   3.866  25.188  0.00  0.00    +0.132 C 
ATOM     14  C   UNL     1      -2.849   4.136  25.967  0.00  0.00    +0.162 C 
ATOM     15  O   UNL     1      -2.135   4.523  25.819  0.00  0.00    -0.351 OA
ATOM     16  C   UNL     1      -2.150   4.252  25.040  0.00  0.00    +0.162 C 
ENDBRANCH  12  13
ENDBRANCH  11  12
TORSDOF 6
ENDMDL
MODEL 4
REMARK VINA RESULT:      -6.0      2.187      3.597
REMARK  Name = 
REMARK  6 active torsions:
REMARK  status: ('A' for Active; 'I' for Inactive)
REMARK    1  A    between atoms: O_2  and  C_3
REMARK    2  A    between atoms: C_3  and  C_4
REMARK    3  A    between atoms: N_6  and  C_7
REMARK    4  A    between atoms: C_7  and  C_8
REMARK    5  A    between atoms: C_11  and  N_12
REMARK    6  A    between atoms: N_12  and  C_13
REMARK                            x       y       z     vdW  Elec       q    Type
REMARK                         _______ _______ _______ _____ _____    ______ ____
ROOT
ATOM      8  C   UNL     1      -2.626   1.758  24.450  0.00  0.00    +0.169 C 
ATOM      9  O   UNL     1      -3.083   1.086  24.589  0.00  0.00    -0.350 OA
ATOM     10  C   UNL     1      -3.873   1.321  24.638  0.00  0.00    +0.162 C 
ATOM     11  C   UNL     1      -3.902   2.138  24.529  0.00  0.00    +0.135 C 
ATOM     17  C   UNL     1      -3.131   2.408  24.412  0.00  0.00    +0.199 C 
ATOM     18  O   UNL     1      -2.906   3.191  24.281  0.00  0.00    -0.219 OA
ENDROOT
BRANCH   8   7
ATOM      7  C   UNL     1      -1.805   1.776  24.362  0.00  0.00    +0.147 C 
BRANCH   7   6
ATOM      4  C   UNL     1      -0.576   1.103  24.080  0.00  0.00    +0.272 C 
ATOM      5  O   UNL     1      -0.157   1.784  24.282  0.00  0.00    -0.271 OA
ATOM      6  N   UNL     1      -1.401   1.099  24.121  0.00  0.00    -0.201 NA
BRANCH   4   3
ATOM      3  C   UNL     1      -0.173   0.425  23.839  0.00  0.00    +0.229 C 
BRANCH   3   2
ATOM      1  C   UNL     1       0.884  -0.172  23.084  0.00  0.00    +0.175 C 
ATOM      2  O   UNL     1       0.539   0.495  23.426  0.00  0.00    -0.342 OA
ENDBRANCH   3   2
ENDBRANCH   4   3
ENDBRANCH   7   6
ENDBRANCH   8   7
BRANCH  11  12
ATOM     12  N   UNL     1      -4.583   2.604  24.535  0.00  0.00    -0.211 NA
BRANCH  12  13
ATOM     13  C   UNL     1      -5.209   2.412  25.038  0.00  0.00    +0.132 C 
ATOM     14  C   UNL     1      -5.456   2.665  25.784  0.00  0.00    +0.162 C 
ATOM     15  O   UNL     1      -6.093   2.141  25.750  0.00  0.00    -0.351 OA
ATOM     16  C   UNL     1      -5.845   1.888  25.005  0.00  0.00    +0.162 C 
ENDBRANCH  12  13
ENDBRANCH  11  12
TORSDOF 6
ENDMDL
MODEL 5
REMARK VINA RESULT:      -5.9      1.895      2.371
REMARK  Name = 
REMARK  6 active torsions:
REMARK  status: ('A' for Active; 'I' for Inactive)
REMARK    1  A    between atoms: O_2  and  C_3
REMARK    2  A    between atoms: C_3  and  C_4
REMARK    3  A    between atoms: N_6  and  C_7
REMARK    4  A    between atoms: C_7  and  C_8
REMARK    5  A    between atoms: C_11  and  N_12
REMARK    6  A    between atoms: N_12  and  C_13
REMARK                            x       y       z     vdW  Elec       q    Type
REMARK                         _______ _______ _______ _____ _____    ______ ____
ROOT
ATOM      8  C   UNL     1      -1.481   0.244  25.230  0.00  0.00    +0.169 C 
ATOM      9  O   UNL     1      -2.279   0.266  25.435  0.00  0.00    -0.350 OA
ATOM     10  C   UNL     1      -2.607  -0.471  25.262  0.00  0.00    +0.162 C 
ATOM     11  C   UNL     1      -2.011  -0.948  24.950  0.00  0.00    +0.135 C 
ATOM     17  C   UNL     1      -1.315  -0.506  24.930  0.00  0.00    +0.199 C 
ATOM     18  O   UNL     1      -0.581  -0.769  24.658  0.00  0.00    -0.219 OA
ENDROOT
BRANCH   8   7
ATOM      7  C   UNL     1      -0.942   0.864  25.310  0.00  0.00    +0.147 C 
BRANCH   7   6
ATOM      4  C   UNL     1      -0.676   2.255  25.501  0.00  0.00    +0.272 C 
ATOM      5  O   UNL     1       0.135   2.101  25.493  0.00  0.00    -0.271 OA
ATOM      6  N   UNL     1      -1.215   1.636  25.409  0.00  0.00    -0.201 NA
BRANCH   4   3
ATOM      3  C   UNL     1      -0.949   3.027  25.600  0.00  0.00    +0.229 C 
BRANCH   3   2
ATOM      1  C   UNL     1      -0.997   4.378  25.138  0.00  0.00    +0.175 C 
ATOM      2  O   UNL     1      -0.636   3.637  25.139  0.00  0.00    -0.342 OA
ENDBRANCH   3   2
ENDBRANCH   4   3
ENDBRANCH   7   6
ENDBRANCH   8   7
BRANCH  11  12
ATOM     12  N   UNL     1      -2.096  -1.731  24.701  0.00  0.00    -0.211 NA
BRANCH  12  13
ATOM     13  C   UNL     1      -2.845  -2.077  24.682  0.00  0.00    +0.132 C 
ATOM     14  C   UNL     1      -3.470  -2.083  24.143  0.00  0.00    +0.162 C 
ATOM     15  O   UNL     1      -3.904  -2.566  24.653  0.00  0.00    -0.351 OA
ATOM     16  C   UNL     1      -3.279  -2.560  25.191  0.00  0.00    +0.162 C 
ENDBRANCH  12  13
ENDBRANCH  11  12
TORSDOF 6
ENDMDL
MODEL 6
REMARK VINA RESULT:      -5.9      1.620      5.106
REMARK  Name = 
REMARK  6 active torsions:
REMARK  status: ('A' for Active; 'I' for Inactive)
REMARK    1  A    between atoms: O_2  and  C_3
REMARK    2  A    between atoms: C_3  and  C_4
REMARK    3  A    between atoms: N_6  and  C_7
REMARK    4  A    between atoms: C_7  and  C_8
REMARK    5  A    between atoms: C_11  and  N_12
REMARK    6  A    between atoms: N_12  and  C_13
REMARK                            x       y       z     vdW  Elec       q    Type
REMARK                         _______ _______ _______ _____ _____    ______ ____
ROOT
ATOM      8  C   UNL     1      -1.703   1.258  25.023  0.00  0.00    +0.169 C 
ATOM      9  O   UNL     1      -2.338   1.720  24.769  0.00  0.00    -0.350 OA
ATOM     10  C   UNL     1      -2.199   2.498  25.007  0.00  0.00    +0.162 C 
ATOM     11  C   UNL     1      -1.477   2.516  25.408  0.00  0.00    +0.135 C 
ATOM     17  C   UNL     1      -1.171   1.749  25.417  0.00  0.00    +0.199 C 
ATOM     18  O   UNL     1      -0.459   1.517  25.761  0.00  0.00    -0.219 OA
ENDROOT
BRANCH   8   7
ATOM      7  C   UNL     1      -1.616   0.446  24.902  0.00  0.00    +0.147 C 
BRANCH   7   6
ATOM      4  C   UNL     1      -2.196  -0.843  24.693  0.00  0.00    +0.272 C 
ATOM      5  O   UNL     1      -1.443  -1.166  24.596  0.00  0.00    -0.271 OA
ATOM      6  N   UNL     1      -2.283  -0.036  24.847  0.00  0.00    -0.201 NA
BRANCH   4   3
ATOM      3  C   UNL     1      -2.863  -1.325  24.638  0.00  0.00    +0.229 C 
BRANCH   3   2
ATOM      1  C   UNL     1      -3.442  -2.628  24.540  0.00  0.00    +0.175 C 
ATOM      2  O   UNL     1      -2.775  -2.144  24.576  0.00  0.00    -0.342 OA
ENDBRANCH   3   2
ENDBRANCH   4   3
ENDBRANCH   7   6
ENDBRANCH   8   7
BRANCH  11  12
ATOM     12  N   UNL     1      -1.124   3.183  25.740  0.00  0.00    -0.211 NA
BRANCH  12  13
ATOM     13  C   UNL     1      -1.311   3.934  25.453  0.00  0.00    +0.132 C 
ATOM     14  C   UNL     1      -0.948   4.466  24.937  0.00  0.00    +0.162 C 
ATOM     15  O   UNL     1      -1.573   4.996  25.045  0.00  0.00    -0.351 OA
ATOM     16  C   UNL     1      -1.934   4.463  25.561  0.00  0.00    +0.162 C 
ENDBRANCH  12  13
ENDBRANCH  11  12
TORSDOF 6
ENDMDL
MODEL 7
REMARK VINA RESULT:      -5.8      2.057      2.677
REMARK  Name = 
REMARK  6 active torsions:
REMARK  status: ('A' for Active; 'I' for Inactive)
REMARK    1  A    between atoms: O_2  and  C_3
REMARK    2  A    between atoms: C_3  and  C_4
REMARK    3  A    between atoms: N_6  and  C_7
REMARK    4  A    between atoms: C_7  and  C_8
REMARK    5  A    between atoms: C_11  and  N_12
REMARK    6  A    between atoms: N_12  and  C_13
REMARK                            x       y       z     vdW  Elec       q    Type
REMARK                         _______ _______ _______ _____ _____    ______ ____
ROOT
ATOM      8  C   UNL     1      -3.519   0.376  24.768  0.00  0.00    +0.169 C 
ATOM      9  O   UNL     1      -2.800   0.774  24.703  0.00  0.00    -0.350 OA
ATOM     10  C   UNL     1      -2.198   0.210  24.669  0.00  0.00    +0.162 C 
ATOM     11  C   UNL     1      -2.548  -0.537  24.714  0.00  0.00    +0.135 C 
ATOM     17  C   UNL     1      -3.364  -0.434  24.774  0.00  0.00    +0.199 C 
ATOM     18  O   UNL     1      -3.925  -1.036  24.832  0.00  0.00    -0.219 OA
ENDROOT
BRANCH   8   7
ATOM      7  C   UNL     1      -4.265   0.727  24.817  0.00  0.00    +0.147 C 
BRANCH   7   6
ATOM      4  C   UNL     1      -5.076   1.900  24.910  0.00  0.00    +0.272 C 
ATOM      5  O   UNL     1      -5.749   1.428  24.984  0.00  0.00    -0.271 OA
ATOM      6  N   UNL     1      -4.333   1.549  24.827  0.00  0.00    -0.201 NA
BRANCH   4   3
ATOM      3  C   UNL     1      -5.145   2.722  24.920  0.00  0.00    +0.229 C 
BRANCH   3   2
ATOM      1  C   UNL     1      -5.516   3.914  25.615  0.00  0.00    +0.175 C 
ATOM      2  O   UNL     1      -5.553   3.094  25.533  0.00  0.00    -0.342 OA
ENDBRANCH   3   2
ENDBRANCH   4   3
ENDBRANCH   7   6
ENDBRANCH   8   7
BRANCH  11  12
ATOM     12  N   UNL     1      -2.149  -1.259  24.699  0.00  0.00    -0.211 NA
BRANCH  12  13
ATOM     13  C   UNL     1      -1.335  -1.283  24.831  0.00  0.00    +0.132 C 
ATOM     14  C   UNL     1      -0.665  -1.206  24.355  0.00  0.00    +0.162 C 
ATOM     15  O   UNL     1      -0.183  -1.317  25.016  0.00  0.00    -0.351 OA
ATOM     16  C   UNL     1      -0.853  -1.394  25.491  0.00  0.00    +0.162 C 
ENDBRANCH  12  13
ENDBRANCH  11  12
TORSDOF 6
ENDMDL
MODEL 8
REMARK VINA RESULT:      -5.8     16.818     19.138
REMARK  Name = 
REMARK  6 active torsions:
REMARK  status: ('A' for Active; 'I' for Inactive)
REMARK    1  A    between atoms: O_2  and  C_3
REMARK    2  A    between atoms: C_3  and  C_4
REMARK    3  A    between atoms: N_6  and  C_7
REMARK    4  A    between atoms: C_7  and  C_8
REMARK    5  A    between atoms: C_11  and  N_12
REMARK    6  A    between atoms: N_12  and  C_13
REMARK                            x       y       z     vdW  Elec       q    Type
REMARK                         _______ _______ _______ _____ _____    ______ ____
ROOT
ATOM      8  C   UNL     1      13.814   6.854  19.978  0.00  0.00    +0.169 C 
ATOM      9  O   UNL     1      14.277   6.508  20.566  0.00  0.00    -0.350 OA
ATOM     10  C   UNL     1      15.059   6.501  20.303  0.00  0.00    +0.162 C 
ATOM     11  C   UNL     1      15.078   6.842  19.552  0.00  0.00    +0.135 C 
ATOM     17  C   UNL     1      14.308   7.060  19.351  0.00  0.00    +0.199 C 
ATOM     18  O   UNL     1      14.074   7.420  18.647  0.00  0.00    -0.219 OA
ENDROOT
BRANCH   8   7
ATOM      7  C   UNL     1      12.997   6.972  20.011  0.00  0.00    +0.147 C 
BRANCH   7   6
ATOM      4  C   UNL     1      11.789   7.059  20.769  0.00  0.00    +0.272 C 
ATOM      5  O   UNL     1      11.364   7.199  20.076  0.00  0.00    -0.271 OA
ATOM      6  N   UNL     1      12.606   6.946  20.737  0.00  0.00    -0.201 NA
BRANCH   4   3
ATOM      3  C   UNL     1      11.398   7.033  21.494  0.00  0.00    +0.229 C 
BRANCH   3   2
ATOM      1  C   UNL     1      10.338   7.525  22.317  0.00  0.00    +0.175 C 
ATOM      2  O   UNL     1      10.643   7.360  21.568  0.00  0.00    -0.342 OA
ENDBRANCH   3   2
ENDBRANCH   4   3
ENDBRANCH   7   6
ENDBRANCH   8   7
BRANCH  11  12
ATOM     12  N   UNL     1      15.750   6.946  19.084  0.00  0.00    -0.211 NA
BRANCH  12  13
ATOM     13  C   UNL     1      16.435   6.517  19.246  0.00  0.00    +0.132 C 
ATOM     14  C   UNL     1      16.768   5.819  18.955  0.00  0.00    +0.162 C 
ATOM     15  O   UNL     1      17.405   5.908  19.474  0.00  0.00    -0.351 OA
ATOM     16  C   UNL     1      17.071   6.605  19.763  0.00  0.00    +0.162 C 
ENDBRANCH  12  13
ENDBRANCH  11  12
TORSDOF 6
ENDMDL
MODEL 9
REMARK VINA RESULT:      -5.8     18.005     19.597
REMARK  Name = 
REMARK  6 active torsions:
REMARK  status: ('A' for Active; 'I' for Inactive)
REMARK    1  A    between atoms: O_2  and  C_3
REMARK    2  A    between atoms: C_3  and  C_4
REMARK    3  A    between atoms: N_6  and  C_7
REMARK    4  A    between atoms: C_7  and  C_8
REMARK    5  A    between atoms: C_11  and  N_12
REMARK    6  A    between atoms: N_12  and  C_13
REMARK                            x       y       z     vdW  Elec       q    Type
REMARK                         _______ _______ _______ _____ _____    ______ ____
ROOT
ATOM      8  C   UNL     1      13.766   7.362  18.922  0.00  0.00    +0.169 C 
ATOM      9  O   UNL     1      14.373   7.530  18.389  0.00  0.00    -0.350 OA
ATOM     10  C   UNL     1      15.074   7.223  18.697  0.00  0.00    +0.162 C 
ATOM     11  C   UNL     1      14.900   6.866  19.420  0.00  0.00    +0.135 C 
ATOM     17  C   UNL     1      14.091   6.952  19.559  0.00  0.00    +0.199 C 
ATOM     18  O   UNL     1      13.681   6.676  20.219  0.00  0.00    -0.219 OA
ENDROOT
BRANCH   8   7
ATOM      7  C   UNL     1      12.972   7.569  18.833  0.00  0.00    +0.147 C 
BRANCH   7   6
ATOM      4  C   UNL     1      11.912   8.097  18.032  0.00  0.00    +0.272 C 
ATOM      5  O   UNL     1      11.380   7.964  18.648  0.00  0.00    -0.271 OA
ATOM      6  N   UNL     1      12.709   7.899  18.124  0.00  0.00    -0.201 NA
BRANCH   4   3
ATOM      3  C   UNL     1      11.650   8.427  17.323  0.00  0.00    +0.229 C 
BRANCH   3   2
ATOM      1  C   UNL     1      10.619   8.600  16.349  0.00  0.00    +0.175 C 
ATOM      2  O   UNL     1      10.904   8.230  17.028  0.00  0.00    -0.342 OA
ENDBRANCH   3   2
ENDBRANCH   4   3
ENDBRANCH   7   6
ENDBRANCH   8   7
BRANCH  11  12
ATOM     12  N   UNL     1      15.440   6.489  19.917  0.00  0.00    -0.211 NA
BRANCH  12  13
ATOM     13  C   UNL     1      16.244   6.495  19.731  0.00  0.00    +0.132 C 
ATOM     14  C   UNL     1      16.890   6.960  19.951  0.00  0.00    +0.162 C 
ATOM     15  O   UNL     1      17.381   6.504  19.469  0.00  0.00    -0.351 OA
ATOM     16  C   UNL     1      16.735   6.040  19.249  0.00  0.00    +0.162 C 
ENDBRANCH  12  13
ENDBRANCH  11  12
TORSDOF 6
ENDMDL
MODEL 10
REMARK VINA RESULT:      -5.6     15.986     18.458
REMARK  Name = 
REMARK  6 active torsions:
REMARK  status: ('A' for Active; 'I' for Inactive)
REMARK    1  A    between atoms: O_2  and  C_3
REMARK    2  A    between atoms: C_3  and  C_4
REMARK    3  A    between atoms: N_6  and  C_7
REMARK    4  A    between atoms: C_7  and  C_8
REMARK    5  A    between atoms: C_11  and  N_12
REMARK    6  A    between atoms: N_12  and  C_13
REMARK                            x       y       z     vdW  Elec       q    Type
REMARK                         _______ _______ _______ _____ _____    ______ ____
ROOT
ATOM      8  C   UNL     1      12.589   7.043  19.280  0.00  0.00    +0.169 C 
ATOM      9  O   UNL     1      12.107   7.313  18.668  0.00  0.00    -0.350 OA
ATOM     10  C   UNL     1      12.593   7.541  18.042  0.00  0.00    +0.162 C 
ATOM     11  C   UNL     1      13.376   7.412  18.268  0.00  0.00    +0.135 C 
ATOM     17  C   UNL     1      13.373   7.104  19.033  0.00  0.00    +0.199 C 
ATOM     18  O   UNL     1      14.039   6.894  19.474  0.00  0.00    -0.219 OA
ENDROOT
BRANCH   8   7
ATOM      7  C   UNL     1      12.331   6.760  20.012  0.00  0.00    +0.147 C 
BRANCH   7   6
ATOM      4  C   UNL     1      11.437   6.841  21.124  0.00  0.00    +0.272 C 
ATOM      5  O   UNL     1      11.792   6.175  21.457  0.00  0.00    -0.271 OA
ATOM      6  N   UNL     1      11.707   7.134  20.401  0.00  0.00    -0.201 NA
BRANCH   4   3
ATOM      3  C   UNL     1      10.813   7.215  21.513  0.00  0.00    +0.229 C 
BRANCH   3   2
ATOM      1  C   UNL     1      10.413   8.123  22.541  0.00  0.00    +0.175 C 
ATOM      2  O   UNL     1      10.932   7.547  22.259  0.00  0.00    -0.342 OA
ENDBRANCH   3   2
ENDBRANCH   4   3
ENDBRANCH   7   6
ENDBRANCH   8   7
BRANCH  11  12
ATOM     12  N   UNL     1      14.045   7.564  17.809  0.00  0.00    -0.211 NA
BRANCH  12  13
ATOM     13  C   UNL     1      14.042   8.190  17.272  0.00  0.00    +0.132 C 
ATOM     14  C   UNL     1      13.943   8.257  16.455  0.00  0.00    +0.162 C 
ATOM     15  O   UNL     1      14.037   9.075  16.511  0.00  0.00    -0.351 OA
ATOM     16  C   UNL     1      14.135   9.008  17.327  0.00  0.00    +0.162 C 
ENDBRANCH  12  13
ENDBRANCH  11  12
TORSDOF 6
ENDMDL
