REMARK  Name = 
REMARK  4 active torsions:
REMARK  status: ('A' for Active; 'I' for Inactive)
REMARK    1  A    between atoms: N_4  and  C_25
REMARK    2  A    between atoms: C_7  and  C_8
REMARK    3  A    between atoms: C_10  and  N_11
REMARK    4  A    between atoms: C_12  and  C_14
REMARK                            x       y       z     vdW  Elec       q    Type
REMARK                         _______ _______ _______ _____ _____    ______ ____
ROOT
ATOM      8  C   UNL     1       6.801   2.626   0.000  0.00  0.00    +0.048 C 
ATOM      9  C   UNL     1       6.249   2.012   0.000  0.00  0.00    +0.035 C 
ATOM     10  C   UNL     1       5.496   2.348   0.000  0.00  0.00    +0.118 C 
ATOM     23  C   UNL     1       5.582   3.168   0.000  0.00  0.00    -0.009 C 
ATOM     24  C   UNL     1       6.389   3.340   0.000  0.00  0.00    -0.025 C 
ENDROOT
BRANCH   8   7
ATOM      1  C   UNL     1       8.002   3.959   0.000  0.00  0.00    +0.054 C 
ATOM      2  C   UNL     1       8.174   3.152   0.000  0.00  0.00    +0.077 A 
ATOM      3  N   UNL     1       8.928   2.817   0.000  0.00  0.00    -0.170 NA
ATOM      4  N   UNL     1       8.841   1.996   0.000  0.00  0.00    -0.234 N 
ATOM      5  C   UNL     1       8.034   1.825   0.000  0.00  0.00    +0.058 A 
ATOM      6  C   UNL     1       7.699   1.071   0.000  0.00  0.00    +0.052 C 
ATOM      7  C   UNL     1       7.622   2.539   0.000  0.00  0.00    +0.010 A 
BRANCH   4  25
ATOM     25  C   UNL     1       9.454   1.444   0.000  0.00  0.00    +0.082 A 
ATOM     26  C   UNL     1      10.239   1.699   0.000  0.00  0.00    +0.019 A 
ATOM     27  C   UNL     1      10.852   1.147   0.000  0.00  0.00    +0.002 A 
ATOM     28  C   UNL     1      10.681   0.340   0.000  0.00  0.00    +0.000 A 
ATOM     29  C   UNL     1       9.896   0.085   0.000  0.00  0.00    +0.002 A 
ATOM     30  C   UNL     1       9.283   0.637   0.000  0.00  0.00    +0.019 A 
ENDBRANCH   4  25
ENDBRANCH   8   7
BRANCH  10  11
ATOM     11  N   UNL     1       4.781   1.935   0.000  0.00  0.00    -0.199 NA
ATOM     12  C   UNL     1       4.067   2.348   0.000  0.00  0.00    +0.265 C 
ATOM     13  O   UNL     1       4.067   3.173   0.000  0.00  0.00    -0.268 OA
BRANCH  12  14
ATOM     14  C   UNL     1       3.352   1.935   0.000  0.00  0.00    +0.058 A 
ATOM     15  C   UNL     1       3.352   1.110   0.000  0.00  0.00    +0.008 A 
ATOM     16  C   UNL     1       2.638   0.698   0.000  0.00  0.00    +0.040 A 
ATOM     17  C   UNL     1       1.923   1.110   0.000  0.00  0.00    +0.176 A 
ATOM     18  O   UNL     1       1.139   0.856   0.000  0.00  0.00    -0.435 OA
ATOM     19  C   UNL     1       0.654   1.523   0.000  0.00  0.00    +0.429 C 
ATOM     20  O   UNL     1       1.139   2.190   0.000  0.00  0.00    -0.435 OA
ATOM     21  C   UNL     1       1.923   1.935   0.000  0.00  0.00    +0.177 A 
ATOM     22  C   UNL     1       2.638   2.348   0.000  0.00  0.00    +0.045 A 
ENDBRANCH  12  14
ENDBRANCH  10  11
TORSDOF 4
