MODEL 1
REMARK VINA RESULT:      -9.3      0.000      0.000
REMARK  Name = 
REMARK  8 active torsions:
REMARK  status: ('A' for Active; 'I' for Inactive)
REMARK    1  A    between atoms: O_2  and  C_3
REMARK    2  A    between atoms: C_3  and  C_4
REMARK    3  A    between atoms: C_4  and  O_5
REMARK    4  A    between atoms: O_5  and  C_6
REMARK    5  A    between atoms: C_8  and  C_12
REMARK    6  A    between atoms: C_15  and  C_17
REMARK    7  A    between atoms: N_21  and  C_22
REMARK    8  A    between atoms: C_22  and  C_23
REMARK                            x       y       z     vdW  Elec       q    Type
REMARK                         _______ _______ _______ _____ _____    ______ ____
ROOT
ATOM     12  C   UNL     1      -4.039   1.521  24.435  0.00  0.00    +0.221 A 
ATOM     13  N   UNL     1      -3.858   1.441  23.634  0.00  0.00    -0.054 NA
ATOM     14  O   UNL     1      -3.672   0.650  23.493  0.00  0.00    -0.336 OA
ATOM     15  C   UNL     1      -3.737   0.241  24.207  0.00  0.00    +0.251 A 
ATOM     16  N   UNL     1      -3.964   0.779  24.789  0.00  0.00    -0.188 NA
ENDROOT
BRANCH  12   8
ATOM      6  C   UNL     1      -3.895   3.424  25.494  0.00  0.00    +0.142 A 
ATOM      7  C   UNL     1      -3.677   2.726  25.113  0.00  0.00    +0.059 A 
ATOM      8  C   UNL     1      -4.257   2.220  24.816  0.00  0.00    +0.123 A 
ATOM      9  N   UNL     1      -5.055   2.413  24.899  0.00  0.00    -0.240 NA
ATOM     10  C   UNL     1      -5.273   3.112  25.280  0.00  0.00    +0.102 A 
ATOM     11  C   UNL     1      -4.692   3.617  25.577  0.00  0.00    +0.058 A 
BRANCH   6   5
ATOM      5  O   UNL     1      -3.314   3.930  25.791  0.00  0.00    -0.473 OA
BRANCH   5   4
ATOM      4  C   UNL     1      -2.718   4.210  25.294  0.00  0.00    +0.237 C 
BRANCH   4   3
ATOM      3  C   UNL     1      -2.049   4.572  25.614  0.00  0.00    +0.189 C 
BRANCH   3   2
ATOM      1  C   UNL     1      -0.867   5.011  24.942  0.00  0.00    +0.174 C 
ATOM      2  O   UNL     1      -1.645   5.147  25.182  0.00  0.00    -0.347 OA
ENDBRANCH   3   2
ENDBRANCH   4   3
ENDBRANCH   5   4
ENDBRANCH   6   5
ENDBRANCH  12   8
BRANCH  15  17
ATOM     17  C   UNL     1      -3.599  -0.565  24.318  0.00  0.00    +0.138 C 
ATOM     18  C   UNL     1      -4.162  -1.165  24.262  0.00  0.00    +0.027 C 
ATOM     19  C   UNL     1      -3.785  -1.883  24.414  0.00  0.00    +0.019 C 
ATOM     20  C   UNL     1      -2.989  -1.726  24.564  0.00  0.00    +0.073 C 
ATOM     21  N   UNL     1      -2.874  -0.912  24.505  0.00  0.00    -0.262 NA
BRANCH  21  22
ATOM     22  C   UNL     1      -2.160  -0.513  24.614  0.00  0.00    +0.106 C 
BRANCH  22  23
ATOM     23  C   UNL     1      -1.494  -0.925  24.873  0.00  0.00    +0.023 A 
ATOM     24  C   UNL     1      -1.302  -1.093  25.658  0.00  0.00    +0.004 A 
ATOM     25  C   UNL     1      -0.593  -1.513  25.662  0.00  0.00    +0.007 A 
ATOM     26  C   UNL     1      -0.345  -1.605  24.880  0.00  0.00    +0.035 A 
ATOM     27  S   UNL     1      -0.903  -1.241  24.392  0.00  0.00    -0.089 S 
ENDBRANCH  22  23
ENDBRANCH  21  22
ENDBRANCH  15  17
TORSDOF 8
ENDMDL
MODEL 2
REMARK VINA RESULT:      -9.3      2.377      5.645
REMARK  Name = 
REMARK  8 active torsions:
REMARK  status: ('A' for Active; 'I' for Inactive)
REMARK    1  A    between atoms: O_2  and  C_3
REMARK    2  A    between atoms: C_3  and  C_4
REMARK    3  A    between atoms: C_4  and  O_5
REMARK    4  A    between atoms: O_5  and  C_6
REMARK    5  A    between atoms: C_8  and  C_12
REMARK    6  A    between atoms: C_15  and  C_17
REMARK    7  A    between atoms: N_21  and  C_22
REMARK    8  A    between atoms: C_22  and  C_23
REMARK                            x       y       z     vdW  Elec       q    Type
REMARK                         _______ _______ _______ _____ _____    ______ ____
ROOT
ATOM     12  C   UNL     1      -0.528   1.581  25.046  0.00  0.00    +0.221 A 
ATOM     13  N   UNL     1      -0.324   1.752  25.827  0.00  0.00    -0.054 NA
ATOM     14  O   UNL     1      -0.593   2.511  26.000  0.00  0.00    -0.336 OA
ATOM     15  C   UNL     1      -0.964   2.811  25.326  0.00  0.00    +0.251 A 
ATOM     16  N   UNL     1      -0.923   2.236  24.736  0.00  0.00    -0.188 NA
ENDROOT
BRANCH  12   8
ATOM      6  C   UNL     1      -0.549  -0.530  24.491  0.00  0.00    +0.142 A 
ATOM      7  C   UNL     1      -0.712   0.172  24.892  0.00  0.00    +0.059 A 
ATOM      8  C   UNL     1      -0.365   0.878  24.645  0.00  0.00    +0.123 A 
ATOM      9  N   UNL     1       0.145   0.883  23.995  0.00  0.00    -0.240 NA
ATOM     10  C   UNL     1       0.307   0.180  23.594  0.00  0.00    +0.102 A 
ATOM     11  C   UNL     1      -0.040  -0.526  23.842  0.00  0.00    +0.058 A 
BRANCH   6   5
ATOM      5  O   UNL     1      -0.896  -1.237  24.739  0.00  0.00    -0.473 OA
BRANCH   5   4
ATOM      4  C   UNL     1      -1.615  -1.479  24.414  0.00  0.00    +0.237 C 
BRANCH   4   3
ATOM      3  C   UNL     1      -2.019  -2.121  24.738  0.00  0.00    +0.189 C 
BRANCH   3   2
ATOM      1  C   UNL     1      -3.333  -2.682  24.755  0.00  0.00    +0.174 C 
ATOM      2  O   UNL     1      -2.660  -2.450  24.337  0.00  0.00    -0.347 OA
ENDBRANCH   3   2
ENDBRANCH   4   3
ENDBRANCH   5   4
ENDBRANCH   6   5
ENDBRANCH  12   8
BRANCH  15  17
ATOM     17  C   UNL     1      -1.313   3.555  25.255  0.00  0.00    +0.138 C 
ATOM     18  C   UNL     1      -0.916   4.266  25.124  0.00  0.00    +0.027 C 
ATOM     19  C   UNL     1      -1.478   4.869  25.090  0.00  0.00    +0.019 C 
ATOM     20  C   UNL     1      -2.223   4.530  25.200  0.00  0.00    +0.073 C 
ATOM     21  N   UNL     1      -2.120   3.718  25.302  0.00  0.00    -0.262 NA
BRANCH  21  22
ATOM     22  C   UNL     1      -2.720   3.165  25.428  0.00  0.00    +0.106 C 
BRANCH  22  23
ATOM     23  C   UNL     1      -3.506   3.370  25.283  0.00  0.00    +0.023 A 
ATOM     24  C   UNL     1      -3.880   3.370  24.548  0.00  0.00    +0.004 A 
ATOM     25  C   UNL     1      -4.660   3.611  24.659  0.00  0.00    +0.007 A 
ATOM     26  C   UNL     1      -4.770   3.761  25.463  0.00  0.00    +0.035 A 
ATOM     27  S   UNL     1      -4.056   3.612  25.849  0.00  0.00    -0.089 S 
ENDBRANCH  22  23
ENDBRANCH  21  22
ENDBRANCH  15  17
TORSDOF 8
ENDMDL
MODEL 3
REMARK VINA RESULT:      -9.0      1.555      2.843
REMARK  Name = 
REMARK  8 active torsions:
REMARK  status: ('A' for Active; 'I' for Inactive)
REMARK    1  A    between atoms: O_2  and  C_3
REMARK    2  A    between atoms: C_3  and  C_4
REMARK    3  A    between atoms: C_4  and  O_5
REMARK    4  A    between atoms: O_5  and  C_6
REMARK    5  A    between atoms: C_8  and  C_12
REMARK    6  A    between atoms: C_15  and  C_17
REMARK    7  A    between atoms: N_21  and  C_22
REMARK    8  A    between atoms: C_22  and  C_23
REMARK                            x       y       z     vdW  Elec       q    Type
REMARK                         _______ _______ _______ _____ _____    ______ ____
ROOT
ATOM     12  C   UNL     1      -1.612   1.926  24.473  0.00  0.00    +0.221 A 
ATOM     13  N   UNL     1      -1.503   1.746  23.675  0.00  0.00    -0.054 NA
ATOM     14  O   UNL     1      -1.289   0.952  23.620  0.00  0.00    -0.336 OA
ATOM     15  C   UNL     1      -1.266   0.640  24.384  0.00  0.00    +0.251 A 
ATOM     16  N   UNL     1      -1.466   1.242  24.911  0.00  0.00    -0.188 NA
ENDROOT
BRANCH  12   8
ATOM      6  C   UNL     1      -2.841   3.617  25.101  0.00  0.00    +0.142 A 
ATOM      7  C   UNL     1      -2.624   2.883  24.795  0.00  0.00    +0.059 A 
ATOM      8  C   UNL     1      -1.830   2.660  24.779  0.00  0.00    +0.123 A 
ATOM      9  N   UNL     1      -1.252   3.173  25.071  0.00  0.00    -0.240 NA
ATOM     10  C   UNL     1      -1.470   3.908  25.377  0.00  0.00    +0.102 A 
ATOM     11  C   UNL     1      -2.265   4.129  25.392  0.00  0.00    +0.058 A 
BRANCH   6   5
ATOM      5  O   UNL     1      -3.636   3.838  25.116  0.00  0.00    -0.473 OA
BRANCH   5   4
ATOM      4  C   UNL     1      -4.162   3.451  25.621  0.00  0.00    +0.237 C 
BRANCH   4   3
ATOM      3  C   UNL     1      -4.975   3.530  25.509  0.00  0.00    +0.189 C 
BRANCH   3   2
ATOM      1  C   UNL     1      -6.018   2.628  25.883  0.00  0.00    +0.174 C 
ATOM      2  O   UNL     1      -5.500   3.241  26.076  0.00  0.00    -0.347 OA
ENDBRANCH   3   2
ENDBRANCH   4   3
ENDBRANCH   5   4
ENDBRANCH   6   5
ENDBRANCH  12   8
BRANCH  15  17
ATOM     17  C   UNL     1      -1.076  -0.138  24.584  0.00  0.00    +0.138 C 
ATOM     18  C   UNL     1      -0.318  -0.433  24.718  0.00  0.00    +0.027 C 
ATOM     19  C   UNL     1      -0.385  -1.234  24.903  0.00  0.00    +0.019 C 
ATOM     20  C   UNL     1      -1.185  -1.434  24.883  0.00  0.00    +0.073 C 
ATOM     21  N   UNL     1      -1.612  -0.757  24.687  0.00  0.00    -0.262 NA
BRANCH  21  22
ATOM     22  C   UNL     1      -2.432  -0.706  24.606  0.00  0.00    +0.106 C 
BRANCH  22  23
ATOM     23  C   UNL     1      -2.898  -1.380  24.706  0.00  0.00    +0.023 A 
ATOM     24  C   UNL     1      -3.077  -1.937  24.125  0.00  0.00    +0.004 A 
ATOM     25  C   UNL     1      -3.555  -2.515  24.465  0.00  0.00    +0.007 A 
ATOM     26  C   UNL     1      -3.673  -2.316  25.257  0.00  0.00    +0.035 A 
ATOM     27  S   UNL     1      -3.267  -1.614  25.406  0.00  0.00    -0.089 S 
ENDBRANCH  22  23
ENDBRANCH  21  22
ENDBRANCH  15  17
TORSDOF 8
ENDMDL
MODEL 4
REMARK VINA RESULT:      -8.9      1.914      3.217
REMARK  Name = 
REMARK  8 active torsions:
REMARK  status: ('A' for Active; 'I' for Inactive)
REMARK    1  A    between atoms: O_2  and  C_3
REMARK    2  A    between atoms: C_3  and  C_4
REMARK    3  A    between atoms: C_4  and  O_5
REMARK    4  A    between atoms: O_5  and  C_6
REMARK    5  A    between atoms: C_8  and  C_12
REMARK    6  A    between atoms: C_15  and  C_17
REMARK    7  A    between atoms: N_21  and  C_22
REMARK    8  A    between atoms: C_22  and  C_23
REMARK                            x       y       z     vdW  Elec       q    Type
REMARK                         _______ _______ _______ _____ _____    ______ ____
ROOT
ATOM     12  C   UNL     1      -3.141   3.371  24.684  0.00  0.00    +0.221 A 
ATOM     13  N   UNL     1      -3.594   3.514  24.010  0.00  0.00    -0.054 NA
ATOM     14  O   UNL     1      -4.260   3.030  24.042  0.00  0.00    -0.336 OA
ATOM     15  C   UNL     1      -4.219   2.587  24.737  0.00  0.00    +0.251 A 
ATOM     16  N   UNL     1      -3.528   2.797  25.133  0.00  0.00    -0.188 NA
ENDROOT
BRANCH  12   8
ATOM      6  C   UNL     1      -1.023   3.653  25.134  0.00  0.00    +0.142 A 
ATOM      7  C   UNL     1      -1.738   3.287  24.943  0.00  0.00    +0.059 A 
ATOM      8  C   UNL     1      -2.426   3.736  24.875  0.00  0.00    +0.123 A 
ATOM      9  N   UNL     1      -2.400   4.552  24.999  0.00  0.00    -0.240 NA
ATOM     10  C   UNL     1      -1.686   4.918  25.191  0.00  0.00    +0.102 A 
ATOM     11  C   UNL     1      -0.997   4.467  25.258  0.00  0.00    +0.058 A 
BRANCH   6   5
ATOM      5  O   UNL     1      -0.335   3.202  25.201  0.00  0.00    -0.473 OA
BRANCH   5   4
ATOM      4  C   UNL     1      -0.094   2.722  24.575  0.00  0.00    +0.237 C 
BRANCH   4   3
ATOM      3  C   UNL     1       0.415   2.088  24.713  0.00  0.00    +0.189 C 
BRANCH   3   2
ATOM      1  C   UNL     1       0.886   1.080  23.817  0.00  0.00    +0.174 C 
ATOM      2  O   UNL     1       0.939   1.843  24.125  0.00  0.00    -0.347 OA
ENDBRANCH   3   2
ENDBRANCH   4   3
ENDBRANCH   5   4
ENDBRANCH   6   5
ENDBRANCH  12   8
BRANCH  15  17
ATOM     17  C   UNL     1      -4.774   2.030  24.990  0.00  0.00    +0.138 C 
ATOM     18  C   UNL     1      -5.509   2.196  25.324  0.00  0.00    +0.027 C 
ATOM     19  C   UNL     1      -5.879   1.478  25.494  0.00  0.00    +0.019 C 
ATOM     20  C   UNL     1      -5.372   0.869  25.264  0.00  0.00    +0.073 C 
ATOM     21  N   UNL     1      -4.689   1.210  24.953  0.00  0.00    -0.262 NA
BRANCH  21  22
ATOM     22  C   UNL     1      -4.035   0.803  24.657  0.00  0.00    +0.106 C 
BRANCH  22  23
ATOM     23  C   UNL     1      -4.040  -0.021  24.632  0.00  0.00    +0.023 A 
ATOM     24  C   UNL     1      -4.335  -0.488  24.019  0.00  0.00    +0.004 A 
ATOM     25  C   UNL     1      -4.227  -1.278  24.226  0.00  0.00    +0.007 A 
ATOM     26  C   UNL     1      -3.867  -1.302  24.967  0.00  0.00    +0.035 A 
ATOM     27  S   UNL     1      -3.751  -0.525  25.219  0.00  0.00    -0.089 S 
ENDBRANCH  22  23
ENDBRANCH  21  22
ENDBRANCH  15  17
TORSDOF 8
ENDMDL
MODEL 5
REMARK VINA RESULT:      -8.8      2.006      4.392
REMARK  Name = 
REMARK  8 active torsions:
REMARK  status: ('A' for Active; 'I' for Inactive)
REMARK    1  A    between atoms: O_2  and  C_3
REMARK    2  A    between atoms: C_3  and  C_4
REMARK    3  A    between atoms: C_4  and  O_5
REMARK    4  A    between atoms: O_5  and  C_6
REMARK    5  A    between atoms: C_8  and  C_12
REMARK    6  A    between atoms: C_15  and  C_17
REMARK    7  A    between atoms: N_21  and  C_22
REMARK    8  A    between atoms: C_22  and  C_23
REMARK                            x       y       z     vdW  Elec       q    Type
REMARK                         _______ _______ _______ _____ _____    ______ ____
ROOT
ATOM     12  C   UNL     1      -3.938   3.377  25.698  0.00  0.00    +0.221 A 
ATOM     13  N   UNL     1      -3.850   3.793  26.405  0.00  0.00    -0.054 NA
ATOM     14  O   UNL     1      -3.130   4.194  26.377  0.00  0.00    -0.336 OA
ATOM     15  C   UNL     1      -2.773   4.026  25.653  0.00  0.00    +0.251 A 
ATOM     16  N   UNL     1      -3.271   3.521  25.233  0.00  0.00    -0.188 NA
ENDROOT
BRANCH  12   8
ATOM      6  C   UNL     1      -5.094   1.704  24.904  0.00  0.00    +0.142 A 
ATOM      7  C   UNL     1      -4.452   2.181  25.111  0.00  0.00    +0.059 A 
ATOM      8  C   UNL     1      -4.579   2.901  25.492  0.00  0.00    +0.123 A 
ATOM      9  N   UNL     1      -5.348   3.145  25.668  0.00  0.00    -0.240 NA
ATOM     10  C   UNL     1      -5.989   2.668  25.462  0.00  0.00    +0.102 A 
ATOM     11  C   UNL     1      -5.861   1.948  25.080  0.00  0.00    +0.058 A 
BRANCH   6   5
ATOM      5  O   UNL     1      -4.966   0.984  24.523  0.00  0.00    -0.473 OA
BRANCH   5   4
ATOM      4  C   UNL     1      -4.564   0.377  24.912  0.00  0.00    +0.237 C 
BRANCH   4   3
ATOM      3  C   UNL     1      -4.384  -0.322  24.512  0.00  0.00    +0.189 C 
BRANCH   3   2
ATOM      1  C   UNL     1      -3.818  -1.633  24.520  0.00  0.00    +0.174 C 
ATOM      2  O   UNL     1      -4.102  -0.975  24.929  0.00  0.00    -0.347 OA
ENDBRANCH   3   2
ENDBRANCH   4   3
ENDBRANCH   5   4
ENDBRANCH   6   5
ENDBRANCH  12   8
BRANCH  15  17
ATOM     17  C   UNL     1      -2.043   4.313  25.394  0.00  0.00    +0.138 C 
ATOM     18  C   UNL     1      -1.885   5.084  25.147  0.00  0.00    +0.027 C 
ATOM     19  C   UNL     1      -1.089   5.126  24.938  0.00  0.00    +0.019 C 
ATOM     20  C   UNL     1      -0.754   4.381  25.056  0.00  0.00    +0.073 C 
ATOM     21  N   UNL     1      -1.344   3.879  25.338  0.00  0.00    -0.262 NA
BRANCH  21  22
ATOM     22  C   UNL     1      -1.251   3.081  25.530  0.00  0.00    +0.106 C 
BRANCH  22  23
ATOM     23  C   UNL     1      -0.618   2.654  25.219  0.00  0.00    +0.023 A 
ATOM     24  C   UNL     1      -0.534   2.408  24.437  0.00  0.00    +0.004 A 
ATOM     25  C   UNL     1       0.179   2.000  24.372  0.00  0.00    +0.007 A 
ATOM     26  C   UNL     1       0.538   1.993  25.115  0.00  0.00    +0.035 A 
ATOM     27  S   UNL     1       0.045   2.398  25.639  0.00  0.00    -0.089 S 
ENDBRANCH  22  23
ENDBRANCH  21  22
ENDBRANCH  15  17
TORSDOF 8
ENDMDL
MODEL 6
REMARK VINA RESULT:      -8.8      1.717      4.593
REMARK  Name = 
REMARK  8 active torsions:
REMARK  status: ('A' for Active; 'I' for Inactive)
REMARK    1  A    between atoms: O_2  and  C_3
REMARK    2  A    between atoms: C_3  and  C_4
REMARK    3  A    between atoms: C_4  and  O_5
REMARK    4  A    between atoms: O_5  and  C_6
REMARK    5  A    between atoms: C_8  and  C_12
REMARK    6  A    between atoms: C_15  and  C_17
REMARK    7  A    between atoms: N_21  and  C_22
REMARK    8  A    between atoms: C_22  and  C_23
REMARK                            x       y       z     vdW  Elec       q    Type
REMARK                         _______ _______ _______ _____ _____    ______ ____
ROOT
ATOM     12  C   UNL     1      -4.150   0.247  24.728  0.00  0.00    +0.221 A 
ATOM     13  N   UNL     1      -4.603   0.517  25.362  0.00  0.00    -0.054 NA
ATOM     14  O   UNL     1      -4.638   1.340  25.318  0.00  0.00    -0.336 OA
ATOM     15  C   UNL     1      -4.206   1.578  24.657  0.00  0.00    +0.251 A 
ATOM     16  N   UNL     1      -3.905   0.904  24.292  0.00  0.00    -0.188 NA
ENDROOT
BRANCH  12   8
ATOM      6  C   UNL     1      -3.085  -1.657  24.648  0.00  0.00    +0.142 A 
ATOM      7  C   UNL     1      -3.262  -0.869  24.817  0.00  0.00    +0.059 A 
ATOM      8  C   UNL     1      -3.973  -0.541  24.559  0.00  0.00    +0.123 A 
ATOM      9  N   UNL     1      -4.508  -1.002  24.130  0.00  0.00    -0.240 NA
ATOM     10  C   UNL     1      -4.331  -1.789  23.961  0.00  0.00    +0.102 A 
ATOM     11  C   UNL     1      -3.619  -2.117  24.221  0.00  0.00    +0.058 A 
BRANCH   6   5
ATOM      5  O   UNL     1      -2.373  -1.984  24.908  0.00  0.00    -0.473 OA
BRANCH   5   4
ATOM      4  C   UNL     1      -1.658  -1.629  24.702  0.00  0.00    +0.237 C 
BRANCH   4   3
ATOM      3  C   UNL     1      -0.946  -1.947  24.973  0.00  0.00    +0.189 C 
BRANCH   3   2
ATOM      1  C   UNL     1       0.129  -1.166  24.447  0.00  0.00    +0.174 C 
ATOM      2  O   UNL     1      -0.294  -1.457  25.094  0.00  0.00    -0.347 OA
ENDBRANCH   3   2
ENDBRANCH   4   3
ENDBRANCH   5   4
ENDBRANCH   6   5
ENDBRANCH  12   8
BRANCH  15  17
ATOM     17  C   UNL     1      -4.096   2.357  24.405  0.00  0.00    +0.138 C 
ATOM     18  C   UNL     1      -4.600   2.782  23.910  0.00  0.00    +0.027 C 
ATOM     19  C   UNL     1      -4.278   3.534  23.803  0.00  0.00    +0.019 C 
ATOM     20  C   UNL     1      -3.573   3.573  24.232  0.00  0.00    +0.073 C 
ATOM     21  N   UNL     1      -3.461   2.845  24.604  0.00  0.00    -0.262 NA
BRANCH  21  22
ATOM     22  C   UNL     1      -2.826   2.641  25.089  0.00  0.00    +0.106 C 
BRANCH  22  23
ATOM     23  C   UNL     1      -2.192   3.161  25.178  0.00  0.00    +0.023 A 
ATOM     24  C   UNL     1      -2.167   3.816  25.678  0.00  0.00    +0.004 A 
ATOM     25  C   UNL     1      -1.431   4.176  25.590  0.00  0.00    +0.007 A 
ATOM     26  C   UNL     1      -1.000   3.745  25.035  0.00  0.00    +0.035 A 
ATOM     27  S   UNL     1      -1.470   3.117  24.779  0.00  0.00    -0.089 S 
ENDBRANCH  22  23
ENDBRANCH  21  22
ENDBRANCH  15  17
TORSDOF 8
ENDMDL
MODEL 7
REMARK VINA RESULT:      -8.7      2.982      5.574
REMARK  Name = 
REMARK  8 active torsions:
REMARK  status: ('A' for Active; 'I' for Inactive)
REMARK    1  A    between atoms: O_2  and  C_3
REMARK    2  A    between atoms: C_3  and  C_4
REMARK    3  A    between atoms: C_4  and  O_5
REMARK    4  A    between atoms: O_5  and  C_6
REMARK    5  A    between atoms: C_8  and  C_12
REMARK    6  A    between atoms: C_15  and  C_17
REMARK    7  A    between atoms: N_21  and  C_22
REMARK    8  A    between atoms: C_22  and  C_23
REMARK                            x       y       z     vdW  Elec       q    Type
REMARK                         _______ _______ _______ _____ _____    ______ ____
ROOT
ATOM     12  C   UNL     1      -0.563   1.463  25.037  0.00  0.00    +0.221 A 
ATOM     13  N   UNL     1      -0.408   1.607  25.834  0.00  0.00    -0.054 NA
ATOM     14  O   UNL     1      -0.677   2.365  26.013  0.00  0.00    -0.336 OA
ATOM     15  C   UNL     1      -0.998   2.690  25.326  0.00  0.00    +0.251 A 
ATOM     16  N   UNL     1      -0.928   2.133  24.723  0.00  0.00    -0.188 NA
ENDROOT
BRANCH  12   8
ATOM      6  C   UNL     1       0.333   0.095  23.591  0.00  0.00    +0.142 A 
ATOM      7  C   UNL     1       0.155   0.788  24.002  0.00  0.00    +0.059 A 
ATOM      8  C   UNL     1      -0.384   0.770  24.626  0.00  0.00    +0.123 A 
ATOM      9  N   UNL     1      -0.745   0.059  24.839  0.00  0.00    -0.240 NA
ATOM     10  C   UNL     1      -0.567  -0.634  24.427  0.00  0.00    +0.102 A 
ATOM     11  C   UNL     1      -0.027  -0.615  23.803  0.00  0.00    +0.058 A 
BRANCH   6   5
ATOM      5  O   UNL     1       0.873   0.114  22.967  0.00  0.00    -0.473 OA
BRANCH   5   4
ATOM      4  C   UNL     1       1.682   0.054  23.119  0.00  0.00    +0.237 C 
BRANCH   4   3
ATOM      3  C   UNL     1       2.226   0.166  22.510  0.00  0.00    +0.189 C 
BRANCH   3   2
ATOM      1  C   UNL     1       3.587   0.597  22.451  0.00  0.00    +0.174 C 
ATOM      2  O   UNL     1       3.028   0.021  22.641  0.00  0.00    -0.347 OA
ENDBRANCH   3   2
ENDBRANCH   4   3
ENDBRANCH   5   4
ENDBRANCH   6   5
ENDBRANCH  12   8
BRANCH  15  17
ATOM     17  C   UNL     1      -1.332   3.442  25.255  0.00  0.00    +0.138 C 
ATOM     18  C   UNL     1      -0.919   4.147  25.145  0.00  0.00    +0.027 C 
ATOM     19  C   UNL     1      -1.469   4.761  25.104  0.00  0.00    +0.019 C 
ATOM     20  C   UNL     1      -2.222   4.434  25.189  0.00  0.00    +0.073 C 
ATOM     21  N   UNL     1      -2.137   3.620  25.283  0.00  0.00    -0.262 NA
BRANCH  21  22
ATOM     22  C   UNL     1      -2.750   3.077  25.386  0.00  0.00    +0.106 C 
BRANCH  22  23
ATOM     23  C   UNL     1      -3.531   3.308  25.257  0.00  0.00    +0.023 A 
ATOM     24  C   UNL     1      -3.920   3.321  24.530  0.00  0.00    +0.004 A 
ATOM     25  C   UNL     1      -4.689   3.589  24.657  0.00  0.00    +0.007 A 
ATOM     26  C   UNL     1      -4.777   3.742  25.463  0.00  0.00    +0.035 A 
ATOM     27  S   UNL     1      -4.061   3.568  25.834  0.00  0.00    -0.089 S 
ENDBRANCH  22  23
ENDBRANCH  21  22
ENDBRANCH  15  17
TORSDOF 8
ENDMDL
