MODEL 1
REMARK VINA RESULT:      -7.0      0.000      0.000
REMARK  Name = 
REMARK  6 active torsions:
REMARK  status: ('A' for Active; 'I' for Inactive)
REMARK    1  A    between atoms: C_2  and  C_3
REMARK    2  A    between atoms: C_2  and  C_28
REMARK    3  A    between atoms: C_14  and  C_16
REMARK    4  A    between atoms: N_30  and  C_32
REMARK    5  A    between atoms: C_32  and  C_33
REMARK    6  A    between atoms: C_33  and  C_34
REMARK                            x       y       z     vdW  Elec       q    Type
REMARK                         _______ _______ _______ _____ _____    ______ ____
ROOT
ATOM      3  C   UNL     1      -2.557   2.063  24.248  0.00  0.00    +0.039 C 
ATOM      4  C   UNL     1      -2.679   1.402  23.771  0.00  0.00    +0.003 C 
ATOM      5  C   UNL     1      -2.033   0.989  23.467  0.00  0.00    +0.001 C 
ATOM      6  C   UNL     1      -1.265   1.237  23.641  0.00  0.00    +0.007 C 
ATOM      7  C   UNL     1      -1.387   0.575  23.163  0.00  0.00    +0.000 C 
ATOM      8  C   UNL     1      -0.619   0.822  23.337  0.00  0.00    +0.034 C 
ATOM      9  C   UNL     1       0.148   1.070  23.511  0.00  0.00    +0.023 A 
ATOM     10  C   UNL     1       0.270   1.732  23.989  0.00  0.00    +0.063 A 
ATOM     11  N   UNL     1       1.084   1.845  24.065  0.00  0.00    -0.227 NA
ATOM     12  C   UNL     1       1.465   1.253  23.634  0.00  0.00    +0.185 A 
ATOM     13  N   UNL     1       2.280   1.158  23.560  0.00  0.00    -0.149 NA
ATOM     14  C   UNL     1       2.583   0.537  23.108  0.00  0.00    +0.287 C 
ATOM     15  O   UNL     1       2.070   0.012  22.732  0.00  0.00    -0.266 OA
ATOM     22  S   UNL     1       0.886   0.775  23.292  0.00  0.00    -0.054 S 
ATOM     23  C   UNL     1      -0.376   2.145  24.293  0.00  0.00    +0.043 C 
ATOM     24  C   UNL     1      -0.254   2.807  24.770  0.00  0.00    +0.006 C 
ATOM     25  C   UNL     1      -1.144   1.898  24.119  0.00  0.00    +0.036 C 
ATOM     26  C   UNL     1      -1.789   2.311  24.422  0.00  0.00    +0.153 C 
ATOM     27  O   UNL     1      -1.668   2.973  24.900  0.00  0.00    -0.223 OA
ENDROOT
BRANCH  14  16
ATOM     16  C   UNL     1       3.399   0.442  23.034  0.00  0.00    +0.116 A 
ATOM     17  C   UNL     1       3.933   1.018  22.779  0.00  0.00    +0.023 A 
ATOM     18  C   UNL     1       4.689   0.687  22.788  0.00  0.00    +0.020 A 
ATOM     19  C   UNL     1       4.622  -0.093  23.049  0.00  0.00    +0.076 A 
ATOM     20  N   UNL     1       3.825  -0.244  23.200  0.00  0.00    -0.320 N 
ATOM     21  C   UNL     1       3.510  -0.957  23.471  0.00  0.00    +0.131 C 
ENDBRANCH  14  16
BRANCH   3   2
ATOM      1  C   UNL     1      -3.293   3.280  24.385  0.00  0.00    +0.010 C 
ATOM      2  C   UNL     1      -3.203   2.477  24.552  0.00  0.00    +0.079 C 
BRANCH   2  28
ATOM     28  C   UNL     1      -3.758   2.090  25.023  0.00  0.00    +0.225 C 
ATOM     29  O   UNL     1      -3.512   1.510  25.558  0.00  0.00    -0.275 OA
ATOM     30  N   UNL     1      -4.558   2.280  24.960  0.00  0.00    -0.277 N 
ATOM     31  C   UNL     1      -4.804   2.858  24.425  0.00  0.00    +0.115 C 
BRANCH  30  32
ATOM     32  C   UNL     1      -5.113   1.892  25.431  0.00  0.00    +0.110 C 
BRANCH  32  33
ATOM     33  C   UNL     1      -5.872   2.205  25.518  0.00  0.00    +0.127 C 
BRANCH  33  34
ATOM     34  C   UNL     1      -6.346   1.967  26.148  0.00  0.00    +0.075 C 
ATOM     35  N   UNL     1      -6.822   1.727  26.780  0.00  0.00    -0.196 NA
ENDBRANCH  33  34
ENDBRANCH  32  33
ENDBRANCH  30  32
ENDBRANCH   2  28
ENDBRANCH   3   2
TORSDOF 6
ENDMDL
MODEL 2
REMARK VINA RESULT:      -6.9      1.469      6.912
REMARK  Name = 
REMARK  6 active torsions:
REMARK  status: ('A' for Active; 'I' for Inactive)
REMARK    1  A    between atoms: C_2  and  C_3
REMARK    2  A    between atoms: C_2  and  C_28
REMARK    3  A    between atoms: C_14  and  C_16
REMARK    4  A    between atoms: N_30  and  C_32
REMARK    5  A    between atoms: C_32  and  C_33
REMARK    6  A    between atoms: C_33  and  C_34
REMARK                            x       y       z     vdW  Elec       q    Type
REMARK                         _______ _______ _______ _____ _____    ______ ____
ROOT
ATOM      3  C   UNL     1       0.384   0.146  23.375  0.00  0.00    +0.039 C 
ATOM      4  C   UNL     1       0.295  -0.336  24.038  0.00  0.00    +0.003 C 
ATOM      5  C   UNL     1      -0.397  -0.298  24.485  0.00  0.00    +0.001 C 
ATOM      6  C   UNL     1      -1.000   0.223  24.268  0.00  0.00    +0.007 C 
ATOM      7  C   UNL     1      -1.090  -0.260  24.932  0.00  0.00    +0.000 C 
ATOM      8  C   UNL     1      -1.693   0.260  24.716  0.00  0.00    +0.034 C 
ATOM      9  C   UNL     1      -2.295   0.780  24.500  0.00  0.00    +0.023 A 
ATOM     10  C   UNL     1      -2.206   1.263  23.836  0.00  0.00    +0.063 A 
ATOM     11  N   UNL     1      -2.890   1.718  23.758  0.00  0.00    -0.227 NA
ATOM     12  C   UNL     1      -3.402   1.517  24.373  0.00  0.00    +0.185 A 
ATOM     13  N   UNL     1      -4.149   1.839  24.506  0.00  0.00    -0.149 NA
ATOM     14  C   UNL     1      -4.600   1.583  25.148  0.00  0.00    +0.287 C 
ATOM     15  O   UNL     1      -4.304   1.005  25.655  0.00  0.00    -0.266 OA
ATOM     22  S   UNL     1      -3.034   0.938  24.831  0.00  0.00    -0.054 S 
ATOM     23  C   UNL     1      -1.514   1.224  23.389  0.00  0.00    +0.043 C 
ATOM     24  C   UNL     1      -1.425   1.707  22.726  0.00  0.00    +0.006 C 
ATOM     25  C   UNL     1      -0.911   0.704  23.605  0.00  0.00    +0.036 C 
ATOM     26  C   UNL     1      -0.219   0.666  23.158  0.00  0.00    +0.153 C 
ATOM     27  O   UNL     1      -0.129   1.148  22.494  0.00  0.00    -0.223 OA
ENDROOT
BRANCH  14  16
ATOM     16  C   UNL     1      -5.348   1.905  25.281  0.00  0.00    +0.116 A 
ATOM     17  C   UNL     1      -6.066   1.584  25.030  0.00  0.00    +0.023 A 
ATOM     18  C   UNL     1      -6.671   2.085  25.281  0.00  0.00    +0.020 A 
ATOM     19  C   UNL     1      -6.327   2.716  25.687  0.00  0.00    +0.076 A 
ATOM     20  N   UNL     1      -5.509   2.604  25.686  0.00  0.00    -0.320 N 
ATOM     21  C   UNL     1      -4.952   3.105  26.031  0.00  0.00    +0.131 C 
ENDBRANCH  14  16
BRANCH   3   2
ATOM      1  C   UNL     1       1.088  -0.319  22.221  0.00  0.00    +0.010 C 
ATOM      2  C   UNL     1       1.077   0.108  22.927  0.00  0.00    +0.079 C 
BRANCH   2  28
ATOM     28  C   UNL     1       1.756   0.497  23.184  0.00  0.00    +0.225 C 
ATOM     29  O   UNL     1       1.704   1.072  23.775  0.00  0.00    -0.275 OA
ATOM     30  N   UNL     1       2.489   0.313  22.852  0.00  0.00    -0.277 N 
ATOM     31  C   UNL     1       2.541  -0.262  22.262  0.00  0.00    +0.115 C 
BRANCH  30  32
ATOM     32  C   UNL     1       3.169   0.702  23.109  0.00  0.00    +0.110 C 
BRANCH  32  33
ATOM     33  C   UNL     1       3.901   0.517  22.777  0.00  0.00    +0.127 C 
BRANCH  33  34
ATOM     34  C   UNL     1       4.591   0.619  23.217  0.00  0.00    +0.075 C 
ATOM     35  N   UNL     1       5.282   0.722  23.657  0.00  0.00    -0.196 NA
ENDBRANCH  33  34
ENDBRANCH  32  33
ENDBRANCH  30  32
ENDBRANCH   2  28
ENDBRANCH   3   2
TORSDOF 6
ENDMDL
MODEL 3
REMARK VINA RESULT:      -6.3     17.131     19.125
REMARK  Name = 
REMARK  6 active torsions:
REMARK  status: ('A' for Active; 'I' for Inactive)
REMARK    1  A    between atoms: C_2  and  C_3
REMARK    2  A    between atoms: C_2  and  C_28
REMARK    3  A    between atoms: C_14  and  C_16
REMARK    4  A    between atoms: N_30  and  C_32
REMARK    5  A    between atoms: C_32  and  C_33
REMARK    6  A    between atoms: C_33  and  C_34
REMARK                            x       y       z     vdW  Elec       q    Type
REMARK                         _______ _______ _______ _____ _____    ______ ____
ROOT
ATOM      3  C   UNL     1      -3.580  -9.651  10.312  0.00  0.00    +0.039 C 
ATOM      4  C   UNL     1      -3.540  -9.701   9.490  0.00  0.00    +0.003 C 
ATOM      5  C   UNL     1      -4.196  -9.501   9.033  0.00  0.00    +0.001 C 
ATOM      6  C   UNL     1      -4.893  -9.250   9.398  0.00  0.00    +0.007 C 
ATOM      7  C   UNL     1      -4.853  -9.300   8.575  0.00  0.00    +0.000 C 
ATOM      8  C   UNL     1      -5.550  -9.050   8.940  0.00  0.00    +0.034 C 
ATOM      9  C   UNL     1      -6.246  -8.800   9.305  0.00  0.00    +0.023 A 
ATOM     10  C   UNL     1      -6.286  -8.750  10.128  0.00  0.00    +0.063 A 
ATOM     11  N   UNL     1      -7.041  -8.487  10.331  0.00  0.00    -0.227 NA
ATOM     12  C   UNL     1      -7.468  -8.374   9.634  0.00  0.00    +0.185 A 
ATOM     13  N   UNL     1      -8.249  -8.115   9.581  0.00  0.00    -0.149 NA
ATOM     14  C   UNL     1      -8.605  -8.028   8.842  0.00  0.00    +0.287 C 
ATOM     15  O   UNL     1      -8.180  -8.201   8.157  0.00  0.00    -0.266 OA
ATOM     22  S   UNL     1      -6.977  -8.568   9.000  0.00  0.00    -0.054 S 
ATOM     23  C   UNL     1      -5.629  -8.950  10.585  0.00  0.00    +0.043 C 
ATOM     24  C   UNL     1      -5.669  -8.900  11.407  0.00  0.00    +0.006 C 
ATOM     25  C   UNL     1      -4.933  -9.201  10.220  0.00  0.00    +0.036 C 
ATOM     26  C   UNL     1      -4.277  -9.401  10.677  0.00  0.00    +0.153 C 
ATOM     27  O   UNL     1      -4.316  -9.351  11.500  0.00  0.00    -0.223 OA
ENDROOT
BRANCH  14  16
ATOM     16  C   UNL     1      -9.386  -7.767   8.789  0.00  0.00    +0.116 A 
ATOM     17  C   UNL     1     -10.057  -8.202   8.997  0.00  0.00    +0.023 A 
ATOM     18  C   UNL     1     -10.720  -7.731   8.856  0.00  0.00    +0.020 A 
ATOM     19  C   UNL     1     -10.458  -7.006   8.561  0.00  0.00    +0.076 A 
ATOM     20  N   UNL     1      -9.635  -7.029   8.520  0.00  0.00    -0.320 N 
ATOM     21  C   UNL     1      -9.145  -6.419   8.255  0.00  0.00    +0.131 C 
ENDBRANCH  14  16
BRANCH   3   2
ATOM      1  C   UNL     1      -2.947 -10.519  11.255  0.00  0.00    +0.010 C 
ATOM      2  C   UNL     1      -2.923  -9.852  10.770  0.00  0.00    +0.079 C 
BRANCH   2  28
ATOM     28  C   UNL     1      -2.244  -9.386  10.744  0.00  0.00    +0.225 C 
ATOM     29  O   UNL     1      -2.182  -8.777  10.190  0.00  0.00    -0.275 OA
ATOM     30  N   UNL     1      -1.624  -9.528  11.270  0.00  0.00    -0.277 N 
ATOM     31  C   UNL     1      -1.686 -10.137  11.824  0.00  0.00    +0.115 C 
BRANCH  30  32
ATOM     32  C   UNL     1      -0.945  -9.062  11.244  0.00  0.00    +0.110 C 
BRANCH  32  33
ATOM     33  C   UNL     1      -0.543  -8.877  11.941  0.00  0.00    +0.127 C 
BRANCH  33  34
ATOM     34  C   UNL     1       0.081  -8.338  11.927  0.00  0.00    +0.075 C 
ATOM     35  N   UNL     1       0.705  -7.799  11.913  0.00  0.00    -0.196 NA
ENDBRANCH  33  34
ENDBRANCH  32  33
ENDBRANCH  30  32
ENDBRANCH   2  28
ENDBRANCH   3   2
TORSDOF 6
ENDMDL
MODEL 4
REMARK VINA RESULT:      -6.0     17.068     18.124
REMARK  Name = 
REMARK  6 active torsions:
REMARK  status: ('A' for Active; 'I' for Inactive)
REMARK    1  A    between atoms: C_2  and  C_3
REMARK    2  A    between atoms: C_2  and  C_28
REMARK    3  A    between atoms: C_14  and  C_16
REMARK    4  A    between atoms: N_30  and  C_32
REMARK    5  A    between atoms: C_32  and  C_33
REMARK    6  A    between atoms: C_33  and  C_34
REMARK                            x       y       z     vdW  Elec       q    Type
REMARK                         _______ _______ _______ _____ _____    ______ ____
ROOT
ATOM      3  C   UNL     1      -7.580  -8.731   9.391  0.00  0.00    +0.039 C 
ATOM      4  C   UNL     1      -7.967  -8.844  10.109  0.00  0.00    +0.003 C 
ATOM      5  C   UNL     1      -7.542  -9.080  10.775  0.00  0.00    +0.001 C 
ATOM      6  C   UNL     1      -6.727  -9.203  10.722  0.00  0.00    +0.007 C 
ATOM      7  C   UNL     1      -7.116  -9.317  11.441  0.00  0.00    +0.000 C 
ATOM      8  C   UNL     1      -6.302  -9.440  11.388  0.00  0.00    +0.034 C 
ATOM      9  C   UNL     1      -5.488  -9.563  11.335  0.00  0.00    +0.023 A 
ATOM     10  C   UNL     1      -5.099  -9.450  10.615  0.00  0.00    +0.063 A 
ATOM     11  N   UNL     1      -4.298  -9.612  10.730  0.00  0.00    -0.227 NA
ATOM     12  C   UNL     1      -4.192  -9.826  11.520  0.00  0.00    +0.185 A 
ATOM     13  N   UNL     1      -3.476 -10.033  11.874  0.00  0.00    -0.149 NA
ATOM     14  C   UNL     1      -3.455 -10.235  12.673  0.00  0.00    +0.287 C 
ATOM     15  O   UNL     1      -4.148 -10.230  13.118  0.00  0.00    -0.266 OA
ATOM     22  S   UNL     1      -4.927  -9.796  11.893  0.00  0.00    -0.054 S 
ATOM     23  C   UNL     1      -5.525  -9.213   9.950  0.00  0.00    +0.043 C 
ATOM     24  C   UNL     1      -5.137  -9.100   9.231  0.00  0.00    +0.006 C 
ATOM     25  C   UNL     1      -6.339  -9.090  10.003  0.00  0.00    +0.036 C 
ATOM     26  C   UNL     1      -6.765  -8.854   9.338  0.00  0.00    +0.153 C 
ATOM     27  O   UNL     1      -6.377  -8.740   8.618  0.00  0.00    -0.223 OA
ENDROOT
BRANCH  14  16
ATOM     16  C   UNL     1      -2.738 -10.443  13.026  0.00  0.00    +0.116 A 
ATOM     17  C   UNL     1      -2.023 -10.565  12.634  0.00  0.00    +0.023 A 
ATOM     18  C   UNL     1      -1.453 -10.763  13.198  0.00  0.00    +0.020 A 
ATOM     19  C   UNL     1      -1.818 -10.762  13.938  0.00  0.00    +0.076 A 
ATOM     20  N   UNL     1      -2.612 -10.564  13.832  0.00  0.00    -0.320 N 
ATOM     21  C   UNL     1      -3.179 -10.500  14.427  0.00  0.00    +0.131 C 
ENDBRANCH  14  16
BRANCH   3   2
ATOM      1  C   UNL     1      -8.172  -9.039   8.127  0.00  0.00    +0.010 C 
ATOM      2  C   UNL     1      -8.005  -8.494   8.724  0.00  0.00    +0.079 C 
BRANCH   2  28
ATOM     28  C   UNL     1      -8.263  -7.715   8.655  0.00  0.00    +0.225 C 
ATOM     29  O   UNL     1      -7.735  -7.092   8.781  0.00  0.00    -0.275 OA
ATOM     30  N   UNL     1      -9.049  -7.555   8.459  0.00  0.00    -0.277 N 
ATOM     31  C   UNL     1      -9.576  -8.177   8.333  0.00  0.00    +0.115 C 
BRANCH  30  32
ATOM     32  C   UNL     1      -9.307  -6.776   8.389  0.00  0.00    +0.110 C 
BRANCH  32  33
ATOM     33  C   UNL     1     -10.115  -6.608   8.375  0.00  0.00    +0.127 C 
BRANCH  33  34
ATOM     34  C   UNL     1     -10.378  -5.836   8.496  0.00  0.00    +0.075 C 
ATOM     35  N   UNL     1     -10.643  -5.063   8.617  0.00  0.00    -0.196 NA
ENDBRANCH  33  34
ENDBRANCH  32  33
ENDBRANCH  30  32
ENDBRANCH   2  28
ENDBRANCH   3   2
TORSDOF 6
ENDMDL
MODEL 5
REMARK VINA RESULT:      -5.9     16.362     17.504
REMARK  Name = 
REMARK  6 active torsions:
REMARK  status: ('A' for Active; 'I' for Inactive)
REMARK    1  A    between atoms: C_2  and  C_3
REMARK    2  A    between atoms: C_2  and  C_28
REMARK    3  A    between atoms: C_14  and  C_16
REMARK    4  A    between atoms: N_30  and  C_32
REMARK    5  A    between atoms: C_32  and  C_33
REMARK    6  A    between atoms: C_33  and  C_34
REMARK                            x       y       z     vdW  Elec       q    Type
REMARK                         _______ _______ _______ _____ _____    ______ ____
ROOT
ATOM      3  C   UNL     1      -6.723 -10.066  10.877  0.00  0.00    +0.039 C 
ATOM      4  C   UNL     1      -7.139  -9.911  11.572  0.00  0.00    +0.003 C 
ATOM      5  C   UNL     1      -6.748  -9.917  12.297  0.00  0.00    +0.001 C 
ATOM      6  C   UNL     1      -5.939 -10.079  12.328  0.00  0.00    +0.007 C 
ATOM      7  C   UNL     1      -6.356  -9.923  13.024  0.00  0.00    +0.000 C 
ATOM      8  C   UNL     1      -5.547 -10.085  13.055  0.00  0.00    +0.034 C 
ATOM      9  C   UNL     1      -4.739 -10.246  13.086  0.00  0.00    +0.023 A 
ATOM     10  C   UNL     1      -4.322 -10.402  12.391  0.00  0.00    +0.063 A 
ATOM     11  N   UNL     1      -3.534 -10.542  12.592  0.00  0.00    -0.227 NA
ATOM     12  C   UNL     1      -3.464 -10.473  13.412  0.00  0.00    +0.185 A 
ATOM     13  N   UNL     1      -2.771 -10.569  13.848  0.00  0.00    -0.149 NA
ATOM     14  C   UNL     1      -2.786 -10.483  14.669  0.00  0.00    +0.287 C 
ATOM     15  O   UNL     1      -3.493 -10.300  15.052  0.00  0.00    -0.266 OA
ATOM     22  S   UNL     1      -4.209 -10.290  13.717  0.00  0.00    -0.054 S 
ATOM     23  C   UNL     1      -4.714 -10.396  11.665  0.00  0.00    +0.043 C 
ATOM     24  C   UNL     1      -4.297 -10.551  10.971  0.00  0.00    +0.006 C 
ATOM     25  C   UNL     1      -5.522 -10.234  11.634  0.00  0.00    +0.036 C 
ATOM     26  C   UNL     1      -5.914 -10.228  10.909  0.00  0.00    +0.153 C 
ATOM     27  O   UNL     1      -5.498 -10.383  10.213  0.00  0.00    -0.223 OA
ENDROOT
BRANCH  14  16
ATOM     16  C   UNL     1      -2.092 -10.580  15.105  0.00  0.00    +0.116 A 
ATOM     17  C   UNL     1      -1.329 -10.635  14.796  0.00  0.00    +0.023 A 
ATOM     18  C   UNL     1      -0.804 -10.728  15.427  0.00  0.00    +0.020 A 
ATOM     19  C   UNL     1      -1.244 -10.730  16.125  0.00  0.00    +0.076 A 
ATOM     20  N   UNL     1      -2.040 -10.639  15.926  0.00  0.00    -0.320 N 
ATOM     21  C   UNL     1      -2.672 -10.611  16.456  0.00  0.00    +0.131 C 
ENDBRANCH  14  16
BRANCH   3   2
ATOM      1  C   UNL     1      -7.146 -10.747   9.694  0.00  0.00    +0.010 C 
ATOM      2  C   UNL     1      -7.114 -10.061  10.151  0.00  0.00    +0.079 C 
BRANCH   2  28
ATOM     28  C   UNL     1      -7.474  -9.369   9.881  0.00  0.00    +0.225 C 
ATOM     29  O   UNL     1      -7.116  -8.638  10.018  0.00  0.00    -0.275 OA
ATOM     30  N   UNL     1      -8.191  -9.408   9.474  0.00  0.00    -0.277 N 
ATOM     31  C   UNL     1      -8.548 -10.139   9.338  0.00  0.00    +0.115 C 
BRANCH  30  32
ATOM     32  C   UNL     1      -8.550  -8.717   9.204  0.00  0.00    +0.110 C 
BRANCH  32  33
ATOM     33  C   UNL     1      -9.333  -8.733   8.943  0.00  0.00    +0.127 C 
BRANCH  33  34
ATOM     34  C   UNL     1      -9.740  -8.027   8.816  0.00  0.00    +0.075 C 
ATOM     35  N   UNL     1     -10.148  -7.321   8.689  0.00  0.00    -0.196 NA
ENDBRANCH  33  34
ENDBRANCH  32  33
ENDBRANCH  30  32
ENDBRANCH   2  28
ENDBRANCH   3   2
TORSDOF 6
ENDMDL
MODEL 6
REMARK VINA RESULT:      -5.8     16.497     17.698
REMARK  Name = 
REMARK  6 active torsions:
REMARK  status: ('A' for Active; 'I' for Inactive)
REMARK    1  A    between atoms: C_2  and  C_3
REMARK    2  A    between atoms: C_2  and  C_28
REMARK    3  A    between atoms: C_14  and  C_16
REMARK    4  A    between atoms: N_30  and  C_32
REMARK    5  A    between atoms: C_32  and  C_33
REMARK    6  A    between atoms: C_33  and  C_34
REMARK                            x       y       z     vdW  Elec       q    Type
REMARK                         _______ _______ _______ _____ _____    ______ ____
ROOT
ATOM      3  C   UNL     1      -7.860  -9.008  10.141  0.00  0.00    +0.039 C 
ATOM      4  C   UNL     1      -8.469  -9.391  10.544  0.00  0.00    +0.003 C 
ATOM      5  C   UNL     1      -8.340  -9.684  11.304  0.00  0.00    +0.001 C 
ATOM      6  C   UNL     1      -7.600  -9.594  11.661  0.00  0.00    +0.007 C 
ATOM      7  C   UNL     1      -8.210  -9.977  12.065  0.00  0.00    +0.000 C 
ATOM      8  C   UNL     1      -7.472  -9.887  12.421  0.00  0.00    +0.034 C 
ATOM      9  C   UNL     1      -6.733  -9.798  12.778  0.00  0.00    +0.023 A 
ATOM     10  C   UNL     1      -6.123  -9.415  12.374  0.00  0.00    +0.063 A 
ATOM     11  N   UNL     1      -5.459  -9.409  12.863  0.00  0.00    -0.227 NA
ATOM     12  C   UNL     1      -5.657  -9.788  13.569  0.00  0.00    +0.185 A 
ATOM     13  N   UNL     1      -5.157  -9.905  14.213  0.00  0.00    -0.149 NA
ATOM     14  C   UNL     1      -5.434 -10.295  14.885  0.00  0.00    +0.287 C 
ATOM     15  O   UNL     1      -6.211 -10.568  14.912  0.00  0.00    -0.266 OA
ATOM     22  S   UNL     1      -6.445 -10.028  13.516  0.00  0.00    -0.054 S 
ATOM     23  C   UNL     1      -6.253  -9.122  11.614  0.00  0.00    +0.043 C 
ATOM     24  C   UNL     1      -5.644  -8.739  11.211  0.00  0.00    +0.006 C 
ATOM     25  C   UNL     1      -6.992  -9.212  11.257  0.00  0.00    +0.036 C 
ATOM     26  C   UNL     1      -7.121  -8.919  10.498  0.00  0.00    +0.153 C 
ATOM     27  O   UNL     1      -6.512  -8.536  10.093  0.00  0.00    -0.223 OA
ENDROOT
BRANCH  14  16
ATOM     16  C   UNL     1      -4.932 -10.412  15.529  0.00  0.00    +0.116 A 
ATOM     17  C   UNL     1      -4.186 -10.765  15.505  0.00  0.00    +0.023 A 
ATOM     18  C   UNL     1      -3.880 -10.769  16.271  0.00  0.00    +0.020 A 
ATOM     19  C   UNL     1      -4.437 -10.419  16.769  0.00  0.00    +0.076 A 
ATOM     20  N   UNL     1      -5.087 -10.199  16.310  0.00  0.00    -0.320 N 
ATOM     21  C   UNL     1      -5.772  -9.829  16.585  0.00  0.00    +0.131 C 
ENDBRANCH  14  16
BRANCH   3   2
ATOM      1  C   UNL     1      -7.547  -9.005   8.747  0.00  0.00    +0.010 C 
ATOM      2  C   UNL     1      -7.989  -8.715   9.380  0.00  0.00    +0.079 C 
BRANCH   2  28
ATOM     28  C   UNL     1      -8.558  -8.132   9.253  0.00  0.00    +0.225 C 
ATOM     29  O   UNL     1      -9.268  -8.149   9.676  0.00  0.00    -0.275 OA
ATOM     30  N   UNL     1      -8.421  -7.532   8.704  0.00  0.00    -0.277 N 
ATOM     31  C   UNL     1      -7.712  -7.516   8.281  0.00  0.00    +0.115 C 
BRANCH  30  32
ATOM     32  C   UNL     1      -8.990  -6.950   8.577  0.00  0.00    +0.110 C 
BRANCH  32  33
ATOM     33  C   UNL     1      -8.773  -6.225   8.248  0.00  0.00    +0.127 C 
BRANCH  33  34
ATOM     34  C   UNL     1      -9.245  -5.559   8.368  0.00  0.00    +0.075 C 
ATOM     35  N   UNL     1      -9.718  -4.893   8.488  0.00  0.00    -0.196 NA
ENDBRANCH  33  34
ENDBRANCH  32  33
ENDBRANCH  30  32
ENDBRANCH   2  28
ENDBRANCH   3   2
TORSDOF 6
ENDMDL
MODEL 7
REMARK VINA RESULT:      -5.5     14.518     16.650
REMARK  Name = 
REMARK  6 active torsions:
REMARK  status: ('A' for Active; 'I' for Inactive)
REMARK    1  A    between atoms: C_2  and  C_3
REMARK    2  A    between atoms: C_2  and  C_28
REMARK    3  A    between atoms: C_14  and  C_16
REMARK    4  A    between atoms: N_30  and  C_32
REMARK    5  A    between atoms: C_32  and  C_33
REMARK    6  A    between atoms: C_33  and  C_34
REMARK                            x       y       z     vdW  Elec       q    Type
REMARK                         _______ _______ _______ _____ _____    ______ ____
ROOT
ATOM      3  C   UNL     1      -4.309 -10.544  14.687  0.00  0.00    +0.039 C 
ATOM      4  C   UNL     1      -4.851 -10.715  14.090  0.00  0.00    +0.003 C 
ATOM      5  C   UNL     1      -5.660 -10.659  14.239  0.00  0.00    +0.001 C 
ATOM      6  C   UNL     1      -5.927 -10.431  14.987  0.00  0.00    +0.007 C 
ATOM      7  C   UNL     1      -6.470 -10.603  14.389  0.00  0.00    +0.000 C 
ATOM      8  C   UNL     1      -6.737 -10.375  15.136  0.00  0.00    +0.034 C 
ATOM      9  C   UNL     1      -7.004 -10.148  15.882  0.00  0.00    +0.023 A 
ATOM     10  C   UNL     1      -6.461  -9.977  16.481  0.00  0.00    +0.063 A 
ATOM     11  N   UNL     1      -6.885  -9.768  17.157  0.00  0.00    -0.227 NA
ATOM     12  C   UNL     1      -7.689  -9.810  16.977  0.00  0.00    +0.185 A 
ATOM     13  N   UNL     1      -8.310  -9.647  17.494  0.00  0.00    -0.149 NA
ATOM     14  C   UNL     1      -9.090  -9.713  17.236  0.00  0.00    +0.287 C 
ATOM     15  O   UNL     1      -9.249  -9.943  16.460  0.00  0.00    -0.266 OA
ATOM     22  S   UNL     1      -7.762 -10.045  16.190  0.00  0.00    -0.054 S 
ATOM     23  C   UNL     1      -5.652 -10.033  16.331  0.00  0.00    +0.043 C 
ATOM     24  C   UNL     1      -5.110  -9.862  16.929  0.00  0.00    +0.006 C 
ATOM     25  C   UNL     1      -5.385 -10.260  15.584  0.00  0.00    +0.036 C 
ATOM     26  C   UNL     1      -4.576 -10.316  15.435  0.00  0.00    +0.153 C 
ATOM     27  O   UNL     1      -4.033 -10.145  16.032  0.00  0.00    -0.223 OA
ENDROOT
BRANCH  14  16
ATOM     16  C   UNL     1      -9.712  -9.549  17.754  0.00  0.00    +0.116 A 
ATOM     17  C   UNL     1      -9.991 -10.049  18.348  0.00  0.00    +0.023 A 
ATOM     18  C   UNL     1     -10.615  -9.667  18.731  0.00  0.00    +0.020 A 
ATOM     19  C   UNL     1     -10.719  -8.931  18.372  0.00  0.00    +0.076 A 
ATOM     20  N   UNL     1     -10.162  -8.859  17.769  0.00  0.00    -0.320 N 
ATOM     21  C   UNL     1     -10.070  -8.209  17.268  0.00  0.00    +0.131 C 
ENDBRANCH  14  16
BRANCH   3   2
ATOM      1  C   UNL     1      -2.978 -10.774  15.155  0.00  0.00    +0.010 C 
ATOM      2  C   UNL     1      -3.499 -10.600  14.539  0.00  0.00    +0.079 C 
BRANCH   2  28
ATOM     28  C   UNL     1      -3.210 -10.483  13.776  0.00  0.00    +0.225 C 
ATOM     29  O   UNL     1      -3.735 -10.399  13.144  0.00  0.00    -0.275 OA
ATOM     30  N   UNL     1      -2.396 -10.449  13.642  0.00  0.00    -0.277 N 
ATOM     31  C   UNL     1      -1.872 -10.532  14.273  0.00  0.00    +0.115 C 
BRANCH  30  32
ATOM     32  C   UNL     1      -2.107 -10.331  12.879  0.00  0.00    +0.110 C 
BRANCH  32  33
ATOM     33  C   UNL     1      -1.483  -9.808  12.750  0.00  0.00    +0.127 C 
BRANCH  33  34
ATOM     34  C   UNL     1      -1.233  -9.645  11.981  0.00  0.00    +0.075 C 
ATOM     35  N   UNL     1      -0.983  -9.481  11.211  0.00  0.00    -0.196 NA
ENDBRANCH  33  34
ENDBRANCH  32  33
ENDBRANCH  30  32
ENDBRANCH   2  28
ENDBRANCH   3   2
TORSDOF 6
ENDMDL
MODEL 8
REMARK VINA RESULT:      -5.5     15.100     15.663
REMARK  Name = 
REMARK  6 active torsions:
REMARK  status: ('A' for Active; 'I' for Inactive)
REMARK    1  A    between atoms: C_2  and  C_3
REMARK    2  A    between atoms: C_2  and  C_28
REMARK    3  A    between atoms: C_14  and  C_16
REMARK    4  A    between atoms: N_30  and  C_32
REMARK    5  A    between atoms: C_32  and  C_33
REMARK    6  A    between atoms: C_33  and  C_34
REMARK                            x       y       z     vdW  Elec       q    Type
REMARK                         _______ _______ _______ _____ _____    ______ ____
ROOT
ATOM      3  C   UNL     1      -7.770 -10.102  16.563  0.00  0.00    +0.039 C 
ATOM      4  C   UNL     1      -7.188 -10.357  17.088  0.00  0.00    +0.003 C 
ATOM      5  C   UNL     1      -6.423 -10.501  16.818  0.00  0.00    +0.001 C 
ATOM      6  C   UNL     1      -6.239 -10.388  16.021  0.00  0.00    +0.007 C 
ATOM      7  C   UNL     1      -5.656 -10.645  16.547  0.00  0.00    +0.000 C 
ATOM      8  C   UNL     1      -5.472 -10.532  15.751  0.00  0.00    +0.034 C 
ATOM      9  C   UNL     1      -5.288 -10.420  14.954  0.00  0.00    +0.023 A 
ATOM     10  C   UNL     1      -5.871 -10.163  14.428  0.00  0.00    +0.063 A 
ATOM     11  N   UNL     1      -5.529 -10.101  13.680  0.00  0.00    -0.227 NA
ATOM     12  C   UNL     1      -4.735 -10.319  13.743  0.00  0.00    +0.185 A 
ATOM     13  N   UNL     1      -4.187 -10.337  13.128  0.00  0.00    -0.149 NA
ATOM     14  C   UNL     1      -3.409 -10.568  13.275  0.00  0.00    +0.287 C 
ATOM     15  O   UNL     1      -3.179 -10.780  14.038  0.00  0.00    -0.266 OA
ATOM     22  S   UNL     1      -4.587 -10.516  14.531  0.00  0.00    -0.054 S 
ATOM     23  C   UNL     1      -6.636 -10.020  14.699  0.00  0.00    +0.043 C 
ATOM     24  C   UNL     1      -7.218  -9.764  14.173  0.00  0.00    +0.006 C 
ATOM     25  C   UNL     1      -6.820 -10.132  15.496  0.00  0.00    +0.036 C 
ATOM     26  C   UNL     1      -7.586  -9.989  15.766  0.00  0.00    +0.153 C 
ATOM     27  O   UNL     1      -8.169  -9.733  15.241  0.00  0.00    -0.223 OA
ENDROOT
BRANCH  14  16
ATOM     16  C   UNL     1      -2.860 -10.586  12.658  0.00  0.00    +0.116 A 
ATOM     17  C   UNL     1      -3.021 -10.780  11.873  0.00  0.00    +0.023 A 
ATOM     18  C   UNL     1      -2.317 -10.727  11.447  0.00  0.00    +0.020 A 
ATOM     19  C   UNL     1      -1.721 -10.499  11.970  0.00  0.00    +0.076 A 
ATOM     20  N   UNL     1      -2.057 -10.412  12.718  0.00  0.00    -0.320 N 
ATOM     21  C   UNL     1      -1.659 -10.190  13.406  0.00  0.00    +0.131 C 
ENDBRANCH  14  16
BRANCH   3   2
ATOM      1  C   UNL     1      -9.153  -9.866  16.293  0.00  0.00    +0.010 C 
ATOM      2  C   UNL     1      -8.537  -9.958  16.833  0.00  0.00    +0.079 C 
BRANCH   2  28
ATOM     28  C   UNL     1      -8.686  -9.906  17.642  0.00  0.00    +0.225 C 
ATOM     29  O   UNL     1      -8.197  -9.447  18.124  0.00  0.00    -0.275 OA
ATOM     30  N   UNL     1      -9.325 -10.312  17.971  0.00  0.00    -0.277 N 
ATOM     31  C   UNL     1      -9.814 -10.770  17.490  0.00  0.00    +0.115 C 
BRANCH  30  32
ATOM     32  C   UNL     1      -9.475 -10.260  18.780  0.00  0.00    +0.110 C 
BRANCH  32  33
ATOM     33  C   UNL     1     -10.234 -10.402  19.070  0.00  0.00    +0.127 C 
BRANCH  33  34
ATOM     34  C   UNL     1     -10.401 -10.282  19.868  0.00  0.00    +0.075 C 
ATOM     35  N   UNL     1     -10.567 -10.162  20.668  0.00  0.00    -0.196 NA
ENDBRANCH  33  34
ENDBRANCH  32  33
ENDBRANCH  30  32
ENDBRANCH   2  28
ENDBRANCH   3   2
TORSDOF 6
ENDMDL
MODEL 9
REMARK VINA RESULT:      -5.4     15.557     17.031
REMARK  Name = 
REMARK  6 active torsions:
REMARK  status: ('A' for Active; 'I' for Inactive)
REMARK    1  A    between atoms: C_2  and  C_3
REMARK    2  A    between atoms: C_2  and  C_28
REMARK    3  A    between atoms: C_14  and  C_16
REMARK    4  A    between atoms: N_30  and  C_32
REMARK    5  A    between atoms: C_32  and  C_33
REMARK    6  A    between atoms: C_33  and  C_34
REMARK                            x       y       z     vdW  Elec       q    Type
REMARK                         _______ _______ _______ _____ _____    ______ ____
ROOT
ATOM      3  C   UNL     1      -7.118  -9.959  12.441  0.00  0.00    +0.039 C 
ATOM      4  C   UNL     1      -7.843  -9.673  12.711  0.00  0.00    +0.003 C 
ATOM      5  C   UNL     1      -7.998  -9.641  13.520  0.00  0.00    +0.001 C 
ATOM      6  C   UNL     1      -7.427  -9.896  14.060  0.00  0.00    +0.007 C 
ATOM      7  C   UNL     1      -8.152  -9.609  14.331  0.00  0.00    +0.000 C 
ATOM      8  C   UNL     1      -7.582  -9.863  14.870  0.00  0.00    +0.034 C 
ATOM      9  C   UNL     1      -7.012 -10.118  15.410  0.00  0.00    +0.023 A 
ATOM     10  C   UNL     1      -6.287 -10.405  15.139  0.00  0.00    +0.063 A 
ATOM     11  N   UNL     1      -5.835 -10.615  15.797  0.00  0.00    -0.227 NA
ATOM     12  C   UNL     1      -6.281 -10.459  16.474  0.00  0.00    +0.185 A 
ATOM     13  N   UNL     1      -6.041 -10.587  17.252  0.00  0.00    -0.149 NA
ATOM     14  C   UNL     1      -6.549 -10.403  17.875  0.00  0.00    +0.287 C 
ATOM     15  O   UNL     1      -7.296 -10.091  17.720  0.00  0.00    -0.266 OA
ATOM     22  S   UNL     1      -7.008 -10.152  16.234  0.00  0.00    -0.054 S 
ATOM     23  C   UNL     1      -6.133 -10.436  14.329  0.00  0.00    +0.043 C 
ATOM     24  C   UNL     1      -5.408 -10.723  14.060  0.00  0.00    +0.006 C 
ATOM     25  C   UNL     1      -6.703 -10.182  13.790  0.00  0.00    +0.036 C 
ATOM     26  C   UNL     1      -6.548 -10.214  12.981  0.00  0.00    +0.153 C 
ATOM     27  O   UNL     1      -5.823 -10.500  12.710  0.00  0.00    -0.223 OA
ENDROOT
BRANCH  14  16
ATOM     16  C   UNL     1      -6.309 -10.532  18.654  0.00  0.00    +0.116 A 
ATOM     17  C   UNL     1      -5.529 -10.548  18.924  0.00  0.00    +0.023 A 
ATOM     18  C   UNL     1      -5.543 -10.694  19.736  0.00  0.00    +0.020 A 
ATOM     19  C   UNL     1      -6.332 -10.767  19.967  0.00  0.00    +0.076 A 
ATOM     20  N   UNL     1      -6.804 -10.667  19.299  0.00  0.00    -0.320 N 
ATOM     21  C   UNL     1      -7.629 -10.697  19.279  0.00  0.00    +0.131 C 
ENDBRANCH  14  16
BRANCH   3   2
ATOM      1  C   UNL     1      -6.796 -10.715  11.272  0.00  0.00    +0.010 C 
ATOM      2  C   UNL     1      -6.963  -9.991  11.631  0.00  0.00    +0.079 C 
BRANCH   2  28
ATOM     28  C   UNL     1      -6.974  -9.301  11.181  0.00  0.00    +0.225 C 
ATOM     29  O   UNL     1      -6.884  -8.567  11.548  0.00  0.00    -0.275 OA
ATOM     30  N   UNL     1      -7.076  -9.343  10.363  0.00  0.00    -0.277 N 
ATOM     31  C   UNL     1      -7.166 -10.076   9.996  0.00  0.00    +0.115 C 
BRANCH  30  32
ATOM     32  C   UNL     1      -7.087  -8.652   9.913  0.00  0.00    +0.110 C 
BRANCH  32  33
ATOM     33  C   UNL     1      -7.268  -8.686   9.108  0.00  0.00    +0.127 C 
BRANCH  33  34
ATOM     34  C   UNL     1      -7.348  -7.991   8.673  0.00  0.00    +0.075 C 
ATOM     35  N   UNL     1      -7.427  -7.294   8.237  0.00  0.00    -0.196 NA
ENDBRANCH  33  34
ENDBRANCH  32  33
ENDBRANCH  30  32
ENDBRANCH   2  28
ENDBRANCH   3   2
TORSDOF 6
ENDMDL
MODEL 10
REMARK VINA RESULT:      -5.3     15.089     16.844
REMARK  Name = 
REMARK  6 active torsions:
REMARK  status: ('A' for Active; 'I' for Inactive)
REMARK    1  A    between atoms: C_2  and  C_3
REMARK    2  A    between atoms: C_2  and  C_28
REMARK    3  A    between atoms: C_14  and  C_16
REMARK    4  A    between atoms: N_30  and  C_32
REMARK    5  A    between atoms: C_32  and  C_33
REMARK    6  A    between atoms: C_33  and  C_34
REMARK                            x       y       z     vdW  Elec       q    Type
REMARK                         _______ _______ _______ _____ _____    ______ ____
ROOT
ATOM      3  C   UNL     1      -4.260 -10.381  12.837  0.00  0.00    +0.039 C 
ATOM      4  C   UNL     1      -5.062 -10.231  12.723  0.00  0.00    +0.003 C 
ATOM      5  C   UNL     1      -5.574 -10.209  13.369  0.00  0.00    +0.001 C 
ATOM      6  C   UNL     1      -5.282 -10.338  14.131  0.00  0.00    +0.007 C 
ATOM      7  C   UNL     1      -6.086 -10.188  14.016  0.00  0.00    +0.000 C 
ATOM      8  C   UNL     1      -5.795 -10.317  14.778  0.00  0.00    +0.034 C 
ATOM      9  C   UNL     1      -5.504 -10.446  15.539  0.00  0.00    +0.023 A 
ATOM     10  C   UNL     1      -4.700 -10.597  15.653  0.00  0.00    +0.063 A 
ATOM     11  N   UNL     1      -4.574 -10.702  16.462  0.00  0.00    -0.227 NA
ATOM     12  C   UNL     1      -5.299 -10.617  16.847  0.00  0.00    +0.185 A 
ATOM     13  N   UNL     1      -5.426 -10.679  17.659  0.00  0.00    -0.149 NA
ATOM     14  C   UNL     1      -6.185 -10.580  17.966  0.00  0.00    +0.287 C 
ATOM     15  O   UNL     1      -6.816 -10.419  17.461  0.00  0.00    -0.266 OA
ATOM     22  S   UNL     1      -5.873 -10.459  16.276  0.00  0.00    -0.054 S 
ATOM     23  C   UNL     1      -4.189 -10.618  15.006  0.00  0.00    +0.043 C 
ATOM     24  C   UNL     1      -3.386 -10.768  15.122  0.00  0.00    +0.006 C 
ATOM     25  C   UNL     1      -4.480 -10.489  14.245  0.00  0.00    +0.036 C 
ATOM     26  C   UNL     1      -3.968 -10.510  13.599  0.00  0.00    +0.153 C 
ATOM     27  O   UNL     1      -3.165 -10.660  13.713  0.00  0.00    -0.223 OA
ENDROOT
BRANCH  14  16
ATOM     16  C   UNL     1      -6.312 -10.642  18.779  0.00  0.00    +0.116 A 
ATOM     17  C   UNL     1      -5.729 -10.623  19.363  0.00  0.00    +0.023 A 
ATOM     18  C   UNL     1      -6.100 -10.704  20.096  0.00  0.00    +0.020 A 
ATOM     19  C   UNL     1      -6.911 -10.772  19.964  0.00  0.00    +0.076 A 
ATOM     20  N   UNL     1      -7.042 -10.734  19.151  0.00  0.00    -0.320 N 
ATOM     21  C   UNL     1      -7.775 -10.780  18.775  0.00  0.00    +0.131 C 
ENDBRANCH  14  16
BRANCH   3   2
ATOM      1  C   UNL     1      -2.931 -10.415  12.313  0.00  0.00    +0.010 C 
ATOM      2  C   UNL     1      -3.747 -10.402  12.191  0.00  0.00    +0.079 C 
BRANCH   2  28
ATOM     28  C   UNL     1      -4.049 -10.411  11.424  0.00  0.00    +0.225 C 
ATOM     29  O   UNL     1      -4.772 -10.781  11.270  0.00  0.00    -0.275 OA
ATOM     30  N   UNL     1      -3.631 -10.052  10.811  0.00  0.00    -0.277 N 
ATOM     31  C   UNL     1      -2.909  -9.683  10.965  0.00  0.00    +0.115 C 
BRANCH  30  32
ATOM     32  C   UNL     1      -3.933 -10.061  10.044  0.00  0.00    +0.110 C 
BRANCH  32  33
ATOM     33  C   UNL     1      -4.217  -9.365   9.703  0.00  0.00    +0.127 C 
BRANCH  33  34
ATOM     34  C   UNL     1      -4.591  -9.387   8.969  0.00  0.00    +0.075 C 
ATOM     35  N   UNL     1      -4.967  -9.409   8.234  0.00  0.00    -0.196 NA
ENDBRANCH  33  34
ENDBRANCH  32  33
ENDBRANCH  30  32
ENDBRANCH   2  28
ENDBRANCH   3   2
TORSDOF 6
ENDMDL
