MODEL 1
REMARK VINA RESULT:     -11.5      0.000      0.000
REMARK  Name = 
REMARK  7 active torsions:
REMARK  status: ('A' for Active; 'I' for Inactive)
REMARK    1  A    between atoms: C_5  and  N_8
REMARK    2  A    between atoms: N_11  and  C_12
REMARK    3  A    between atoms: C_12  and  C_13
REMARK    4  A    between atoms: C_20  and  C_21
REMARK    5  A    between atoms: C_21  and  N_22
REMARK    6  A    between atoms: C_23  and  C_25
REMARK    7  A    between atoms: C_28  and  C_31
REMARK                            x       y       z     vdW  Elec       q    Type
REMARK                         _______ _______ _______ _____ _____    ______ ____
ROOT
ATOM     13  C   UNL     1      -0.949  -0.102  24.384  0.00  0.00    +0.032 C 
ATOM     14  C   UNL     1      -0.820   0.541  23.966  0.00  0.00    +0.073 C 
ATOM     15  N   UNL     1      -0.350  -0.137  23.974  0.00  0.00    -0.272 NA
ATOM     16  C   UNL     1      -0.797  -0.816  24.636  0.00  0.00    +0.072 C 
ATOM     17  C   UNL     1      -0.805  -1.397  24.935  0.00  0.00    +0.017 C 
ATOM     18  C   UNL     1      -0.484  -0.765  24.386  0.00  0.00    +0.005 C 
ATOM     19  C   UNL     1       0.256  -0.965  23.958  0.00  0.00    +0.018 C 
ATOM     20  C   UNL     1       0.419  -0.352  23.533  0.00  0.00    +0.079 C 
ENDROOT
BRANCH  13  12
ATOM     12  C   UNL     1      -1.619  -0.111  24.867  0.00  0.00    +0.074 C 
BRANCH  12  11
ATOM      8  N   UNL     1      -3.156   1.829  24.887  0.00  0.00    -0.305 N 
ATOM      9  C   UNL     1      -3.338   1.162  24.436  0.00  0.00    +0.108 C 
ATOM     10  C   UNL     1      -2.825   0.516  24.430  0.00  0.00    +0.094 C 
ATOM     11  N   UNL     1      -2.131   0.535  24.874  0.00  0.00    -0.270 NA
ATOM     35  C   UNL     1      -1.948   1.202  25.325  0.00  0.00    +0.094 C 
ATOM     36  C   UNL     1      -2.461   1.848  25.331  0.00  0.00    +0.108 C 
BRANCH   8   5
ATOM      1  F   UNL     1      -5.205   4.415  24.915  0.00  0.00    -0.204 F 
ATOM      2  C   UNL     1      -4.693   3.769  24.907  0.00  0.00    +0.140 A 
ATOM      3  C   UNL     1      -4.885   3.086  25.328  0.00  0.00    +0.031 A 
ATOM      4  C   UNL     1      -4.373   2.439  25.322  0.00  0.00    +0.017 A 
ATOM      5  C   UNL     1      -3.668   2.476  24.893  0.00  0.00    +0.048 A 
ATOM      6  C   UNL     1      -3.476   3.158  24.473  0.00  0.00    +0.017 A 
ATOM      7  C   UNL     1      -3.988   3.805  24.480  0.00  0.00    +0.031 A 
ENDBRANCH   8   5
ENDBRANCH  12  11
ENDBRANCH  13  12
BRANCH  20  21
ATOM     21  C   UNL     1       0.968  -0.058  22.992  0.00  0.00    +0.131 C 
BRANCH  21  22
ATOM     22  N   UNL     1       1.763   0.001  23.202  0.00  0.00    -0.200 NA
ATOM     23  C   UNL     1       2.341   0.055  22.616  0.00  0.00    +0.265 C 
ATOM     24  O   UNL     1       2.124   0.048  21.820  0.00  0.00    -0.268 OA
BRANCH  23  25
ATOM     25  C   UNL     1       3.137   0.114  22.825  0.00  0.00    +0.055 A 
ATOM     26  C   UNL     1       3.526  -0.534  23.155  0.00  0.00    +0.005 A 
ATOM     27  C   UNL     1       4.322  -0.475  23.365  0.00  0.00    +0.004 A 
ATOM     28  C   UNL     1       4.728   0.233  23.245  0.00  0.00    +0.071 A 
ATOM     29  C   UNL     1       4.339   0.881  22.915  0.00  0.00    +0.004 A 
ATOM     30  C   UNL     1       3.544   0.822  22.705  0.00  0.00    +0.005 A 
BRANCH  28  31
ATOM     31  C   UNL     1       5.524   0.293  23.455  0.00  0.00    +0.419 C 
ATOM     32  F   UNL     1       6.319   0.354  23.665  0.00  0.00    -0.166 F 
ATOM     33  F   UNL     1       5.740  -0.034  22.730  0.00  0.00    -0.166 F 
ATOM     34  F   UNL     1       5.307   0.622  24.180  0.00  0.00    -0.166 F 
ENDBRANCH  28  31
ENDBRANCH  23  25
ENDBRANCH  21  22
ENDBRANCH  20  21
TORSDOF 7
ENDMDL
MODEL 2
REMARK VINA RESULT:     -11.5      4.318      6.252
REMARK  Name = 
REMARK  7 active torsions:
REMARK  status: ('A' for Active; 'I' for Inactive)
REMARK    1  A    between atoms: C_5  and  N_8
REMARK    2  A    between atoms: N_11  and  C_12
REMARK    3  A    between atoms: C_12  and  C_13
REMARK    4  A    between atoms: C_20  and  C_21
REMARK    5  A    between atoms: C_21  and  N_22
REMARK    6  A    between atoms: C_23  and  C_25
REMARK    7  A    between atoms: C_28  and  C_31
REMARK                            x       y       z     vdW  Elec       q    Type
REMARK                         _______ _______ _______ _____ _____    ______ ____
ROOT
ATOM     13  C   UNL     1      -5.032   1.513  25.162  0.00  0.00    +0.032 C 
ATOM     14  C   UNL     1      -4.287   1.632  25.353  0.00  0.00    +0.073 C 
ATOM     15  N   UNL     1      -4.901   2.182  25.414  0.00  0.00    -0.272 NA
ATOM     16  C   UNL     1      -5.774   1.709  25.078  0.00  0.00    +0.072 C 
ATOM     17  C   UNL     1      -6.415   1.723  24.953  0.00  0.00    +0.017 C 
ATOM     18  C   UNL     1      -5.629   2.057  25.225  0.00  0.00    +0.005 C 
ATOM     19  C   UNL     1      -5.638   2.889  25.503  0.00  0.00    +0.018 C 
ATOM     20  C   UNL     1      -4.918   3.047  25.702  0.00  0.00    +0.079 C 
ENDROOT
BRANCH  13  12
ATOM     12  C   UNL     1      -5.232   0.766  24.870  0.00  0.00    +0.074 C 
BRANCH  12  11
ATOM      8  N   UNL     1      -3.496  -0.983  24.654  0.00  0.00    -0.305 N 
ATOM      9  C   UNL     1      -3.733  -0.553  23.991  0.00  0.00    +0.108 C 
ATOM     10  C   UNL     1      -4.312   0.031  24.064  0.00  0.00    +0.094 C 
ATOM     11  N   UNL     1      -4.654   0.184  24.798  0.00  0.00    -0.270 NA
ATOM     35  C   UNL     1      -4.417  -0.247  25.461  0.00  0.00    +0.094 C 
ATOM     36  C   UNL     1      -3.838  -0.830  25.389  0.00  0.00    +0.108 C 
BRANCH   8   5
ATOM      1  F   UNL     1      -1.178  -3.316  24.368  0.00  0.00    -0.204 F 
ATOM      2  C   UNL     1      -1.758  -2.733  24.439  0.00  0.00    +0.140 A 
ATOM      3  C   UNL     1      -1.542  -1.955  24.608  0.00  0.00    +0.031 A 
ATOM      4  C   UNL     1      -2.121  -1.371  24.680  0.00  0.00    +0.017 A 
ATOM      5  C   UNL     1      -2.917  -1.567  24.582  0.00  0.00    +0.048 A 
ATOM      6  C   UNL     1      -3.133  -2.344  24.413  0.00  0.00    +0.017 A 
ATOM      7  C   UNL     1      -2.554  -2.928  24.342  0.00  0.00    +0.031 A 
ENDBRANCH   8   5
ENDBRANCH  12  11
ENDBRANCH  13  12
BRANCH  20  21
ATOM     21  C   UNL     1      -4.439   3.648  26.002  0.00  0.00    +0.131 C 
BRANCH  21  22
ATOM     22  N   UNL     1      -3.732   3.840  25.622  0.00  0.00    -0.200 NA
ATOM     23  C   UNL     1      -3.137   4.233  26.035  0.00  0.00    +0.265 C 
ATOM     24  O   UNL     1      -3.247   4.434  26.828  0.00  0.00    -0.268 OA
BRANCH  23  25
ATOM     25  C   UNL     1      -2.430   4.426  25.655  0.00  0.00    +0.055 A 
ATOM     26  C   UNL     1      -1.814   3.878  25.627  0.00  0.00    +0.005 A 
ATOM     27  C   UNL     1      -1.107   4.070  25.247  0.00  0.00    +0.004 A 
ATOM     28  C   UNL     1      -1.017   4.811  24.896  0.00  0.00    +0.071 A 
ATOM     29  C   UNL     1      -1.633   5.359  24.924  0.00  0.00    +0.004 A 
ATOM     30  C   UNL     1      -2.339   5.167  25.304  0.00  0.00    +0.005 A 
BRANCH  28  31
ATOM     31  C   UNL     1      -0.310   5.005  24.516  0.00  0.00    +0.419 C 
ATOM     32  F   UNL     1       0.396   5.199  24.137  0.00  0.00    -0.166 F 
ATOM     33  F   UNL     1      -0.319   4.278  24.127  0.00  0.00    -0.166 F 
ATOM     34  F   UNL     1      -0.301   5.732  24.906  0.00  0.00    -0.166 F 
ENDBRANCH  28  31
ENDBRANCH  23  25
ENDBRANCH  21  22
ENDBRANCH  20  21
TORSDOF 7
ENDMDL
MODEL 3
REMARK VINA RESULT:     -11.3      4.344      5.693
REMARK  Name = 
REMARK  7 active torsions:
REMARK  status: ('A' for Active; 'I' for Inactive)
REMARK    1  A    between atoms: C_5  and  N_8
REMARK    2  A    between atoms: N_11  and  C_12
REMARK    3  A    between atoms: C_12  and  C_13
REMARK    4  A    between atoms: C_20  and  C_21
REMARK    5  A    between atoms: C_21  and  N_22
REMARK    6  A    between atoms: C_23  and  C_25
REMARK    7  A    between atoms: C_28  and  C_31
REMARK                            x       y       z     vdW  Elec       q    Type
REMARK                         _______ _______ _______ _____ _____    ______ ____
ROOT
ATOM     13  C   UNL     1      -4.958   2.223  25.153  0.00  0.00    +0.032 C 
ATOM     14  C   UNL     1      -4.384   1.920  24.724  0.00  0.00    +0.073 C 
ATOM     15  N   UNL     1      -5.063   1.525  24.979  0.00  0.00    -0.272 NA
ATOM     16  C   UNL     1      -5.630   2.211  25.533  0.00  0.00    +0.072 C 
ATOM     17  C   UNL     1      -6.162   2.356  25.885  0.00  0.00    +0.017 C 
ATOM     18  C   UNL     1      -5.622   1.830  25.400  0.00  0.00    +0.005 C 
ATOM     19  C   UNL     1      -5.895   1.004  25.279  0.00  0.00    +0.018 C 
ATOM     20  C   UNL     1      -5.353   0.669  24.858  0.00  0.00    +0.079 C 
ENDROOT
BRANCH  13  12
ATOM     12  C   UNL     1      -4.885   3.015  25.377  0.00  0.00    +0.074 C 
BRANCH  12  11
ATOM      8  N   UNL     1      -2.715   4.176  25.122  0.00  0.00    -0.305 N 
ATOM      9  C   UNL     1      -2.929   3.858  25.852  0.00  0.00    +0.108 C 
ATOM     10  C   UNL     1      -3.653   3.471  25.937  0.00  0.00    +0.094 C 
ATOM     11  N   UNL     1      -4.162   3.402  25.292  0.00  0.00    -0.270 NA
ATOM     35  C   UNL     1      -3.947   3.720  24.561  0.00  0.00    +0.094 C 
ATOM     36  C   UNL     1      -3.224   4.107  24.476  0.00  0.00    +0.108 C 
BRANCH   8   5
ATOM      1  F   UNL     1       0.181   5.724  24.780  0.00  0.00    -0.204 F 
ATOM      2  C   UNL     1      -0.543   5.337  24.865  0.00  0.00    +0.140 A 
ATOM      3  C   UNL     1      -0.575   4.513  24.852  0.00  0.00    +0.031 A 
ATOM      4  C   UNL     1      -1.298   4.125  24.938  0.00  0.00    +0.017 A 
ATOM      5  C   UNL     1      -1.991   4.564  25.036  0.00  0.00    +0.048 A 
ATOM      6  C   UNL     1      -1.959   5.387  25.049  0.00  0.00    +0.017 A 
ATOM      7  C   UNL     1      -1.236   5.774  24.964  0.00  0.00    +0.031 A 
ENDBRANCH   8   5
ENDBRANCH  12  11
ENDBRANCH  13  12
BRANCH  20  21
ATOM     21  C   UNL     1      -5.151  -0.047  24.502  0.00  0.00    +0.131 C 
BRANCH  21  22
ATOM     22  N   UNL     1      -4.421  -0.397  24.664  0.00  0.00    -0.200 NA
ATOM     23  C   UNL     1      -4.222  -1.115  24.311  0.00  0.00    +0.265 C 
ATOM     24  O   UNL     1      -4.751  -1.484  23.797  0.00  0.00    -0.268 OA
BRANCH  23  25
ATOM     25  C   UNL     1      -3.492  -1.465  24.473  0.00  0.00    +0.055 A 
ATOM     26  C   UNL     1      -3.460  -2.230  24.780  0.00  0.00    +0.005 A 
ATOM     27  C   UNL     1      -2.730  -2.580  24.941  0.00  0.00    +0.004 A 
ATOM     28  C   UNL     1      -2.033  -2.164  24.796  0.00  0.00    +0.071 A 
ATOM     29  C   UNL     1      -2.065  -1.399  24.489  0.00  0.00    +0.004 A 
ATOM     30  C   UNL     1      -2.794  -1.050  24.327  0.00  0.00    +0.005 A 
BRANCH  28  31
ATOM     31  C   UNL     1      -1.303  -2.513  24.957  0.00  0.00    +0.419 C 
ATOM     32  F   UNL     1      -0.573  -2.862  25.117  0.00  0.00    -0.166 F 
ATOM     33  F   UNL     1      -1.177  -1.970  25.564  0.00  0.00    -0.166 F 
ATOM     34  F   UNL     1      -1.429  -3.056  24.349  0.00  0.00    -0.166 F 
ENDBRANCH  28  31
ENDBRANCH  23  25
ENDBRANCH  21  22
ENDBRANCH  20  21
TORSDOF 7
ENDMDL
MODEL 4
REMARK VINA RESULT:     -11.1      3.869      6.712
REMARK  Name = 
REMARK  7 active torsions:
REMARK  status: ('A' for Active; 'I' for Inactive)
REMARK    1  A    between atoms: C_5  and  N_8
REMARK    2  A    between atoms: N_11  and  C_12
REMARK    3  A    between atoms: C_12  and  C_13
REMARK    4  A    between atoms: C_20  and  C_21
REMARK    5  A    between atoms: C_21  and  N_22
REMARK    6  A    between atoms: C_23  and  C_25
REMARK    7  A    between atoms: C_28  and  C_31
REMARK                            x       y       z     vdW  Elec       q    Type
REMARK                         _______ _______ _______ _____ _____    ______ ____
ROOT
ATOM     13  C   UNL     1      -0.262   1.392  24.609  0.00  0.00    +0.032 C 
ATOM     14  C   UNL     1      -0.960   1.501  24.934  0.00  0.00    +0.073 C 
ATOM     15  N   UNL     1      -0.422   2.091  24.725  0.00  0.00    -0.272 NA
ATOM     16  C   UNL     1       0.415   1.614  24.313  0.00  0.00    +0.072 C 
ATOM     17  C   UNL     1       1.010   1.642  24.043  0.00  0.00    +0.017 C 
ATOM     18  C   UNL     1       0.261   1.976  24.406  0.00  0.00    +0.005 C 
ATOM     19  C   UNL     1       0.223   2.850  24.478  0.00  0.00    +0.018 C 
ATOM     20  C   UNL     1      -0.454   3.000  24.796  0.00  0.00    +0.079 C 
ENDROOT
BRANCH  13  12
ATOM     12  C   UNL     1      -0.035   0.612  24.456  0.00  0.00    +0.074 C 
BRANCH  12  11
ATOM      8  N   UNL     1      -1.697  -1.214  24.612  0.00  0.00    -0.305 N 
ATOM      9  C   UNL     1      -1.185  -1.067  25.242  0.00  0.00    +0.108 C 
ATOM     10  C   UNL     1      -0.631  -0.458  25.190  0.00  0.00    +0.094 C 
ATOM     11  N   UNL     1      -0.588   0.004  24.508  0.00  0.00    -0.270 NA
ATOM     35  C   UNL     1      -1.100  -0.144  23.877  0.00  0.00    +0.094 C 
ATOM     36  C   UNL     1      -1.654  -0.753  23.930  0.00  0.00    +0.108 C 
BRANCH   8   5
ATOM      1  F   UNL     1      -3.915  -3.649  24.819  0.00  0.00    -0.204 F 
ATOM      2  C   UNL     1      -3.360  -3.041  24.767  0.00  0.00    +0.140 A 
ATOM      3  C   UNL     1      -3.553  -2.283  25.031  0.00  0.00    +0.031 A 
ATOM      4  C   UNL     1      -2.999  -1.674  24.979  0.00  0.00    +0.017 A 
ATOM      5  C   UNL     1      -2.251  -1.824  24.663  0.00  0.00    +0.048 A 
ATOM      6  C   UNL     1      -2.058  -2.581  24.400  0.00  0.00    +0.017 A 
ATOM      7  C   UNL     1      -2.613  -3.190  24.452  0.00  0.00    +0.031 A 
ENDBRANCH   8   5
ENDBRANCH  12  11
ENDBRANCH  13  12
BRANCH  20  21
ATOM     21  C   UNL     1      -0.933   3.620  25.053  0.00  0.00    +0.131 C 
BRANCH  21  22
ATOM     22  N   UNL     1      -1.748   3.512  25.122  0.00  0.00    -0.200 NA
ATOM     23  C   UNL     1      -2.235   4.154  25.300  0.00  0.00    +0.265 C 
ATOM     24  O   UNL     1      -1.908   4.903  25.409  0.00  0.00    -0.268 OA
BRANCH  23  25
ATOM     25  C   UNL     1      -3.050   4.045  25.369  0.00  0.00    +0.055 A 
ATOM     26  C   UNL     1      -3.516   3.979  24.691  0.00  0.00    +0.005 A 
ATOM     27  C   UNL     1      -4.331   3.871  24.760  0.00  0.00    +0.004 A 
ATOM     28  C   UNL     1      -4.680   3.829  25.506  0.00  0.00    +0.071 A 
ATOM     29  C   UNL     1      -4.214   3.895  26.184  0.00  0.00    +0.004 A 
ATOM     30  C   UNL     1      -3.400   4.003  26.115  0.00  0.00    +0.005 A 
BRANCH  28  31
ATOM     31  C   UNL     1      -5.495   3.721  25.576  0.00  0.00    +0.419 C 
ATOM     32  F   UNL     1      -6.310   3.611  25.646  0.00  0.00    -0.166 F 
ATOM     33  F   UNL     1      -5.613   4.529  25.468  0.00  0.00    -0.166 F 
ATOM     34  F   UNL     1      -5.377   2.911  25.684  0.00  0.00    -0.166 F 
ENDBRANCH  28  31
ENDBRANCH  23  25
ENDBRANCH  21  22
ENDBRANCH  20  21
TORSDOF 7
ENDMDL
MODEL 5
REMARK VINA RESULT:     -10.6      3.781      5.028
REMARK  Name = 
REMARK  7 active torsions:
REMARK  status: ('A' for Active; 'I' for Inactive)
REMARK    1  A    between atoms: C_5  and  N_8
REMARK    2  A    between atoms: N_11  and  C_12
REMARK    3  A    between atoms: C_12  and  C_13
REMARK    4  A    between atoms: C_20  and  C_21
REMARK    5  A    between atoms: C_21  and  N_22
REMARK    6  A    between atoms: C_23  and  C_25
REMARK    7  A    between atoms: C_28  and  C_31
REMARK                            x       y       z     vdW  Elec       q    Type
REMARK                         _______ _______ _______ _____ _____    ______ ____
ROOT
ATOM     13  C   UNL     1      -0.848   2.068  24.718  0.00  0.00    +0.032 C 
ATOM     14  C   UNL     1      -1.368   1.550  24.976  0.00  0.00    +0.073 C 
ATOM     15  N   UNL     1      -0.602   1.384  24.716  0.00  0.00    -0.272 NA
ATOM     16  C   UNL     1      -0.165   2.295  24.437  0.00  0.00    +0.072 C 
ATOM     17  C   UNL     1       0.344   2.634  24.207  0.00  0.00    +0.017 C 
ATOM     18  C   UNL     1      -0.098   1.897  24.464  0.00  0.00    +0.005 C 
ATOM     19  C   UNL     1       0.343   1.141  24.400  0.00  0.00    +0.018 C 
ATOM     20  C   UNL     1      -0.138   0.601  24.646  0.00  0.00    +0.079 C 
ENDROOT
BRANCH  13  12
ATOM     12  C   UNL     1      -1.080   2.860  24.701  0.00  0.00    +0.074 C 
BRANCH  12  11
ATOM      8  N   UNL     1      -3.440   3.467  25.130  0.00  0.00    -0.305 N 
ATOM      9  C   UNL     1      -2.876   3.558  25.725  0.00  0.00    +0.108 C 
ATOM     10  C   UNL     1      -2.089   3.356  25.581  0.00  0.00    +0.094 C 
ATOM     11  N   UNL     1      -1.866   3.062  24.843  0.00  0.00    -0.270 NA
ATOM     35  C   UNL     1      -2.431   2.971  24.248  0.00  0.00    +0.094 C 
ATOM     36  C   UNL     1      -3.217   3.174  24.392  0.00  0.00    +0.108 C 
BRANCH   8   5
ATOM      1  F   UNL     1      -6.588   4.278  25.701  0.00  0.00    -0.204 F 
ATOM      2  C   UNL     1      -5.801   4.075  25.559  0.00  0.00    +0.140 A 
ATOM      3  C   UNL     1      -5.261   4.654  25.327  0.00  0.00    +0.031 A 
ATOM      4  C   UNL     1      -4.474   4.452  25.184  0.00  0.00    +0.017 A 
ATOM      5  C   UNL     1      -4.227   3.669  25.273  0.00  0.00    +0.048 A 
ATOM      6  C   UNL     1      -4.767   3.091  25.504  0.00  0.00    +0.017 A 
ATOM      7  C   UNL     1      -5.554   3.293  25.647  0.00  0.00    +0.031 A 
ENDBRANCH   8   5
ENDBRANCH  12  11
ENDBRANCH  13  12
BRANCH  20  21
ATOM     21  C   UNL     1      -0.200  -0.211  24.774  0.00  0.00    +0.131 C 
BRANCH  21  22
ATOM     22  N   UNL     1      -0.910  -0.600  24.618  0.00  0.00    -0.200 NA
ATOM     23  C   UNL     1      -1.033  -1.363  24.906  0.00  0.00    +0.265 C 
ATOM     24  O   UNL     1      -0.446  -1.737  25.349  0.00  0.00    -0.268 OA
BRANCH  23  25
ATOM     25  C   UNL     1      -1.743  -1.753  24.750  0.00  0.00    +0.055 A 
ATOM     26  C   UNL     1      -2.445  -1.484  25.092  0.00  0.00    +0.005 A 
ATOM     27  C   UNL     1      -3.155  -1.874  24.936  0.00  0.00    +0.004 A 
ATOM     28  C   UNL     1      -3.164  -2.532  24.439  0.00  0.00    +0.071 A 
ATOM     29  C   UNL     1      -2.463  -2.801  24.098  0.00  0.00    +0.004 A 
ATOM     30  C   UNL     1      -1.753  -2.412  24.253  0.00  0.00    +0.005 A 
BRANCH  28  31
ATOM     31  C   UNL     1      -3.874  -2.922  24.283  0.00  0.00    +0.419 C 
ATOM     32  F   UNL     1      -4.584  -3.312  24.126  0.00  0.00    -0.166 F 
ATOM     33  F   UNL     1      -3.678  -3.503  24.834  0.00  0.00    -0.166 F 
ATOM     34  F   UNL     1      -4.071  -2.342  23.731  0.00  0.00    -0.166 F 
ENDBRANCH  28  31
ENDBRANCH  23  25
ENDBRANCH  21  22
ENDBRANCH  20  21
TORSDOF 7
ENDMDL
MODEL 6
REMARK VINA RESULT:     -10.3      2.103      2.895
REMARK  Name = 
REMARK  7 active torsions:
REMARK  status: ('A' for Active; 'I' for Inactive)
REMARK    1  A    between atoms: C_5  and  N_8
REMARK    2  A    between atoms: N_11  and  C_12
REMARK    3  A    between atoms: C_12  and  C_13
REMARK    4  A    between atoms: C_20  and  C_21
REMARK    5  A    between atoms: C_21  and  N_22
REMARK    6  A    between atoms: C_23  and  C_25
REMARK    7  A    between atoms: C_28  and  C_31
REMARK                            x       y       z     vdW  Elec       q    Type
REMARK                         _______ _______ _______ _____ _____    ______ ____
ROOT
ATOM     13  C   UNL     1      -0.358   1.012  24.488  0.00  0.00    +0.032 C 
ATOM     14  C   UNL     1      -0.240   0.451  23.963  0.00  0.00    +0.073 C 
ATOM     15  N   UNL     1       0.252   1.098  24.103  0.00  0.00    -0.272 NA
ATOM     16  C   UNL     1      -0.188   1.662  24.869  0.00  0.00    +0.072 C 
ATOM     17  C   UNL     1      -0.184   2.179  25.269  0.00  0.00    +0.017 C 
ATOM     18  C   UNL     1       0.130   1.645  24.620  0.00  0.00    +0.005 C 
ATOM     19  C   UNL     1       0.887   1.891  24.250  0.00  0.00    +0.018 C 
ATOM     20  C   UNL     1       1.040   1.360  23.723  0.00  0.00    +0.079 C 
ENDROOT
BRANCH  13  12
ATOM     12  C   UNL     1      -1.040   0.959  24.952  0.00  0.00    +0.074 C 
BRANCH  12  11
ATOM      8  N   UNL     1      -2.707  -0.813  24.500  0.00  0.00    -0.305 N 
ATOM      9  C   UNL     1      -2.770  -0.081  24.123  0.00  0.00    +0.108 C 
ATOM     10  C   UNL     1      -2.213   0.509  24.275  0.00  0.00    +0.094 C 
ATOM     11  N   UNL     1      -1.595   0.368  24.802  0.00  0.00    -0.270 NA
ATOM     35  C   UNL     1      -1.532  -0.363  25.178  0.00  0.00    +0.094 C 
ATOM     36  C   UNL     1      -2.088  -0.954  25.027  0.00  0.00    +0.108 C 
BRANCH   8   5
ATOM      1  F   UNL     1      -4.931  -3.175  23.897  0.00  0.00    -0.204 F 
ATOM      2  C   UNL     1      -4.375  -2.585  24.048  0.00  0.00    +0.140 A 
ATOM      3  C   UNL     1      -4.554  -1.797  23.880  0.00  0.00    +0.031 A 
ATOM      4  C   UNL     1      -3.998  -1.206  24.031  0.00  0.00    +0.017 A 
ATOM      5  C   UNL     1      -3.263  -1.404  24.349  0.00  0.00    +0.048 A 
ATOM      6  C   UNL     1      -3.084  -2.191  24.517  0.00  0.00    +0.017 A 
ATOM      7  C   UNL     1      -3.640  -2.782  24.366  0.00  0.00    +0.031 A 
ENDBRANCH   8   5
ENDBRANCH  12  11
ENDBRANCH  13  12
BRANCH  20  21
ATOM     21  C   UNL     1       1.592   1.148  23.149  0.00  0.00    +0.131 C 
BRANCH  21  22
ATOM     22  N   UNL     1       2.361   0.949  23.369  0.00  0.00    -0.200 NA
ATOM     23  C   UNL     1       2.863   0.583  22.827  0.00  0.00    +0.265 C 
ATOM     24  O   UNL     1       2.597   0.417  22.064  0.00  0.00    -0.268 OA
BRANCH  23  25
ATOM     25  C   UNL     1       3.633   0.383  23.047  0.00  0.00    +0.055 A 
ATOM     26  C   UNL     1       3.795  -0.368  23.347  0.00  0.00    +0.005 A 
ATOM     27  C   UNL     1       4.564  -0.568  23.567  0.00  0.00    +0.004 A 
ATOM     28  C   UNL     1       5.172  -0.016  23.488  0.00  0.00    +0.071 A 
ATOM     29  C   UNL     1       5.010   0.736  23.188  0.00  0.00    +0.004 A 
ATOM     30  C   UNL     1       4.242   0.935  22.968  0.00  0.00    +0.005 A 
BRANCH  28  31
ATOM     31  C   UNL     1       5.942  -0.214  23.708  0.00  0.00    +0.419 C 
ATOM     32  F   UNL     1       6.712  -0.413  23.929  0.00  0.00    -0.166 F 
ATOM     33  F   UNL     1       6.167  -0.224  22.915  0.00  0.00    -0.166 F 
ATOM     34  F   UNL     1       5.717  -0.204  24.501  0.00  0.00    -0.166 F 
ENDBRANCH  28  31
ENDBRANCH  23  25
ENDBRANCH  21  22
ENDBRANCH  20  21
TORSDOF 7
ENDMDL
MODEL 7
REMARK VINA RESULT:      -9.6      3.032      6.770
REMARK  Name = 
REMARK  7 active torsions:
REMARK  status: ('A' for Active; 'I' for Inactive)
REMARK    1  A    between atoms: C_5  and  N_8
REMARK    2  A    between atoms: N_11  and  C_12
REMARK    3  A    between atoms: C_12  and  C_13
REMARK    4  A    between atoms: C_20  and  C_21
REMARK    5  A    between atoms: C_21  and  N_22
REMARK    6  A    between atoms: C_23  and  C_25
REMARK    7  A    between atoms: C_28  and  C_31
REMARK                            x       y       z     vdW  Elec       q    Type
REMARK                         _______ _______ _______ _____ _____    ______ ____
ROOT
ATOM     13  C   UNL     1      -1.685   2.758  24.983  0.00  0.00    +0.032 C 
ATOM     14  C   UNL     1      -1.831   2.028  24.757  0.00  0.00    +0.073 C 
ATOM     15  N   UNL     1      -2.383   2.569  25.048  0.00  0.00    -0.272 NA
ATOM     16  C   UNL     1      -1.866   3.456  25.260  0.00  0.00    +0.072 C 
ATOM     17  C   UNL     1      -1.862   4.073  25.474  0.00  0.00    +0.017 C 
ATOM     18  C   UNL     1      -2.232   3.283  25.268  0.00  0.00    +0.005 C 
ATOM     19  C   UNL     1      -3.096   3.214  25.406  0.00  0.00    +0.018 C 
ATOM     20  C   UNL     1      -3.282   2.504  25.194  0.00  0.00    +0.079 C 
ENDROOT
BRANCH  13  12
ATOM     12  C   UNL     1      -0.903   3.022  24.928  0.00  0.00    +0.074 C 
BRANCH  12  11
ATOM      8  N   UNL     1       0.807   1.600  23.843  0.00  0.00    -0.305 N 
ATOM      9  C   UNL     1       0.669   1.534  24.654  0.00  0.00    +0.108 C 
ATOM     10  C   UNL     1       0.098   2.008  25.015  0.00  0.00    +0.094 C 
ATOM     11  N   UNL     1      -0.334   2.548  24.566  0.00  0.00    -0.270 NA
ATOM     35  C   UNL     1      -0.196   2.615  23.755  0.00  0.00    +0.094 C 
ATOM     36  C   UNL     1       0.375   2.141  23.394  0.00  0.00    +0.108 C 
BRANCH   8   5
ATOM      1  F   UNL     1       3.089  -0.294  22.394  0.00  0.00    -0.204 F 
ATOM      2  C   UNL     1       2.518   0.179  22.756  0.00  0.00    +0.140 A 
ATOM      3  C   UNL     1       2.731   0.909  23.078  0.00  0.00    +0.031 A 
ATOM      4  C   UNL     1       2.161   1.383  23.440  0.00  0.00    +0.017 A 
ATOM      5  C   UNL     1       1.377   1.126  23.481  0.00  0.00    +0.048 A 
ATOM      6  C   UNL     1       1.165   0.398  23.159  0.00  0.00    +0.017 A 
ATOM      7  C   UNL     1       1.735  -0.076  22.797  0.00  0.00    +0.031 A 
ENDBRANCH   8   5
ENDBRANCH  12  11
ENDBRANCH  13  12
BRANCH  20  21
ATOM     21  C   UNL     1      -3.919   1.985  25.133  0.00  0.00    +0.131 C 
BRANCH  21  22
ATOM     22  N   UNL     1      -3.788   1.186  24.975  0.00  0.00    -0.200 NA
ATOM     23  C   UNL     1      -4.418   0.654  24.994  0.00  0.00    +0.265 C 
ATOM     24  O   UNL     1      -5.179   0.920  25.172  0.00  0.00    -0.268 OA
BRANCH  23  25
ATOM     25  C   UNL     1      -4.287  -0.145  24.836  0.00  0.00    +0.055 A 
ATOM     26  C   UNL     1      -4.467  -0.453  24.091  0.00  0.00    +0.005 A 
ATOM     27  C   UNL     1      -4.336  -1.252  23.933  0.00  0.00    +0.004 A 
ATOM     28  C   UNL     1      -4.025  -1.743  24.519  0.00  0.00    +0.071 A 
ATOM     29  C   UNL     1      -3.846  -1.435  25.263  0.00  0.00    +0.004 A 
ATOM     30  C   UNL     1      -3.977  -0.637  25.421  0.00  0.00    +0.005 A 
BRANCH  28  31
ATOM     31  C   UNL     1      -3.894  -2.542  24.361  0.00  0.00    +0.419 C 
ATOM     32  F   UNL     1      -3.763  -3.341  24.203  0.00  0.00    -0.166 F 
ATOM     33  F   UNL     1      -3.433  -2.601  25.042  0.00  0.00    -0.166 F 
ATOM     34  F   UNL     1      -4.356  -2.483  23.680  0.00  0.00    -0.166 F 
ENDBRANCH  28  31
ENDBRANCH  23  25
ENDBRANCH  21  22
ENDBRANCH  20  21
TORSDOF 7
ENDMDL
