MODEL 1
REMARK VINA RESULT:     -13.7      0.000      0.000
REMARK  Name = 
REMARK  2 active torsions:
REMARK  status: ('A' for Active; 'I' for Inactive)
REMARK    1  A    between atoms: C_7  and  C_9
REMARK    2  A    between atoms: C_14  and  C_16
REMARK                            x       y       z     vdW  Elec       q    Type
REMARK                         _______ _______ _______ _____ _____    ______ ____
ROOT
ATOM      9  C   UNL     1      -4.801   1.359  25.041  0.00  0.00    +0.080 C 
ATOM     10  C   UNL     1      -5.591   1.588  25.090  0.00  0.00    +0.031 C 
ATOM     11  C   UNL     1      -5.614   2.405  25.207  0.00  0.00    +0.094 C 
ATOM     12  N   UNL     1      -4.837   2.680  25.229  0.00  0.00    -0.279 N 
ATOM     13  C   UNL     1      -4.334   2.034  25.127  0.00  0.00    +0.101 C 
ATOM     14  C   UNL     1      -4.603   3.464  25.335  0.00  0.00    +0.225 C 
ATOM     15  O   UNL     1      -5.171   4.055  25.431  0.00  0.00    -0.275 OA
ENDROOT
BRANCH   9   7
ATOM      1  C   UNL     1      -3.136  -2.619  25.236  0.00  0.00    +0.031 C 
ATOM      2  C   UNL     1      -3.498  -1.939  24.943  0.00  0.00    -0.020 A 
ATOM      3  C   UNL     1      -3.614  -1.288  25.436  0.00  0.00    +0.016 A 
ATOM      4  C   UNL     1      -3.976  -0.607  25.142  0.00  0.00    +0.100 A 
ATOM      5  C   UNL     1      -4.223  -0.578  24.356  0.00  0.00    +0.100 A 
ATOM      6  N   UNL     1      -4.562   0.161  24.222  0.00  0.00    -0.229 NA
ATOM      7  C   UNL     1      -4.525   0.590  24.926  0.00  0.00    +0.140 A 
ATOM      8  N   UNL     1      -4.163   0.114  25.494  0.00  0.00    -0.229 NA
ATOM     22  C   UNL     1      -4.108  -1.230  23.862  0.00  0.00    +0.020 A 
ATOM     23  C   UNL     1      -3.745  -1.910  24.156  0.00  0.00    -0.003 A 
ENDBRANCH   9   7
BRANCH  14  16
ATOM     16  C   UNL     1      -3.801   3.658  25.346  0.00  0.00    +0.077 C 
ATOM     17  C   UNL     1      -3.395   3.772  24.636  0.00  0.00    +0.009 C 
ATOM     18  C   UNL     1      -2.593   3.966  24.648  0.00  0.00    +0.000 C 
ATOM     19  C   UNL     1      -2.197   4.046  25.367  0.00  0.00    +0.000 C 
ATOM     20  C   UNL     1      -2.604   3.931  26.076  0.00  0.00    +0.000 C 
ATOM     21  C   UNL     1      -3.406   3.737  26.066  0.00  0.00    +0.009 C 
ENDBRANCH  14  16
TORSDOF 2
ENDMDL
MODEL 2
REMARK VINA RESULT:     -12.1      2.575      5.338
REMARK  Name = 
REMARK  2 active torsions:
REMARK  status: ('A' for Active; 'I' for Inactive)
REMARK    1  A    between atoms: C_7  and  C_9
REMARK    2  A    between atoms: C_14  and  C_16
REMARK                            x       y       z     vdW  Elec       q    Type
REMARK                         _______ _______ _______ _____ _____    ______ ____
ROOT
ATOM      9  C   UNL     1      -1.101   1.095  24.811  0.00  0.00    +0.080 C 
ATOM     10  C   UNL     1      -0.372   0.757  24.627  0.00  0.00    +0.031 C 
ATOM     11  C   UNL     1      -0.479  -0.057  24.549  0.00  0.00    +0.094 C 
ATOM     12  N   UNL     1      -1.275  -0.223  24.687  0.00  0.00    -0.279 N 
ATOM     13  C   UNL     1      -1.660   0.489  24.848  0.00  0.00    +0.101 C 
ATOM     14  C   UNL     1      -1.626  -0.969  24.666  0.00  0.00    +0.225 C 
ATOM     15  O   UNL     1      -1.169  -1.635  24.495  0.00  0.00    -0.275 OA
ENDROOT
BRANCH   9   7
ATOM      1  C   UNL     1      -1.187   5.407  25.002  0.00  0.00    +0.031 C 
ATOM      2  C   UNL     1      -1.391   4.617  25.120  0.00  0.00    -0.020 A 
ATOM      3  C   UNL     1      -0.935   4.018  24.785  0.00  0.00    +0.016 A 
ATOM      4  C   UNL     1      -1.139   3.227  24.903  0.00  0.00    +0.100 A 
ATOM      5  C   UNL     1      -1.801   3.036  25.356  0.00  0.00    +0.100 A 
ATOM      6  N   UNL     1      -1.868   2.215  25.378  0.00  0.00    -0.229 NA
ATOM      7  C   UNL     1      -1.247   1.897  24.937  0.00  0.00    +0.140 A 
ATOM      8  N   UNL     1      -0.797   2.523  24.644  0.00  0.00    -0.229 NA
ATOM     22  C   UNL     1      -2.259   3.636  25.692  0.00  0.00    +0.020 A 
ATOM     23  C   UNL     1      -2.053   4.426  25.574  0.00  0.00    -0.003 A 
ENDBRANCH   9   7
BRANCH  14  16
ATOM     16  C   UNL     1      -2.433  -1.051  24.815  0.00  0.00    +0.077 C 
ATOM     17  C   UNL     1      -2.974  -1.022  24.192  0.00  0.00    +0.009 C 
ATOM     18  C   UNL     1      -3.780  -1.103  24.342  0.00  0.00    +0.000 C 
ATOM     19  C   UNL     1      -4.048  -1.213  25.114  0.00  0.00    +0.000 C 
ATOM     20  C   UNL     1      -3.508  -1.242  25.738  0.00  0.00    +0.000 C 
ATOM     21  C   UNL     1      -2.700  -1.160  25.588  0.00  0.00    +0.009 C 
ENDBRANCH  14  16
TORSDOF 2
ENDMDL
MODEL 3
REMARK VINA RESULT:     -12.0      1.420      4.635
REMARK  Name = 
REMARK  2 active torsions:
REMARK  status: ('A' for Active; 'I' for Inactive)
REMARK    1  A    between atoms: C_7  and  C_9
REMARK    2  A    between atoms: C_14  and  C_16
REMARK                            x       y       z     vdW  Elec       q    Type
REMARK                         _______ _______ _______ _____ _____    ______ ____
ROOT
ATOM      9  C   UNL     1      -3.700   1.989  24.824  0.00  0.00    +0.080 C 
ATOM     10  C   UNL     1      -4.493   2.175  24.696  0.00  0.00    +0.031 C 
ATOM     11  C   UNL     1      -4.919   1.469  24.657  0.00  0.00    +0.094 C 
ATOM     12  N   UNL     1      -4.388   0.847  24.761  0.00  0.00    -0.279 N 
ATOM     13  C   UNL     1      -3.635   1.168  24.864  0.00  0.00    +0.101 C 
ATOM     14  C   UNL     1      -4.576   0.044  24.761  0.00  0.00    +0.225 C 
ATOM     15  O   UNL     1      -5.357  -0.197  24.651  0.00  0.00    -0.275 OA
ENDROOT
BRANCH   9   7
ATOM      1  C   UNL     1      -1.046   5.385  25.067  0.00  0.00    +0.031 C 
ATOM      2  C   UNL     1      -1.320   4.608  25.073  0.00  0.00    -0.020 A 
ATOM      3  C   UNL     1      -2.118   4.450  24.937  0.00  0.00    +0.016 A 
ATOM      4  C   UNL     1      -2.392   3.672  24.943  0.00  0.00    +0.100 A 
ATOM      5  C   UNL     1      -1.867   3.051  25.084  0.00  0.00    +0.100 A 
ATOM      6  N   UNL     1      -2.293   2.346  25.056  0.00  0.00    -0.229 NA
ATOM      7  C   UNL     1      -3.081   2.530  24.899  0.00  0.00    +0.140 A 
ATOM      8  N   UNL     1      -3.142   3.349  24.829  0.00  0.00    -0.229 NA
ATOM     22  C   UNL     1      -1.068   3.209  25.219  0.00  0.00    +0.020 A 
ATOM     23  C   UNL     1      -0.795   3.987  25.213  0.00  0.00    -0.003 A 
ENDBRANCH   9   7
BRANCH  14  16
ATOM     16  C   UNL     1      -3.983  -0.520  24.873  0.00  0.00    +0.077 C 
ATOM     17  C   UNL     1      -3.762  -0.741  25.637  0.00  0.00    +0.009 C 
ATOM     18  C   UNL     1      -3.169  -1.303  25.747  0.00  0.00    +0.000 C 
ATOM     19  C   UNL     1      -2.798  -1.646  25.095  0.00  0.00    +0.000 C 
ATOM     20  C   UNL     1      -3.019  -1.425  24.331  0.00  0.00    +0.000 C 
ATOM     21  C   UNL     1      -3.612  -0.861  24.220  0.00  0.00    +0.009 C 
ENDBRANCH  14  16
TORSDOF 2
ENDMDL
MODEL 4
REMARK VINA RESULT:     -12.0      2.039      2.675
REMARK  Name = 
REMARK  2 active torsions:
REMARK  status: ('A' for Active; 'I' for Inactive)
REMARK    1  A    between atoms: C_7  and  C_9
REMARK    2  A    between atoms: C_14  and  C_16
REMARK                            x       y       z     vdW  Elec       q    Type
REMARK                         _______ _______ _______ _____ _____    ______ ____
ROOT
ATOM      9  C   UNL     1      -1.529   0.879  25.153  0.00  0.00    +0.080 C 
ATOM     10  C   UNL     1      -0.705   0.843  25.183  0.00  0.00    +0.031 C 
ATOM     11  C   UNL     1      -0.419   1.608  25.296  0.00  0.00    +0.094 C 
ATOM     12  N   UNL     1      -1.066   2.118  25.336  0.00  0.00    -0.279 N 
ATOM     13  C   UNL     1      -1.752   1.668  25.248  0.00  0.00    +0.101 C 
ATOM     14  C   UNL     1      -1.034   2.935  25.445  0.00  0.00    +0.225 C 
ATOM     15  O   UNL     1      -0.304   3.312  25.525  0.00  0.00    -0.275 OA
ENDROOT
BRANCH   9   7
ATOM      1  C   UNL     1      -4.331  -2.134  23.852  0.00  0.00    +0.031 C 
ATOM      2  C   UNL     1      -3.799  -1.716  24.322  0.00  0.00    -0.020 A 
ATOM      3  C   UNL     1      -3.448  -1.028  24.035  0.00  0.00    +0.016 A 
ATOM      4  C   UNL     1      -2.915  -0.608  24.505  0.00  0.00    +0.100 A 
ATOM      5  C   UNL     1      -2.734  -0.879  25.263  0.00  0.00    +0.100 A 
ATOM      6  N   UNL     1      -2.192  -0.355  25.598  0.00  0.00    -0.229 NA
ATOM      7  C   UNL     1      -2.039   0.240  25.047  0.00  0.00    +0.140 A 
ATOM      8  N   UNL     1      -2.486   0.082  24.372  0.00  0.00    -0.229 NA
ATOM     22  C   UNL     1      -3.085  -1.568  25.551  0.00  0.00    +0.020 A 
ATOM     23  C   UNL     1      -3.618  -1.986  25.080  0.00  0.00    -0.003 A 
ENDBRANCH   9   7
BRANCH  14  16
ATOM     16  C   UNL     1      -1.731   3.376  25.474  0.00  0.00    +0.077 C 
ATOM     17  C   UNL     1      -2.076   3.649  24.775  0.00  0.00    +0.009 C 
ATOM     18  C   UNL     1      -2.773   4.089  24.805  0.00  0.00    +0.000 C 
ATOM     19  C   UNL     1      -3.125   4.257  25.532  0.00  0.00    +0.000 C 
ATOM     20  C   UNL     1      -2.780   3.985  26.230  0.00  0.00    +0.000 C 
ATOM     21  C   UNL     1      -2.082   3.544  26.201  0.00  0.00    +0.009 C 
ENDBRANCH  14  16
TORSDOF 2
ENDMDL
MODEL 5
REMARK VINA RESULT:     -12.0      1.551      2.175
REMARK  Name = 
REMARK  2 active torsions:
REMARK  status: ('A' for Active; 'I' for Inactive)
REMARK    1  A    between atoms: C_7  and  C_9
REMARK    2  A    between atoms: C_14  and  C_16
REMARK                            x       y       z     vdW  Elec       q    Type
REMARK                         _______ _______ _______ _____ _____    ______ ____
ROOT
ATOM      9  C   UNL     1      -2.306   0.964  24.883  0.00  0.00    +0.080 C 
ATOM     10  C   UNL     1      -1.502   1.150  24.893  0.00  0.00    +0.031 C 
ATOM     11  C   UNL     1      -1.429   1.969  24.954  0.00  0.00    +0.094 C 
ATOM     12  N   UNL     1      -2.188   2.291  24.982  0.00  0.00    -0.279 N 
ATOM     13  C   UNL     1      -2.730   1.670  24.938  0.00  0.00    +0.101 C 
ATOM     14  C   UNL     1      -2.374   3.092  25.043  0.00  0.00    +0.225 C 
ATOM     15  O   UNL     1      -1.771   3.654  25.083  0.00  0.00    -0.275 OA
ENDROOT
BRANCH   9   7
ATOM      1  C   UNL     1      -4.294  -2.730  23.869  0.00  0.00    +0.031 C 
ATOM      2  C   UNL     1      -3.849  -2.172  24.282  0.00  0.00    -0.020 A 
ATOM      3  C   UNL     1      -3.735  -1.420  23.965  0.00  0.00    +0.016 A 
ATOM      4  C   UNL     1      -3.290  -0.860  24.377  0.00  0.00    +0.100 A 
ATOM      5  C   UNL     1      -2.959  -1.055  25.107  0.00  0.00    +0.100 A 
ATOM      6  N   UNL     1      -2.550  -0.395  25.386  0.00  0.00    -0.229 NA
ATOM      7  C   UNL     1      -2.628   0.207  24.828  0.00  0.00    +0.140 A 
ATOM      8  N   UNL     1      -3.086  -0.081  24.205  0.00  0.00    -0.229 NA
ATOM     22  C   UNL     1      -3.072  -1.809  25.425  0.00  0.00    +0.020 A 
ATOM     23  C   UNL     1      -3.517  -2.367  25.012  0.00  0.00    -0.003 A 
ENDBRANCH   9   7
BRANCH  14  16
ATOM     16  C   UNL     1      -3.163   3.333  25.066  0.00  0.00    +0.077 C 
ATOM     17  C   UNL     1      -3.574   3.467  24.362  0.00  0.00    +0.009 C 
ATOM     18  C   UNL     1      -4.362   3.708  24.385  0.00  0.00    +0.000 C 
ATOM     19  C   UNL     1      -4.741   3.814  25.110  0.00  0.00    +0.000 C 
ATOM     20  C   UNL     1      -4.330   3.680  25.814  0.00  0.00    +0.000 C 
ATOM     21  C   UNL     1      -3.541   3.439  25.791  0.00  0.00    +0.009 C 
ENDBRANCH  14  16
TORSDOF 2
ENDMDL
