MODEL 1
REMARK VINA RESULT:     -15.5      0.000      0.000
REMARK  Name = 
REMARK  2 active torsions:
REMARK  status: ('A' for Active; 'I' for Inactive)
REMARK    1  A    between atoms: S_2  and  N_5
REMARK    2  A    between atoms: C_12  and  C_19
REMARK                            x       y       z     vdW  Elec       q    Type
REMARK                         _______ _______ _______ _____ _____    ______ ____
ROOT
ATOM      5  N   UNL     1      -3.414   2.834  24.333  0.00  0.00    -0.159 NA
ATOM      6  C   UNL     1      -2.696   2.716  23.921  0.00  0.00    +0.097 C 
ATOM      7  C   UNL     1      -2.671   1.728  23.911  0.00  0.00    +0.041 C 
ATOM      8  C   UNL     1      -2.505   0.936  23.820  0.00  0.00    +0.011 C 
ATOM      9  C   UNL     1      -3.009   1.330  24.107  0.00  0.00    +0.056 C 
ATOM     10  C   UNL     1      -3.019   2.285  24.108  0.00  0.00    +0.101 C 
ATOM     11  C   UNL     1      -3.804   1.263  24.564  0.00  0.00    +0.041 A 
ATOM     12  C   UNL     1      -4.323   0.698  24.866  0.00  0.00    +0.018 A 
ATOM     13  C   UNL     1      -5.009   0.936  25.259  0.00  0.00    +0.006 A 
ATOM     14  C   UNL     1      -5.174   1.739  25.350  0.00  0.00    +0.061 A 
ATOM     15  C   UNL     1      -4.655   2.304  25.048  0.00  0.00    +0.261 A 
ATOM     16  O   UNL     1      -4.820   3.108  25.140  0.00  0.00    -0.267 OA
ATOM     17  N   UNL     1      -3.969   2.066  24.656  0.00  0.00    -0.299 N 
ATOM     18  C   UNL     1      -3.502   1.668  24.389  0.00  0.00    +0.110 C 
ENDROOT
BRANCH  12  19
ATOM     19  C   UNL     1      -4.158  -0.105  24.775  0.00  0.00    +0.031 A 
ATOM     20  C   UNL     1      -4.374  -0.575  24.132  0.00  0.00    +0.007 A 
ATOM     21  C   UNL     1      -4.097  -1.339  24.270  0.00  0.00    +0.006 A 
ATOM     22  C   UNL     1      -3.709  -1.342  24.998  0.00  0.00    +0.029 A 
ATOM     23  S   UNL     1      -3.747  -0.579  25.310  0.00  0.00    -0.087 S 
ATOM     24  C   UNL     1      -3.371  -2.038  25.284  0.00  0.00    +0.006 A 
ATOM     25  C   UNL     1      -3.422  -2.733  24.841  0.00  0.00    +0.001 A 
ATOM     26  C   UNL     1      -3.810  -2.731  24.113  0.00  0.00    +0.000 A 
ATOM     27  C   UNL     1      -4.148  -2.034  23.827  0.00  0.00    +0.001 A 
ENDBRANCH  12  19
BRANCH   5   2
ATOM      1  C   UNL     1      -4.664   3.642  25.047  0.00  0.00    +0.196 C 
ATOM      2  S   UNL     1      -4.039   3.238  24.690  0.00  0.00    +0.046 S 
ATOM      3  O   UNL     1      -3.624   3.248  25.404  0.00  0.00    -0.157 OA
ATOM      4  O   UNL     1      -4.453   3.228  23.976  0.00  0.00    -0.157 OA
ENDBRANCH   5   2
TORSDOF 2
ENDMDL
MODEL 2
REMARK VINA RESULT:     -15.5      0.575      1.634
REMARK  Name = 
REMARK  2 active torsions:
REMARK  status: ('A' for Active; 'I' for Inactive)
REMARK    1  A    between atoms: S_2  and  N_5
REMARK    2  A    between atoms: C_12  and  C_19
REMARK                            x       y       z     vdW  Elec       q    Type
REMARK                         _______ _______ _______ _____ _____    ______ ____
ROOT
ATOM      5  N   UNL     1      -4.709   2.947  25.064  0.00  0.00    -0.159 NA
ATOM      6  C   UNL     1      -5.462   2.714  25.340  0.00  0.00    +0.097 C 
ATOM      7  C   UNL     1      -5.367   1.733  25.272  0.00  0.00    +0.041 C 
ATOM      8  C   UNL     1      -5.448   0.922  25.275  0.00  0.00    +0.011 C 
ATOM      9  C   UNL     1      -4.956   1.394  25.105  0.00  0.00    +0.056 C 
ATOM     10  C   UNL     1      -5.063   2.340  25.178  0.00  0.00    +0.101 C 
ATOM     11  C   UNL     1      -4.098   1.456  24.783  0.00  0.00    +0.041 A 
ATOM     12  C   UNL     1      -3.472   0.982  24.531  0.00  0.00    +0.018 A 
ATOM     13  C   UNL     1      -2.768   1.329  24.277  0.00  0.00    +0.006 A 
ATOM     14  C   UNL     1      -2.690   2.150  24.275  0.00  0.00    +0.061 A 
ATOM     15  C   UNL     1      -3.315   2.625  24.527  0.00  0.00    +0.261 A 
ATOM     16  O   UNL     1      -3.237   3.446  24.525  0.00  0.00    -0.267 OA
ATOM     17  N   UNL     1      -4.019   2.278  24.781  0.00  0.00    -0.299 N 
ATOM     18  C   UNL     1      -4.470   1.808  24.936  0.00  0.00    +0.110 C 
ENDROOT
BRANCH  12  19
ATOM     19  C   UNL     1      -3.551   0.160  24.533  0.00  0.00    +0.031 A 
ATOM     20  C   UNL     1      -3.905  -0.295  23.943  0.00  0.00    +0.007 A 
ATOM     21  C   UNL     1      -3.862  -1.086  24.171  0.00  0.00    +0.006 A 
ATOM     22  C   UNL     1      -3.480  -1.120  24.901  0.00  0.00    +0.029 A 
ATOM     23  S   UNL     1      -3.288  -0.350  25.125  0.00  0.00    -0.087 S 
ATOM     24  C   UNL     1      -3.357  -1.849  25.268  0.00  0.00    +0.006 A 
ATOM     25  C   UNL     1      -3.616  -2.543  24.905  0.00  0.00    +0.001 A 
ATOM     26  C   UNL     1      -3.998  -2.509  24.174  0.00  0.00    +0.000 A 
ATOM     27  C   UNL     1      -4.121  -1.780  23.807  0.00  0.00    +0.001 A 
ENDBRANCH  12  19
BRANCH   5   2
ATOM      1  C   UNL     1      -3.470   3.949  24.630  0.00  0.00    +0.196 C 
ATOM      2  S   UNL     1      -4.089   3.448  24.847  0.00  0.00    +0.046 S 
ATOM      3  O   UNL     1      -4.365   3.452  24.069  0.00  0.00    -0.157 OA
ATOM      4  O   UNL     1      -3.814   3.444  25.625  0.00  0.00    -0.157 OA
ENDBRANCH   5   2
TORSDOF 2
ENDMDL
MODEL 3
REMARK VINA RESULT:     -14.0      2.441      4.161
REMARK  Name = 
REMARK  2 active torsions:
REMARK  status: ('A' for Active; 'I' for Inactive)
REMARK    1  A    between atoms: S_2  and  N_5
REMARK    2  A    between atoms: C_12  and  C_19
REMARK                            x       y       z     vdW  Elec       q    Type
REMARK                         _______ _______ _______ _____ _____    ______ ____
ROOT
ATOM      5  N   UNL     1      -2.387  -1.817  25.063  0.00  0.00    -0.159 NA
ATOM      6  C   UNL     1      -1.718  -1.468  25.420  0.00  0.00    +0.097 C 
ATOM      7  C   UNL     1      -1.962  -0.515  25.335  0.00  0.00    +0.041 C 
ATOM      8  C   UNL     1      -2.015   0.298  25.342  0.00  0.00    +0.011 C 
ATOM      9  C   UNL     1      -2.401  -0.245  25.122  0.00  0.00    +0.056 C 
ATOM     10  C   UNL     1      -2.151  -1.162  25.212  0.00  0.00    +0.101 C 
ATOM     11  C   UNL     1      -3.197  -0.442  24.707  0.00  0.00    +0.041 A 
ATOM     12  C   UNL     1      -3.860  -0.072  24.384  0.00  0.00    +0.018 A 
ATOM     13  C   UNL     1      -4.466  -0.525  24.055  0.00  0.00    +0.006 A 
ATOM     14  C   UNL     1      -4.409  -1.348  24.050  0.00  0.00    +0.061 A 
ATOM     15  C   UNL     1      -3.746  -1.718  24.373  0.00  0.00    +0.261 A 
ATOM     16  O   UNL     1      -3.690  -2.541  24.367  0.00  0.00    -0.267 OA
ATOM     17  N   UNL     1      -3.141  -1.265  24.701  0.00  0.00    -0.299 N 
ATOM     18  C   UNL     1      -2.792  -0.730  24.902  0.00  0.00    +0.110 C 
ENDROOT
BRANCH  12  19
ATOM     19  C   UNL     1      -3.917   0.751  24.390  0.00  0.00    +0.031 A 
ATOM     20  C   UNL     1      -3.591   1.264  23.832  0.00  0.00    +0.007 A 
ATOM     21  C   UNL     1      -3.782   2.035  24.051  0.00  0.00    +0.006 A 
ATOM     22  C   UNL     1      -4.226   2.000  24.745  0.00  0.00    +0.029 A 
ATOM     23  S   UNL     1      -4.310   1.206  24.954  0.00  0.00    -0.087 S 
ATOM     24  C   UNL     1      -4.498   2.694  25.098  0.00  0.00    +0.006 A 
ATOM     25  C   UNL     1      -4.325   3.426  24.756  0.00  0.00    +0.001 A 
ATOM     26  C   UNL     1      -3.880   3.461  24.061  0.00  0.00    +0.000 A 
ATOM     27  C   UNL     1      -3.609   2.766  23.709  0.00  0.00    +0.001 A 
ENDBRANCH  12  19
BRANCH   5   2
ATOM      1  C   UNL     1      -3.391  -3.001  24.501  0.00  0.00    +0.196 C 
ATOM      2  S   UNL     1      -2.889  -2.409  24.782  0.00  0.00    +0.046 S 
ATOM      3  O   UNL     1      -2.487  -2.407  24.061  0.00  0.00    -0.157 OA
ATOM      4  O   UNL     1      -3.291  -2.411  25.503  0.00  0.00    -0.157 OA
ENDBRANCH   5   2
TORSDOF 2
ENDMDL
