MODEL 1
REMARK VINA RESULT:     -12.2      0.000      0.000
REMARK  Name = 
REMARK  9 active torsions:
REMARK  status: ('A' for Active; 'I' for Inactive)
REMARK    1  A    between atoms: O_2  and  C_3
REMARK    2  A    between atoms: C_8  and  C_9
REMARK    3  A    between atoms: C_9  and  N_10
REMARK    4  A    between atoms: C_11  and  C_13
REMARK    5  A    between atoms: C_13  and  C_14
REMARK    6  A    between atoms: C_20  and  C_22
REMARK    7  A    between atoms: C_24  and  O_29
REMARK    8  A    between atoms: O_29  and  C_30
REMARK    9  A    between atoms: N_32  and  C_33
REMARK                            x       y       z     vdW  Elec       q    Type
REMARK                         _______ _______ _______ _____ _____    ______ ____
ROOT
ATOM     14  C   UNL     1      -4.452   2.471  24.858  0.00  0.00    +0.040 C 
ATOM     15  C   UNL     1      -4.983   2.938  25.282  0.00  0.00    +0.152 C 
ATOM     16  O   UNL     1      -5.778   2.720  25.328  0.00  0.00    -0.223 OA
ATOM     17  C   UNL     1      -4.721   3.621  25.661  0.00  0.00    +0.033 C 
ATOM     18  C   UNL     1      -3.926   3.840  25.616  0.00  0.00    +0.003 C 
ATOM     19  C   UNL     1      -3.394   3.373  25.191  0.00  0.00    +0.006 C 
ATOM     20  C   UNL     1      -2.600   3.591  25.146  0.00  0.00    +0.068 C 
ATOM     21  C   UNL     1      -2.891   4.207  25.610  0.00  0.00    +0.006 C 
ATOM     24  C   UNL     1      -2.068   3.124  24.721  0.00  0.00    +0.173 C 
ATOM     25  C   UNL     1      -2.330   2.441  24.342  0.00  0.00    +0.044 C 
ATOM     26  C   UNL     1      -3.125   2.223  24.388  0.00  0.00    +0.004 C 
ATOM     27  C   UNL     1      -3.656   2.689  24.812  0.00  0.00    +0.003 C 
ATOM     28  C   UNL     1      -3.919   2.004  24.433  0.00  0.00    +0.000 C 
ENDROOT
BRANCH  20  22
ATOM     22  C   UNL     1      -1.907   4.023  25.262  0.00  0.00    +0.185 C 
ATOM     23  O   UNL     1      -1.938   4.763  25.625  0.00  0.00    -0.220 OA
ENDBRANCH  20  22
BRANCH  14  13
ATOM     13  C   UNL     1      -4.714   1.787  24.479  0.00  0.00    +0.089 C 
BRANCH  13  11
ATOM     10  N   UNL     1      -4.463   0.389  24.632  0.00  0.00    -0.200 NA
ATOM     11  C   UNL     1      -4.805   1.088  24.906  0.00  0.00    +0.242 C 
ATOM     12  O   UNL     1      -5.238   1.087  25.609  0.00  0.00    -0.273 OA
BRANCH  10   9
ATOM      9  C   UNL     1      -4.555  -0.311  25.060  0.00  0.00    +0.144 C 
BRANCH   9   8
ATOM      3  C   UNL     1      -3.729  -1.464  25.240  0.00  0.00    +0.136 A 
ATOM      4  C   UNL     1      -3.413  -2.168  24.951  0.00  0.00    +0.037 A 
ATOM      5  C   UNL     1      -3.607  -2.426  24.191  0.00  0.00    +0.003 A 
ATOM      6  C   UNL     1      -4.116  -1.978  23.722  0.00  0.00    -0.000 A 
ATOM      7  C   UNL     1      -4.432  -1.274  24.011  0.00  0.00    +0.000 A 
ATOM      8  C   UNL     1      -4.239  -1.016  24.770  0.00  0.00    +0.033 A 
BRANCH   3   2
ATOM      1  C   UNL     1      -2.912  -1.559  26.409  0.00  0.00    +0.252 C 
ATOM      2  O   UNL     1      -3.536  -1.206  26.000  0.00  0.00    -0.472 OA
ENDBRANCH   3   2
ENDBRANCH   9   8
ENDBRANCH  10   9
ENDBRANCH  13  11
ENDBRANCH  14  13
BRANCH  24  29
ATOM     29  O   UNL     1      -1.274   3.342  24.675  0.00  0.00    -0.437 OA
BRANCH  29  30
ATOM     30  C   UNL     1      -0.727   2.835  24.323  0.00  0.00    +0.421 C 
ATOM     31  O   UNL     1      -0.712   2.748  23.504  0.00  0.00    -0.225 OA
ATOM     32  N   UNL     1      -0.194   2.413  24.793  0.00  0.00    -0.170 NA
BRANCH  32  33
ATOM     33  C   UNL     1       0.353   1.905  24.441  0.00  0.00    +0.099 C 
ATOM     34  C   UNL     1       0.988   2.215  24.015  0.00  0.00    +0.024 C 
ATOM     35  C   UNL     1       0.265   1.089  24.515  0.00  0.00    +0.024 C 
ENDBRANCH  32  33
ENDBRANCH  29  30
ENDBRANCH  24  29
TORSDOF 9
ENDMDL
MODEL 2
REMARK VINA RESULT:     -12.2      1.312      1.940
REMARK  Name = 
REMARK  9 active torsions:
REMARK  status: ('A' for Active; 'I' for Inactive)
REMARK    1  A    between atoms: O_2  and  C_3
REMARK    2  A    between atoms: C_8  and  C_9
REMARK    3  A    between atoms: C_9  and  N_10
REMARK    4  A    between atoms: C_11  and  C_13
REMARK    5  A    between atoms: C_13  and  C_14
REMARK    6  A    between atoms: C_20  and  C_22
REMARK    7  A    between atoms: C_24  and  O_29
REMARK    8  A    between atoms: O_29  and  C_30
REMARK    9  A    between atoms: N_32  and  C_33
REMARK                            x       y       z     vdW  Elec       q    Type
REMARK                         _______ _______ _______ _____ _____    ______ ____
ROOT
ATOM     14  C   UNL     1      -4.936   1.333  24.766  0.00  0.00    +0.040 C 
ATOM     15  C   UNL     1      -5.725   1.295  25.003  0.00  0.00    +0.152 C 
ATOM     16  O   UNL     1      -6.149   0.592  24.914  0.00  0.00    -0.223 OA
ATOM     17  C   UNL     1      -6.090   1.958  25.329  0.00  0.00    +0.033 C 
ATOM     18  C   UNL     1      -5.668   2.661  25.418  0.00  0.00    +0.003 C 
ATOM     19  C   UNL     1      -4.878   2.699  25.180  0.00  0.00    +0.006 C 
ATOM     20  C   UNL     1      -4.455   3.402  25.270  0.00  0.00    +0.068 C 
ATOM     21  C   UNL     1      -5.185   3.635  25.575  0.00  0.00    +0.006 C 
ATOM     24  C   UNL     1      -3.665   3.440  25.032  0.00  0.00    +0.173 C 
ATOM     25  C   UNL     1      -3.300   2.778  24.706  0.00  0.00    +0.044 C 
ATOM     26  C   UNL     1      -3.723   2.074  24.617  0.00  0.00    +0.004 C 
ATOM     27  C   UNL     1      -4.512   2.036  24.855  0.00  0.00    +0.003 C 
ATOM     28  C   UNL     1      -4.146   1.372  24.528  0.00  0.00    +0.000 C 
ENDROOT
BRANCH  20  22
ATOM     22  C   UNL     1      -4.285   4.185  25.464  0.00  0.00    +0.185 C 
ATOM     23  O   UNL     1      -4.886   4.682  25.736  0.00  0.00    -0.220 OA
ENDBRANCH  20  22
BRANCH  14  13
ATOM     13  C   UNL     1      -4.570   0.670  24.440  0.00  0.00    +0.089 C 
BRANCH  13  11
ATOM     10  N   UNL     1      -3.824  -0.536  24.617  0.00  0.00    -0.200 NA
ATOM     11  C   UNL     1      -4.283   0.074  24.932  0.00  0.00    +0.242 C 
ATOM     12  O   UNL     1      -4.453   0.087  25.739  0.00  0.00    -0.273 OA
BRANCH  10   9
ATOM      9  C   UNL     1      -3.536  -1.132  25.110  0.00  0.00    +0.144 C 
BRANCH   9   8
ATOM      3  C   UNL     1      -2.410  -1.969  24.834  0.00  0.00    +0.136 A 
ATOM      4  C   UNL     1      -2.096  -2.657  24.507  0.00  0.00    +0.037 A 
ATOM      5  C   UNL     1      -2.591  -3.198  24.129  0.00  0.00    +0.003 A 
ATOM      6  C   UNL     1      -3.401  -3.050  24.078  0.00  0.00    -0.000 A 
ATOM      7  C   UNL     1      -3.715  -2.362  24.404  0.00  0.00    +0.000 A 
ATOM      8  C   UNL     1      -3.221  -1.821  24.783  0.00  0.00    +0.033 A 
BRANCH   3   2
ATOM      1  C   UNL     1      -1.104  -1.572  25.256  0.00  0.00    +0.252 C 
ATOM      2  O   UNL     1      -1.916  -1.428  25.212  0.00  0.00    -0.472 OA
ENDBRANCH   3   2
ENDBRANCH   9   8
ENDBRANCH  10   9
ENDBRANCH  13  11
ENDBRANCH  14  13
BRANCH  24  29
ATOM     29  O   UNL     1      -3.242   4.143  25.121  0.00  0.00    -0.437 OA
BRANCH  29  30
ATOM     30  C   UNL     1      -2.453   4.181  24.885  0.00  0.00    +0.421 C 
ATOM     31  O   UNL     1      -2.246   4.006  24.107  0.00  0.00    -0.225 OA
ATOM     32  N   UNL     1      -1.869   4.394  25.429  0.00  0.00    -0.170 NA
BRANCH  32  33
ATOM     33  C   UNL     1      -1.079   4.432  25.193  0.00  0.00    +0.099 C 
ATOM     34  C   UNL     1      -0.580   3.788  25.321  0.00  0.00    +0.024 C 
ATOM     35  C   UNL     1      -0.790   5.113  24.830  0.00  0.00    +0.024 C 
ENDBRANCH  32  33
ENDBRANCH  29  30
ENDBRANCH  24  29
TORSDOF 9
ENDMDL
MODEL 3
REMARK VINA RESULT:     -11.9      1.465      3.485
REMARK  Name = 
REMARK  9 active torsions:
REMARK  status: ('A' for Active; 'I' for Inactive)
REMARK    1  A    between atoms: O_2  and  C_3
REMARK    2  A    between atoms: C_8  and  C_9
REMARK    3  A    between atoms: C_9  and  N_10
REMARK    4  A    between atoms: C_11  and  C_13
REMARK    5  A    between atoms: C_13  and  C_14
REMARK    6  A    between atoms: C_20  and  C_22
REMARK    7  A    between atoms: C_24  and  O_29
REMARK    8  A    between atoms: O_29  and  C_30
REMARK    9  A    between atoms: N_32  and  C_33
REMARK                            x       y       z     vdW  Elec       q    Type
REMARK                         _______ _______ _______ _____ _____    ______ ____
ROOT
ATOM     14  C   UNL     1      -0.859   1.868  24.332  0.00  0.00    +0.040 C 
ATOM     15  C   UNL     1      -0.065   2.057  24.453  0.00  0.00    +0.152 C 
ATOM     16  O   UNL     1       0.523   1.516  24.248  0.00  0.00    -0.223 OA
ATOM     17  C   UNL     1       0.140   2.786  24.778  0.00  0.00    +0.033 C 
ATOM     18  C   UNL     1      -0.448   3.327  24.984  0.00  0.00    +0.003 C 
ATOM     19  C   UNL     1      -1.242   3.138  24.862  0.00  0.00    +0.006 C 
ATOM     20  C   UNL     1      -1.830   3.679  25.068  0.00  0.00    +0.068 C 
ATOM     21  C   UNL     1      -1.160   4.107  25.286  0.00  0.00    +0.006 C 
ATOM     24  C   UNL     1      -2.625   3.490  24.947  0.00  0.00    +0.173 C 
ATOM     25  C   UNL     1      -2.830   2.761  24.621  0.00  0.00    +0.044 C 
ATOM     26  C   UNL     1      -2.241   2.220  24.416  0.00  0.00    +0.004 C 
ATOM     27  C   UNL     1      -1.448   2.409  24.537  0.00  0.00    +0.003 C 
ATOM     28  C   UNL     1      -1.654   1.679  24.211  0.00  0.00    +0.000 C 
ENDROOT
BRANCH  20  22
ATOM     22  C   UNL     1      -2.185   4.368  25.349  0.00  0.00    +0.185 C 
ATOM     23  O   UNL     1      -1.726   5.037  25.499  0.00  0.00    -0.220 OA
ENDBRANCH  20  22
BRANCH  14  13
ATOM     13  C   UNL     1      -1.065   1.138  24.006  0.00  0.00    +0.089 C 
BRANCH  13  11
ATOM     10  N   UNL     1      -1.636  -0.099  24.435  0.00  0.00    -0.200 NA
ATOM     11  C   UNL     1      -1.025   0.456  24.466  0.00  0.00    +0.242 C 
ATOM     12  O   UNL     1      -0.376   0.326  24.958  0.00  0.00    -0.273 OA
BRANCH  10   9
ATOM      9  C   UNL     1      -1.596  -0.783  24.896  0.00  0.00    +0.144 C 
BRANCH   9   8
ATOM      3  C   UNL     1      -2.264  -2.030  24.691  0.00  0.00    +0.136 A 
ATOM      4  C   UNL     1      -2.931  -2.505  24.781  0.00  0.00    +0.037 A 
ATOM      5  C   UNL     1      -3.600  -2.210  25.165  0.00  0.00    +0.003 A 
ATOM      6  C   UNL     1      -3.600  -1.440  25.458  0.00  0.00    -0.000 A 
ATOM      7  C   UNL     1      -2.933  -0.964  25.369  0.00  0.00    +0.000 A 
ATOM      8  C   UNL     1      -2.264  -1.259  24.985  0.00  0.00    +0.033 A 
BRANCH   3   2
ATOM      1  C   UNL     1      -1.600  -3.092  24.003  0.00  0.00    +0.252 C 
ATOM      2  O   UNL     1      -1.596  -2.324  24.307  0.00  0.00    -0.472 OA
ENDBRANCH   3   2
ENDBRANCH   9   8
ENDBRANCH  10   9
ENDBRANCH  13  11
ENDBRANCH  14  13
BRANCH  24  29
ATOM     29  O   UNL     1      -3.213   4.031  25.152  0.00  0.00    -0.437 OA
BRANCH  29  30
ATOM     30  C   UNL     1      -4.007   3.823  25.077  0.00  0.00    +0.421 C 
ATOM     31  O   UNL     1      -4.342   3.731  24.330  0.00  0.00    -0.225 OA
ATOM     32  N   UNL     1      -4.468   3.706  25.753  0.00  0.00    -0.170 NA
BRANCH  32  33
ATOM     33  C   UNL     1      -5.263   3.498  25.679  0.00  0.00    +0.099 C 
ATOM     34  C   UNL     1      -5.497   2.716  25.798  0.00  0.00    +0.024 C 
ATOM     35  C   UNL     1      -5.823   4.070  25.486  0.00  0.00    +0.024 C 
ENDBRANCH  32  33
ENDBRANCH  29  30
ENDBRANCH  24  29
TORSDOF 9
ENDMDL
MODEL 4
REMARK VINA RESULT:     -11.2      1.655      4.059
REMARK  Name = 
REMARK  9 active torsions:
REMARK  status: ('A' for Active; 'I' for Inactive)
REMARK    1  A    between atoms: O_2  and  C_3
REMARK    2  A    between atoms: C_8  and  C_9
REMARK    3  A    between atoms: C_9  and  N_10
REMARK    4  A    between atoms: C_11  and  C_13
REMARK    5  A    between atoms: C_13  and  C_14
REMARK    6  A    between atoms: C_20  and  C_22
REMARK    7  A    between atoms: C_24  and  O_29
REMARK    8  A    between atoms: O_29  and  C_30
REMARK    9  A    between atoms: N_32  and  C_33
REMARK                            x       y       z     vdW  Elec       q    Type
REMARK                         _______ _______ _______ _____ _____    ______ ____
ROOT
ATOM     14  C   UNL     1      -3.219  -1.250  25.052  0.00  0.00    +0.040 C 
ATOM     15  C   UNL     1      -3.264  -2.001  24.715  0.00  0.00    +0.152 C 
ATOM     16  O   UNL     1      -3.985  -2.403  24.699  0.00  0.00    -0.223 OA
ATOM     17  C   UNL     1      -2.590  -2.351  24.395  0.00  0.00    +0.033 C 
ATOM     18  C   UNL     1      -1.870  -1.950  24.410  0.00  0.00    +0.003 C 
ATOM     19  C   UNL     1      -1.824  -1.197  24.747  0.00  0.00    +0.006 C 
ATOM     20  C   UNL     1      -1.104  -0.796  24.763  0.00  0.00    +0.068 C 
ATOM     21  C   UNL     1      -0.871  -1.492  24.387  0.00  0.00    +0.006 C 
ATOM     24  C   UNL     1      -1.058  -0.044  25.100  0.00  0.00    +0.173 C 
ATOM     25  C   UNL     1      -1.732   0.306  25.420  0.00  0.00    +0.044 C 
ATOM     26  C   UNL     1      -2.453  -0.096  25.404  0.00  0.00    +0.004 C 
ATOM     27  C   UNL     1      -2.498  -0.848  25.067  0.00  0.00    +0.003 C 
ATOM     28  C   UNL     1      -3.174  -0.497  25.388  0.00  0.00    +0.000 C 
ENDROOT
BRANCH  20  22
ATOM     22  C   UNL     1      -0.302  -0.636  24.648  0.00  0.00    +0.185 C 
ATOM     23  O   UNL     1       0.156  -1.139  24.180  0.00  0.00    -0.220 OA
ENDBRANCH  20  22
BRANCH  14  13
ATOM     13  C   UNL     1      -3.894  -0.900  25.372  0.00  0.00    +0.089 C 
BRANCH  13  11
ATOM     10  N   UNL     1      -4.578   0.344  25.208  0.00  0.00    -0.200 NA
ATOM     11  C   UNL     1      -4.353  -0.393  24.912  0.00  0.00    +0.242 C 
ATOM     12  O   UNL     1      -4.589  -0.622  24.155  0.00  0.00    -0.273 OA
BRANCH  10   9
ATOM      9  C   UNL     1      -5.039   0.851  24.747  0.00  0.00    +0.144 C 
BRANCH   9   8
ATOM      3  C   UNL     1      -5.011   2.279  24.701  0.00  0.00    +0.136 A 
ATOM      4  C   UNL     1      -5.250   3.008  25.003  0.00  0.00    +0.037 A 
ATOM      5  C   UNL     1      -5.755   3.039  25.655  0.00  0.00    +0.003 A 
ATOM      6  C   UNL     1      -6.021   2.340  26.004  0.00  0.00    -0.000 A 
ATOM      7  C   UNL     1      -5.782   1.612  25.701  0.00  0.00    +0.000 A 
ATOM      8  C   UNL     1      -5.277   1.580  25.050  0.00  0.00    +0.033 A 
BRANCH   3   2
ATOM      1  C   UNL     1      -4.124   2.933  23.790  0.00  0.00    +0.252 C 
ATOM      2  O   UNL     1      -4.506   2.248  24.049  0.00  0.00    -0.472 OA
ENDBRANCH   3   2
ENDBRANCH   9   8
ENDBRANCH  10   9
ENDBRANCH  13  11
ENDBRANCH  14  13
BRANCH  24  29
ATOM     29  O   UNL     1      -0.337   0.358  25.115  0.00  0.00    -0.437 OA
BRANCH  29  30
ATOM     30  C   UNL     1      -0.305   1.134  25.393  0.00  0.00    +0.421 C 
ATOM     31  O   UNL     1      -0.517   1.303  26.171  0.00  0.00    -0.225 OA
ATOM     32  N   UNL     1      -0.059   1.741  24.890  0.00  0.00    -0.170 NA
BRANCH  32  33
ATOM     33  C   UNL     1      -0.026   2.518  25.167  0.00  0.00    +0.099 C 
ATOM     34  C   UNL     1      -0.458   3.109  24.787  0.00  0.00    +0.024 C 
ATOM     35  C   UNL     1       0.437   2.703  25.823  0.00  0.00    +0.024 C 
ENDBRANCH  32  33
ENDBRANCH  29  30
ENDBRANCH  24  29
TORSDOF 9
ENDMDL
MODEL 5
REMARK VINA RESULT:     -10.8      1.531      5.444
REMARK  Name = 
REMARK  9 active torsions:
REMARK  status: ('A' for Active; 'I' for Inactive)
REMARK    1  A    between atoms: O_2  and  C_3
REMARK    2  A    between atoms: C_8  and  C_9
REMARK    3  A    between atoms: C_9  and  N_10
REMARK    4  A    between atoms: C_11  and  C_13
REMARK    5  A    between atoms: C_13  and  C_14
REMARK    6  A    between atoms: C_20  and  C_22
REMARK    7  A    between atoms: C_24  and  O_29
REMARK    8  A    between atoms: O_29  and  C_30
REMARK    9  A    between atoms: N_32  and  C_33
REMARK                            x       y       z     vdW  Elec       q    Type
REMARK                         _______ _______ _______ _____ _____    ______ ____
ROOT
ATOM     14  C   UNL     1      -1.667  -1.217  25.183  0.00  0.00    +0.040 C 
ATOM     15  C   UNL     1      -1.410  -1.945  24.893  0.00  0.00    +0.152 C 
ATOM     16  O   UNL     1      -0.630  -2.186  25.017  0.00  0.00    -0.223 OA
ATOM     17  C   UNL     1      -1.931  -2.432  24.479  0.00  0.00    +0.033 C 
ATOM     18  C   UNL     1      -2.710  -2.191  24.354  0.00  0.00    +0.003 C 
ATOM     19  C   UNL     1      -2.968  -1.462  24.645  0.00  0.00    +0.006 C 
ATOM     20  C   UNL     1      -3.747  -1.222  24.520  0.00  0.00    +0.068 C 
ATOM     21  C   UNL     1      -3.761  -1.954  24.141  0.00  0.00    +0.006 C 
ATOM     24  C   UNL     1      -4.005  -0.493  24.811  0.00  0.00    +0.173 C 
ATOM     25  C   UNL     1      -3.484  -0.007  25.225  0.00  0.00    +0.044 C 
ATOM     26  C   UNL     1      -2.704  -0.248  25.349  0.00  0.00    +0.004 C 
ATOM     27  C   UNL     1      -2.447  -0.976  25.059  0.00  0.00    +0.003 C 
ATOM     28  C   UNL     1      -1.925  -0.489  25.474  0.00  0.00    +0.000 C 
ENDROOT
BRANCH  20  22
ATOM     22  C   UNL     1      -4.531  -1.236  24.264  0.00  0.00    +0.185 C 
ATOM     23  O   UNL     1      -4.807  -1.870  23.814  0.00  0.00    -0.220 OA
ENDBRANCH  20  22
BRANCH  14  13
ATOM     13  C   UNL     1      -1.146  -0.731  25.598  0.00  0.00    +0.089 C 
BRANCH  13  11
ATOM     10  N   UNL     1      -0.681   0.608  25.409  0.00  0.00    -0.200 NA
ATOM     11  C   UNL     1      -0.676  -0.189  25.191  0.00  0.00    +0.242 C 
ATOM     12  O   UNL     1      -0.200  -0.442  24.566  0.00  0.00    -0.273 OA
BRANCH  10   9
ATOM      9  C   UNL     1      -0.210   1.149  25.001  0.00  0.00    +0.144 C 
BRANCH   9   8
ATOM      3  C   UNL     1      -0.499   2.505  24.650  0.00  0.00    +0.136 A 
ATOM      4  C   UNL     1      -0.524   3.304  24.850  0.00  0.00    +0.037 A 
ATOM      5  C   UNL     1      -0.286   3.549  25.602  0.00  0.00    +0.003 A 
ATOM      6  C   UNL     1      -0.022   2.994  26.152  0.00  0.00    -0.000 A 
ATOM      7  C   UNL     1       0.003   2.195  25.952  0.00  0.00    +0.000 A 
ATOM      8  C   UNL     1      -0.235   1.949  25.201  0.00  0.00    +0.033 A 
BRANCH   3   2
ATOM      1  C   UNL     1      -1.250   2.730  23.455  0.00  0.00    +0.252 C 
ATOM      2  O   UNL     1      -0.738   2.259  23.900  0.00  0.00    -0.472 OA
ENDBRANCH   3   2
ENDBRANCH   9   8
ENDBRANCH  10   9
ENDBRANCH  13  11
ENDBRANCH  14  13
BRANCH  24  29
ATOM     29  O   UNL     1      -4.784  -0.253  24.686  0.00  0.00    -0.437 OA
BRANCH  29  30
ATOM     30  C   UNL     1      -5.044   0.469  24.987  0.00  0.00    +0.421 C 
ATOM     31  O   UNL     1      -5.105   0.579  25.802  0.00  0.00    -0.225 OA
ATOM     32  N   UNL     1      -5.244   1.083  24.472  0.00  0.00    -0.170 NA
BRANCH  32  33
ATOM     33  C   UNL     1      -5.505   1.806  24.773  0.00  0.00    +0.099 C 
ATOM     34  C   UNL     1      -6.256   1.866  25.108  0.00  0.00    +0.024 C 
ATOM     35  C   UNL     1      -5.015   2.468  24.739  0.00  0.00    +0.024 C 
ENDBRANCH  32  33
ENDBRANCH  29  30
ENDBRANCH  24  29
TORSDOF 9
ENDMDL
MODEL 6
REMARK VINA RESULT:     -10.8      1.590      4.280
REMARK  Name = 
REMARK  9 active torsions:
REMARK  status: ('A' for Active; 'I' for Inactive)
REMARK    1  A    between atoms: O_2  and  C_3
REMARK    2  A    between atoms: C_8  and  C_9
REMARK    3  A    between atoms: C_9  and  N_10
REMARK    4  A    between atoms: C_11  and  C_13
REMARK    5  A    between atoms: C_13  and  C_14
REMARK    6  A    between atoms: C_20  and  C_22
REMARK    7  A    between atoms: C_24  and  O_29
REMARK    8  A    between atoms: O_29  and  C_30
REMARK    9  A    between atoms: N_32  and  C_33
REMARK                            x       y       z     vdW  Elec       q    Type
REMARK                         _______ _______ _______ _____ _____    ______ ____
ROOT
ATOM     14  C   UNL     1      -1.098   2.635  25.071  0.00  0.00    +0.040 C 
ATOM     15  C   UNL     1      -0.649   3.228  24.715  0.00  0.00    +0.152 C 
ATOM     16  O   UNL     1      -0.809   4.021  24.877  0.00  0.00    -0.223 OA
ATOM     17  C   UNL     1      -0.040   3.028  24.197  0.00  0.00    +0.033 C 
ATOM     18  C   UNL     1       0.121   2.236  24.034  0.00  0.00    +0.003 C 
ATOM     19  C   UNL     1      -0.329   1.642  24.391  0.00  0.00    +0.006 C 
ATOM     20  C   UNL     1      -0.168   0.850  24.228  0.00  0.00    +0.068 C 
ATOM     21  C   UNL     1       0.406   1.211  23.758  0.00  0.00    +0.006 C 
ATOM     24  C   UNL     1      -0.618   0.256  24.584  0.00  0.00    +0.173 C 
ATOM     25  C   UNL     1      -1.227   0.456  25.103  0.00  0.00    +0.044 C 
ATOM     26  C   UNL     1      -1.387   1.249  25.265  0.00  0.00    +0.004 C 
ATOM     27  C   UNL     1      -0.938   1.842  24.909  0.00  0.00    +0.003 C 
ATOM     28  C   UNL     1      -1.548   2.042  25.428  0.00  0.00    +0.000 C 
ENDROOT
BRANCH  20  22
ATOM     22  C   UNL     1       0.192   0.183  23.902  0.00  0.00    +0.185 C 
ATOM     23  O   UNL     1       0.793   0.269  23.343  0.00  0.00    -0.220 OA
ENDBRANCH  20  22
BRANCH  14  13
ATOM     13  C   UNL     1      -1.708   2.835  25.590  0.00  0.00    +0.089 C 
BRANCH  13  11
ATOM     10  N   UNL     1      -3.125   2.816  25.404  0.00  0.00    -0.200 NA
ATOM     11  C   UNL     1      -2.395   3.188  25.302  0.00  0.00    +0.242 C 
ATOM     12  O   UNL     1      -2.353   3.915  24.912  0.00  0.00    -0.273 OA
BRANCH  10   9
ATOM      9  C   UNL     1      -3.812   3.170  25.115  0.00  0.00    +0.144 C 
BRANCH   9   8
ATOM      3  C   UNL     1      -5.218   3.155  25.374  0.00  0.00    +0.136 A 
ATOM      4  C   UNL     1      -5.934   2.748  25.403  0.00  0.00    +0.037 A 
ATOM      5  C   UNL     1      -5.962   1.948  25.202  0.00  0.00    +0.003 A 
ATOM      6  C   UNL     1      -5.274   1.556  24.972  0.00  0.00    -0.000 A 
ATOM      7  C   UNL     1      -4.558   1.963  24.943  0.00  0.00    +0.000 A 
ATOM      8  C   UNL     1      -4.529   2.763  25.144  0.00  0.00    +0.033 A 
BRANCH   3   2
ATOM      1  C   UNL     1      -5.887   4.391  25.630  0.00  0.00    +0.252 C 
ATOM      2  O   UNL     1      -5.189   3.955  25.575  0.00  0.00    -0.472 OA
ENDBRANCH   3   2
ENDBRANCH   9   8
ENDBRANCH  10   9
ENDBRANCH  13  11
ENDBRANCH  14  13
BRANCH  24  29
ATOM     29  O   UNL     1      -0.457  -0.536  24.422  0.00  0.00    -0.437 OA
BRANCH  29  30
ATOM     30  C   UNL     1      -0.940  -1.127  24.735  0.00  0.00    +0.421 C 
ATOM     31  O   UNL     1      -0.923  -1.289  25.542  0.00  0.00    -0.225 OA
ATOM     32  N   UNL     1      -1.442  -1.555  24.238  0.00  0.00    -0.170 NA
BRANCH  32  33
ATOM     33  C   UNL     1      -1.926  -2.146  24.551  0.00  0.00    +0.099 C 
ATOM     34  C   UNL     1      -1.609  -2.887  24.730  0.00  0.00    +0.024 C 
ATOM     35  C   UNL     1      -2.725  -1.997  24.684  0.00  0.00    +0.024 C 
ENDBRANCH  32  33
ENDBRANCH  29  30
ENDBRANCH  24  29
TORSDOF 9
ENDMDL
MODEL 7
REMARK VINA RESULT:     -10.7      1.537      4.376
REMARK  Name = 
REMARK  9 active torsions:
REMARK  status: ('A' for Active; 'I' for Inactive)
REMARK    1  A    between atoms: O_2  and  C_3
REMARK    2  A    between atoms: C_8  and  C_9
REMARK    3  A    between atoms: C_9  and  N_10
REMARK    4  A    between atoms: C_11  and  C_13
REMARK    5  A    between atoms: C_13  and  C_14
REMARK    6  A    between atoms: C_20  and  C_22
REMARK    7  A    between atoms: C_24  and  O_29
REMARK    8  A    between atoms: O_29  and  C_30
REMARK    9  A    between atoms: N_32  and  C_33
REMARK                            x       y       z     vdW  Elec       q    Type
REMARK                         _______ _______ _______ _____ _____    ______ ____
ROOT
ATOM     14  C   UNL     1      -4.395   1.895  24.590  0.00  0.00    +0.040 C 
ATOM     15  C   UNL     1      -5.190   1.880  24.808  0.00  0.00    +0.152 C 
ATOM     16  O   UNL     1      -5.627   2.580  24.824  0.00  0.00    -0.223 OA
ATOM     17  C   UNL     1      -5.548   1.166  25.012  0.00  0.00    +0.033 C 
ATOM     18  C   UNL     1      -5.112   0.466  24.997  0.00  0.00    +0.003 C 
ATOM     19  C   UNL     1      -4.316   0.481  24.778  0.00  0.00    +0.006 C 
ATOM     20  C   UNL     1      -3.880  -0.219  24.763  0.00  0.00    +0.068 C 
ATOM     21  C   UNL     1      -4.612  -0.512  25.006  0.00  0.00    +0.006 C 
ATOM     24  C   UNL     1      -3.084  -0.204  24.544  0.00  0.00    +0.173 C 
ATOM     25  C   UNL     1      -2.726   0.509  24.340  0.00  0.00    +0.044 C 
ATOM     26  C   UNL     1      -3.163   1.210  24.356  0.00  0.00    +0.004 C 
ATOM     27  C   UNL     1      -3.958   1.195  24.574  0.00  0.00    +0.003 C 
ATOM     28  C   UNL     1      -3.599   1.910  24.370  0.00  0.00    +0.000 C 
ENDROOT
BRANCH  20  22
ATOM     22  C   UNL     1      -3.698  -1.021  24.832  0.00  0.00    +0.185 C 
ATOM     23  O   UNL     1      -4.303  -1.582  24.849  0.00  0.00    -0.220 OA
ENDBRANCH  20  22
BRANCH  14  13
ATOM     13  C   UNL     1      -4.036   2.609  24.386  0.00  0.00    +0.089 C 
BRANCH  13  11
ATOM     10  N   UNL     1      -2.960   3.435  24.835  0.00  0.00    -0.200 NA
ATOM     11  C   UNL     1      -3.693   3.079  24.970  0.00  0.00    +0.242 C 
ATOM     12  O   UNL     1      -4.081   3.195  25.689  0.00  0.00    -0.273 OA
BRANCH  10   9
ATOM      9  C   UNL     1      -2.616   3.905  25.420  0.00  0.00    +0.144 C 
BRANCH   9   8
ATOM      3  C   UNL     1      -1.195   4.061  25.453  0.00  0.00    +0.136 A 
ATOM      4  C   UNL     1      -0.522   4.504  25.282  0.00  0.00    +0.037 A 
ATOM      5  C   UNL     1      -0.593   5.235  24.906  0.00  0.00    +0.003 A 
ATOM      6  C   UNL     1      -1.339   5.522  24.702  0.00  0.00    -0.000 A 
ATOM      7  C   UNL     1      -2.013   5.080  24.873  0.00  0.00    +0.000 A 
ATOM      8  C   UNL     1      -1.942   4.349  25.249  0.00  0.00    +0.033 A 
BRANCH   3   2
ATOM      1  C   UNL     1      -0.377   3.009  25.968  0.00  0.00    +0.252 C 
ATOM      2  O   UNL     1      -1.125   3.330  25.829  0.00  0.00    -0.472 OA
ENDBRANCH   3   2
ENDBRANCH   9   8
ENDBRANCH  10   9
ENDBRANCH  13  11
ENDBRANCH  14  13
BRANCH  24  29
ATOM     29  O   UNL     1      -2.648  -0.904  24.529  0.00  0.00    -0.437 OA
BRANCH  29  30
ATOM     30  C   UNL     1      -1.845  -0.893  24.717  0.00  0.00    +0.421 C 
ATOM     31  O   UNL     1      -1.585  -0.500  25.393  0.00  0.00    -0.225 OA
ATOM     32  N   UNL     1      -1.302  -1.275  24.227  0.00  0.00    -0.170 NA
BRANCH  32  33
ATOM     33  C   UNL     1      -0.498  -1.264  24.415  0.00  0.00    +0.099 C 
ATOM     34  C   UNL     1      -0.207  -1.756  25.010  0.00  0.00    +0.024 C 
ATOM     35  C   UNL     1       0.014  -0.762  24.008  0.00  0.00    +0.024 C 
ENDBRANCH  32  33
ENDBRANCH  29  30
ENDBRANCH  24  29
TORSDOF 9
ENDMDL
