REMARK  Name = 
REMARK  4 active torsions:
REMARK  status: ('A' for Active; 'I' for Inactive)
REMARK    1  A    between atoms: C_5  and  C_8
REMARK    2  A    between atoms: C_17  and  N_18
REMARK    3  A    between atoms: C_19  and  C_21
REMARK    4  A    between atoms: C_24  and  C_27
REMARK                            x       y       z     vdW  Elec       q    Type
REMARK                         _______ _______ _______ _____ _____    ______ ____
ROOT
ATOM      8  C   UNL     1       0.167  -2.701   0.000  0.00  0.00    +0.249 C 
ATOM      9  O   UNL     1       0.390  -3.562   0.000  0.00  0.00    -0.270 OA
ATOM     10  N   UNL     1       0.813  -2.091   0.000  0.00  0.00    -0.276 N 
ATOM     11  C   UNL     1       1.629  -1.912   0.000  0.00  0.00    +0.096 C 
ATOM     12  C   UNL     1       1.582  -0.925   0.000  0.00  0.00    +0.043 C 
ATOM     13  C   UNL     1       1.713  -0.121   0.000  0.00  0.00    +0.011 C 
ATOM     14  C   UNL     1       1.163  -0.557   0.000  0.00  0.00    +0.060 C 
ATOM     15  C   UNL     1       1.225  -1.510   0.000  0.00  0.00    +0.100 C 
ATOM     16  C   UNL     1       0.244  -0.558   0.000  0.00  0.00    +0.056 A 
ATOM     17  C   UNL     1      -0.397  -0.039   0.000  0.00  0.00    +0.086 A 
ATOM     29  C   UNL     1      -1.167  -0.335   0.000  0.00  0.00    +0.023 A 
ATOM     30  C   UNL     1      -1.296  -1.150   0.000  0.00  0.00    +0.062 A 
ATOM     31  C   UNL     1      -0.655  -1.669   0.000  0.00  0.00    +0.261 A 
ATOM     32  O   UNL     1      -0.731  -2.720   0.000  0.00  0.00    -0.267 OA
ATOM     33  N   UNL     1       0.115  -1.373   0.000  0.00  0.00    -0.298 N 
ATOM     34  C   UNL     1       0.622  -0.936   0.000  0.00  0.00    +0.110 C 
ENDROOT
BRANCH   8   5
ATOM      1  F   UNL     1      -2.829  -1.076   0.000  0.00  0.00    -0.204 F 
ATOM      2  C   UNL     1      -2.091  -1.444   0.000  0.00  0.00    +0.140 A 
ATOM      3  C   UNL     1      -1.485  -0.905   0.000  0.00  0.00    +0.030 A 
ATOM      4  C   UNL     1      -0.664  -1.356   0.000  0.00  0.00    +0.007 A 
ATOM      5  C   UNL     1      -0.614  -2.179   0.000  0.00  0.00    +0.054 A 
ATOM      6  C   UNL     1      -1.301  -2.635   0.000  0.00  0.00    +0.007 A 
ATOM      7  C   UNL     1      -2.040  -2.267   0.000  0.00  0.00    +0.030 A 
ENDBRANCH   8   5
BRANCH  17  18
ATOM     18  N   UNL     1      -0.318   0.822   0.000  0.00  0.00    -0.174 NA
ATOM     19  C   UNL     1      -1.037   1.294   0.000  0.00  0.00    +0.269 C 
ATOM     20  O   UNL     1      -1.885   1.377   0.000  0.00  0.00    -0.268 OA
BRANCH  19  21
ATOM     21  C   UNL     1      -0.780   2.110   0.000  0.00  0.00    +0.055 A 
ATOM     22  C   UNL     1      -1.421   2.629   0.000  0.00  0.00    +0.005 A 
ATOM     23  C   UNL     1      -1.292   3.444   0.000  0.00  0.00    +0.010 A 
ATOM     24  C   UNL     1      -0.522   3.740   0.000  0.00  0.00    +0.068 A 
ATOM     25  C   UNL     1       0.119   3.220   0.000  0.00  0.00    +0.010 A 
ATOM     26  C   UNL     1      -0.010   2.406   0.000  0.00  0.00    +0.005 A 
BRANCH  24  27
ATOM     27  C   UNL     1      -0.393   4.554   0.000  0.00  0.00    +0.100 C 
ATOM     28  N   UNL     1      -0.264   5.369   0.000  0.00  0.00    -0.191 NA
ENDBRANCH  24  27
ENDBRANCH  19  21
ENDBRANCH  17  18
TORSDOF 4
