REMARK  Name = 
REMARK  4 active torsions:
REMARK  status: ('A' for Active; 'I' for Inactive)
REMARK    1  A    between atoms: C_7  and  C_8
REMARK    2  A    between atoms: N_10  and  C_11
REMARK    3  A    between atoms: C_14  and  C_17
REMARK    4  A    between atoms: C_24  and  C_25
REMARK                            x       y       z     vdW  Elec       q    Type
REMARK                         _______ _______ _______ _____ _____    ______ ____
ROOT
ATOM     11  C   UNL     1      -1.421  -5.477   0.000  0.00  0.00    +0.074 A 
ATOM     12  C   UNL     1      -2.034  -6.029   0.000  0.00  0.00    +0.016 A 
ATOM     13  C   UNL     1      -2.819  -5.774   0.000  0.00  0.00    -0.001 A 
ATOM     14  C   UNL     1      -2.990  -4.967   0.000  0.00  0.00    +0.006 A 
ATOM     15  C   UNL     1      -2.377  -4.415   0.000  0.00  0.00    -0.001 A 
ATOM     16  C   UNL     1      -1.592  -4.670   0.000  0.00  0.00    +0.016 A 
ENDROOT
BRANCH  14  17
ATOM     17  C   UNL     1      -3.775  -4.712   0.000  0.00  0.00    +0.159 C 
ATOM     18  O   UNL     1      -4.388  -5.264   0.000  0.00  0.00    -0.341 OA
ATOM     19  C   UNL     1      -5.172  -5.009   0.000  0.00  0.00    +0.227 C 
ATOM     20  C   UNL     1      -5.344  -4.202   0.000  0.00  0.00    +0.256 C 
ATOM     21  O   UNL     1      -6.129  -3.947   0.000  0.00  0.00    -0.272 OA
ATOM     22  N   UNL     1      -4.731  -3.650   0.000  0.00  0.00    -0.272 N 
ATOM     23  C   UNL     1      -4.902  -2.843   0.000  0.00  0.00    +0.115 C 
ATOM     24  C   UNL     1      -3.946  -3.905   0.000  0.00  0.00    +0.140 C 
BRANCH  24  25
ATOM     25  C   UNL     1      -3.333  -3.353   0.000  0.00  0.00    +0.205 C 
ATOM     26  O   UNL     1      -2.549  -3.608   0.000  0.00  0.00    -0.218 OA
ENDBRANCH  24  25
ENDBRANCH  14  17
BRANCH  11  10
ATOM      8  C   UNL     1      -0.023  -5.180   0.000  0.00  0.00    +0.286 C 
ATOM      9  O   UNL     1      -0.195  -4.373   0.000  0.00  0.00    -0.266 OA
ATOM     10  N   UNL     1      -0.636  -5.732   0.000  0.00  0.00    -0.174 NA
BRANCH   8   7
ATOM      1  C   UNL     1       1.429  -4.125   0.000  0.00  0.00    +0.154 C 
ATOM      2  N   UNL     1       1.429  -4.950   0.000  0.00  0.00    -0.245 N 
ATOM      3  N   UNL     1       2.096  -5.435   0.000  0.00  0.00    -0.173 NA
ATOM      4  C   UNL     1       1.841  -6.220   0.000  0.00  0.00    +0.081 A 
ATOM      5  C   UNL     1       2.326  -6.887   0.000  0.00  0.00    +0.054 C 
ATOM      6  C   UNL     1       1.016  -6.220   0.000  0.00  0.00    +0.040 A 
ATOM      7  C   UNL     1       0.761  -5.435   0.000  0.00  0.00    +0.134 A 
ENDBRANCH   8   7
ENDBRANCH  11  10
TORSDOF 4
