REMARK  Name = 
REMARK  8 active torsions:
REMARK  status: ('A' for Active; 'I' for Inactive)
REMARK    1  A    between atoms: O_2  and  C_3
REMARK    2  A    between atoms: C_6  and  C_9
REMARK    3  A    between atoms: N_11  and  C_12
REMARK    4  A    between atoms: C_19  and  C_20
REMARK    5  A    between atoms: C_20  and  C_22
REMARK    6  A    between atoms: N_24  and  C_25
REMARK    7  A    between atoms: C_25  and  C_26
REMARK    8  A    between atoms: C_26  and  N_27
REMARK                            x       y       z     vdW  Elec       q    Type
REMARK                         _______ _______ _______ _____ _____    ______ ____
ROOT
ATOM     12  C   UNL     1      -1.429  -0.825   0.000  0.00  0.00    +0.096 C 
ATOM     13  C   UNL     1      -2.143  -0.412   0.000  0.00  0.00    +0.022 C 
ATOM     14  C   UNL     1      -2.143   0.412   0.000  0.00  0.00    +0.002 C 
ATOM     15  C   UNL     1      -1.429   0.825   0.000  0.00  0.00    +0.002 C 
ATOM     16  C   UNL     1      -2.143   1.238   0.000  0.00  0.00    +0.000 C 
ATOM     17  C   UNL     1      -1.429   1.650   0.000  0.00  0.00    +0.000 C 
ATOM     18  C   UNL     1      -0.715   2.062   0.000  0.00  0.00    +0.003 C 
ATOM     19  C   UNL     1       0.000   1.650   0.000  0.00  0.00    +0.039 C 
ATOM     33  C   UNL     1       0.000   0.825   0.000  0.00  0.00    +0.152 C 
ATOM     34  O   UNL     1       0.715   0.412   0.000  0.00  0.00    -0.223 OA
ATOM     35  C   UNL     1      -0.715   0.412   0.000  0.00  0.00    +0.032 C 
ATOM     36  C   UNL     1      -0.715  -0.412   0.000  0.00  0.00    +0.022 C 
ATOM     37  C   UNL     1       0.000  -0.825   0.000  0.00  0.00    +0.002 C 
ENDROOT
BRANCH  12  11
ATOM      9  C   UNL     1      -2.143  -2.062   0.000  0.00  0.00    +0.265 C 
ATOM     10  O   UNL     1      -2.858  -1.650   0.000  0.00  0.00    -0.268 OA
ATOM     11  N   UNL     1      -1.429  -1.650   0.000  0.00  0.00    -0.203 NA
BRANCH   9   6
ATOM      3  C   UNL     1      -2.143  -4.537   0.000  0.00  0.00    +0.139 A 
ATOM      4  C   UNL     1      -2.858  -4.125   0.000  0.00  0.00    +0.037 A 
ATOM      5  C   UNL     1      -2.858  -3.300   0.000  0.00  0.00    +0.008 A 
ATOM      6  C   UNL     1      -2.143  -2.888   0.000  0.00  0.00    +0.055 A 
ATOM      7  C   UNL     1      -1.429  -3.300   0.000  0.00  0.00    +0.008 A 
ATOM      8  C   UNL     1      -1.429  -4.125   0.000  0.00  0.00    +0.037 A 
BRANCH   3   2
ATOM      1  C   UNL     1      -1.429  -5.775   0.000  0.00  0.00    +0.252 C 
ATOM      2  O   UNL     1      -2.143  -5.362   0.000  0.00  0.00    -0.471 OA
ENDBRANCH   3   2
ENDBRANCH   9   6
ENDBRANCH  12  11
BRANCH  19  20
ATOM     20  C   UNL     1       0.715   2.062   0.000  0.00  0.00    +0.081 C 
ATOM     21  C   UNL     1       0.715   2.888   0.000  0.00  0.00    +0.010 C 
BRANCH  20  22
ATOM     22  C   UNL     1       1.429   1.650   0.000  0.00  0.00    +0.241 C 
ATOM     23  O   UNL     1       1.429   0.825   0.000  0.00  0.00    -0.273 OA
ATOM     24  N   UNL     1       2.143   2.062   0.000  0.00  0.00    -0.204 NA
BRANCH  24  25
ATOM     25  C   UNL     1       2.858   1.650   0.000  0.00  0.00    +0.132 C 
BRANCH  25  26
ATOM     26  C   UNL     1       3.572   2.062   0.000  0.00  0.00    +0.096 C 
BRANCH  26  27
ATOM     27  N   UNL     1       4.287   1.650   0.000  0.00  0.00    -0.267 NA
ATOM     28  C   UNL     1       5.001   2.062   0.000  0.00  0.00    +0.105 C 
ATOM     29  C   UNL     1       5.716   1.650   0.000  0.00  0.00    +0.159 C 
ATOM     30  O   UNL     1       5.716   0.825   0.000  0.00  0.00    -0.351 OA
ATOM     31  C   UNL     1       5.001   0.412   0.000  0.00  0.00    +0.159 C 
ATOM     32  C   UNL     1       4.287   0.825   0.000  0.00  0.00    +0.105 C 
ENDBRANCH  26  27
ENDBRANCH  25  26
ENDBRANCH  24  25
ENDBRANCH  20  22
ENDBRANCH  19  20
TORSDOF 8
