MODEL 1
REMARK VINA RESULT:     -10.6      0.000      0.000
REMARK  Name = 
REMARK  4 active torsions:
REMARK  status: ('A' for Active; 'I' for Inactive)
REMARK    1  A    between atoms: C_3  and  C_4
REMARK    2  A    between atoms: C_6  and  C_11
REMARK    3  A    between atoms: C_14  and  N_15
REMARK    4  A    between atoms: C_16  and  C_18
REMARK                            x       y       z     vdW  Elec       q    Type
REMARK                         _______ _______ _______ _____ _____    ______ ____
ROOT
ATOM     11  C   UNL     1      -3.328   1.582  24.539  0.00  0.00    +0.006 A 
ATOM     12  C   UNL     1      -3.785   1.181  25.098  0.00  0.00    -0.001 A 
ATOM     13  C   UNL     1      -4.006   0.398  24.964  0.00  0.00    +0.016 A 
ATOM     14  C   UNL     1      -3.772   0.016  24.272  0.00  0.00    +0.073 A 
ATOM     22  C   UNL     1      -3.316   0.416  23.713  0.00  0.00    +0.016 A 
ATOM     23  C   UNL     1      -3.094   1.200  23.848  0.00  0.00    -0.001 A 
ENDROOT
BRANCH  11   6
ATOM      1  C   UNL     1      -1.385   3.492  25.402  0.00  0.00    +0.115 C 
ATOM      2  N   UNL     1      -2.136   3.320  25.104  0.00  0.00    -0.272 N 
ATOM      3  C   UNL     1      -2.356   2.537  24.970  0.00  0.00    +0.140 C 
ATOM      6  C   UNL     1      -3.107   2.365  24.673  0.00  0.00    +0.159 C 
ATOM      7  O   UNL     1      -3.636   2.976  24.511  0.00  0.00    -0.341 OA
ATOM      8  C   UNL     1      -3.415   3.760  24.645  0.00  0.00    +0.227 C 
ATOM      9  C   UNL     1      -2.665   3.932  24.942  0.00  0.00    +0.256 C 
ATOM     10  O   UNL     1      -2.445   4.716  25.076  0.00  0.00    -0.272 OA
BRANCH   3   4
ATOM      4  C   UNL     1      -1.828   1.926  25.133  0.00  0.00    +0.205 C 
ATOM      5  O   UNL     1      -1.224   2.038  25.684  0.00  0.00    -0.218 OA
ENDBRANCH   3   4
ENDBRANCH  11   6
BRANCH  14  15
ATOM     15  N   UNL     1      -3.994  -0.768  24.138  0.00  0.00    -0.179 NA
ATOM     16  C   UNL     1      -3.529  -1.384  24.429  0.00  0.00    +0.245 C 
ATOM     17  O   UNL     1      -2.842  -1.216  24.855  0.00  0.00    -0.273 OA
BRANCH  16  18
ATOM     18  C   UNL     1      -3.750  -2.167  24.295  0.00  0.00    +0.071 C 
ATOM     19  C   UNL     1      -3.972  -2.951  24.161  0.00  0.00    +0.009 C 
ATOM     20  C   UNL     1      -3.170  -2.422  24.823  0.00  0.00    +0.009 C 
ATOM     21  C   UNL     1      -4.331  -1.912  23.768  0.00  0.00    +0.009 C 
ENDBRANCH  16  18
ENDBRANCH  14  15
TORSDOF 4
ENDMDL
MODEL 2
REMARK VINA RESULT:     -10.2      1.333      4.602
REMARK  Name = 
REMARK  4 active torsions:
REMARK  status: ('A' for Active; 'I' for Inactive)
REMARK    1  A    between atoms: C_3  and  C_4
REMARK    2  A    between atoms: C_6  and  C_11
REMARK    3  A    between atoms: C_14  and  N_15
REMARK    4  A    between atoms: C_16  and  C_18
REMARK                            x       y       z     vdW  Elec       q    Type
REMARK                         _______ _______ _______ _____ _____    ______ ____
ROOT
ATOM     11  C   UNL     1      -3.980  -0.124  24.414  0.00  0.00    +0.006 A 
ATOM     12  C   UNL     1      -4.465   0.160  25.018  0.00  0.00    -0.001 A 
ATOM     13  C   UNL     1      -4.624   0.968  25.073  0.00  0.00    +0.016 A 
ATOM     14  C   UNL     1      -4.298   1.490  24.525  0.00  0.00    +0.073 A 
ATOM     22  C   UNL     1      -3.813   1.206  23.921  0.00  0.00    +0.016 A 
ATOM     23  C   UNL     1      -3.654   0.398  23.866  0.00  0.00    -0.001 A 
ENDROOT
BRANCH  11   6
ATOM      1  C   UNL     1      -2.246  -2.345  24.897  0.00  0.00    +0.115 C 
ATOM      2  N   UNL     1      -2.955  -2.042  24.600  0.00  0.00    -0.272 N 
ATOM      3  C   UNL     1      -3.113  -1.235  24.655  0.00  0.00    +0.140 C 
ATOM      6  C   UNL     1      -3.821  -0.932  24.359  0.00  0.00    +0.159 C 
ATOM      7  O   UNL     1      -4.371  -1.436  24.008  0.00  0.00    -0.341 OA
ATOM      8  C   UNL     1      -4.213  -2.245  23.953  0.00  0.00    +0.227 C 
ATOM      9  C   UNL     1      -3.505  -2.548  24.249  0.00  0.00    +0.256 C 
ATOM     10  O   UNL     1      -3.348  -3.356  24.194  0.00  0.00    -0.272 OA
BRANCH   3   4
ATOM      4  C   UNL     1      -2.564  -0.730  25.006  0.00  0.00    +0.205 C 
ATOM      5  O   UNL     1      -2.053  -1.015  25.588  0.00  0.00    -0.218 OA
ENDBRANCH   3   4
ENDBRANCH  11   6
BRANCH  14  15
ATOM     15  N   UNL     1      -4.457   2.299  24.580  0.00  0.00    -0.179 NA
ATOM     16  C   UNL     1      -3.959   2.788  25.019  0.00  0.00    +0.245 C 
ATOM     17  O   UNL     1      -3.302   2.469  25.403  0.00  0.00    -0.273 OA
BRANCH  16  18
ATOM     18  C   UNL     1      -4.118   3.595  25.074  0.00  0.00    +0.071 C 
ATOM     19  C   UNL     1      -4.277   4.404  25.129  0.00  0.00    +0.009 C 
ATOM     20  C   UNL     1      -3.430   3.760  24.650  0.00  0.00    +0.009 C 
ATOM     21  C   UNL     1      -4.806   3.432  25.498  0.00  0.00    +0.009 C 
ENDBRANCH  16  18
ENDBRANCH  14  15
TORSDOF 4
ENDMDL
MODEL 3
REMARK VINA RESULT:     -10.1      1.051      4.622
REMARK  Name = 
REMARK  4 active torsions:
REMARK  status: ('A' for Active; 'I' for Inactive)
REMARK    1  A    between atoms: C_3  and  C_4
REMARK    2  A    between atoms: C_6  and  C_11
REMARK    3  A    between atoms: C_14  and  N_15
REMARK    4  A    between atoms: C_16  and  C_18
REMARK                            x       y       z     vdW  Elec       q    Type
REMARK                         _______ _______ _______ _____ _____    ______ ____
ROOT
ATOM     11  C   UNL     1      -3.106   0.678  24.385  0.00  0.00    +0.006 A 
ATOM     12  C   UNL     1      -3.450   1.149  24.970  0.00  0.00    -0.001 A 
ATOM     13  C   UNL     1      -3.243   1.945  25.032  0.00  0.00    +0.016 A 
ATOM     14  C   UNL     1      -2.693   2.270  24.511  0.00  0.00    +0.073 A 
ATOM     22  C   UNL     1      -2.350   1.799  23.927  0.00  0.00    +0.016 A 
ATOM     23  C   UNL     1      -2.557   1.002  23.864  0.00  0.00    -0.001 A 
ENDROOT
BRANCH  11   6
ATOM      1  C   UNL     1      -2.536  -2.076  24.896  0.00  0.00    +0.115 C 
ATOM      2  N   UNL     1      -3.029  -1.494  24.579  0.00  0.00    -0.272 N 
ATOM      3  C   UNL     1      -2.821  -0.699  24.641  0.00  0.00    +0.140 C 
ATOM      6  C   UNL     1      -3.314  -0.118  24.324  0.00  0.00    +0.159 C 
ATOM      7  O   UNL     1      -4.014  -0.333  23.945  0.00  0.00    -0.341 OA
ATOM      8  C   UNL     1      -4.222  -1.129  23.883  0.00  0.00    +0.227 C 
ATOM      9  C   UNL     1      -3.730  -1.710  24.200  0.00  0.00    +0.256 C 
ATOM     10  O   UNL     1      -3.938  -2.506  24.137  0.00  0.00    -0.272 OA
BRANCH   3   4
ATOM      4  C   UNL     1      -2.121  -0.484  25.019  0.00  0.00    +0.205 C 
ATOM      5  O   UNL     1      -1.814  -0.958  25.621  0.00  0.00    -0.218 OA
ENDBRANCH   3   4
ENDBRANCH  11   6
BRANCH  14  15
ATOM     15  N   UNL     1      -2.486   3.067  24.573  0.00  0.00    -0.179 NA
ATOM     16  C   UNL     1      -1.909   3.302  25.113  0.00  0.00    +0.245 C 
ATOM     17  O   UNL     1      -1.539   2.740  25.592  0.00  0.00    -0.273 OA
BRANCH  16  18
ATOM     18  C   UNL     1      -1.702   4.098  25.175  0.00  0.00    +0.071 C 
ATOM     19  C   UNL     1      -1.495   4.894  25.237  0.00  0.00    +0.009 C 
ATOM     20  C   UNL     1      -0.972   3.935  24.827  0.00  0.00    +0.009 C 
ATOM     21  C   UNL     1      -2.432   4.261  25.523  0.00  0.00    +0.009 C 
ENDBRANCH  16  18
ENDBRANCH  14  15
TORSDOF 4
ENDMDL
