MODEL 1
REMARK VINA RESULT:     -11.1      0.000      0.000
REMARK  Name = 
REMARK  9 active torsions:
REMARK  status: ('A' for Active; 'I' for Inactive)
REMARK    1  A    between atoms: O_2  and  C_3
REMARK    2  A    between atoms: C_3  and  C_4
REMARK    3  A    between atoms: C_4  and  N_5
REMARK    4  A    between atoms: N_5  and  C_6
REMARK    5  A    between atoms: C_7  and  C_12
REMARK    6  A    between atoms: C_15  and  C_17
REMARK    7  A    between atoms: N_21  and  C_22
REMARK    8  A    between atoms: C_22  and  C_23
REMARK    9  A    between atoms: C_27  and  C_29
REMARK                            x       y       z     vdW  Elec       q    Type
REMARK                         _______ _______ _______ _____ _____    ______ ____
ROOT
ATOM     12  C   UNL     1      -2.862   3.267  24.547  0.00  0.00    +0.206 A 
ATOM     13  N   UNL     1      -3.194   3.214  23.793  0.00  0.00    -0.056 NA
ATOM     14  O   UNL     1      -3.849   2.713  23.838  0.00  0.00    -0.336 OA
ATOM     15  C   UNL     1      -3.922   2.458  24.619  0.00  0.00    +0.251 A 
ATOM     16  N   UNL     1      -3.312   2.800  25.057  0.00  0.00    -0.190 NA
ENDROOT
BRANCH  12   7
ATOM      6  C   UNL     1      -1.443   3.389  24.660  0.00  0.00    +0.151 A 
ATOM      7  C   UNL     1      -2.197   3.710  24.754  0.00  0.00    +0.072 A 
ATOM      8  C   UNL     1      -2.288   4.472  25.054  0.00  0.00    +0.008 A 
ATOM      9  C   UNL     1      -1.623   4.915  25.261  0.00  0.00    +0.021 A 
ATOM     10  C   UNL     1      -0.868   4.596  25.168  0.00  0.00    +0.100 A 
ATOM     11  N   UNL     1      -0.778   3.832  24.867  0.00  0.00    -0.228 NA
BRANCH   6   5
ATOM      5  N   UNL     1      -1.353   2.627  24.360  0.00  0.00    -0.218 NA
BRANCH   5   4
ATOM      4  C   UNL     1      -0.621   2.249  24.404  0.00  0.00    +0.146 C 
BRANCH   4   3
ATOM      3  C   UNL     1      -0.488   1.555  23.979  0.00  0.00    +0.166 C 
BRANCH   3   2
ATOM      1  C   UNL     1      -0.108   0.178  23.946  0.00  0.00    +0.174 C 
ATOM      2  O   UNL     1      -0.235   0.873  24.370  0.00  0.00    -0.349 OA
ENDBRANCH   3   2
ENDBRANCH   4   3
ENDBRANCH   5   4
ENDBRANCH   6   5
ENDBRANCH  12   7
BRANCH  15  17
ATOM     17  C   UNL     1      -4.502   1.949  24.910  0.00  0.00    +0.138 C 
ATOM     18  C   UNL     1      -5.204   2.176  25.281  0.00  0.00    +0.027 C 
ATOM     19  C   UNL     1      -5.618   1.491  25.483  0.00  0.00    +0.019 C 
ATOM     20  C   UNL     1      -5.172   0.842  25.238  0.00  0.00    +0.073 C 
ATOM     21  N   UNL     1      -4.482   1.125  24.884  0.00  0.00    -0.263 NA
BRANCH  21  22
ATOM     22  C   UNL     1      -3.880   0.664  24.561  0.00  0.00    +0.099 C 
BRANCH  22  23
ATOM     23  C   UNL     1      -3.798  -0.125  24.785  0.00  0.00    -0.005 A 
ATOM     24  C   UNL     1      -3.493  -0.313  25.529  0.00  0.00    -0.003 A 
ATOM     25  C   UNL     1      -3.412  -1.102  25.754  0.00  0.00    +0.000 A 
ATOM     26  C   UNL     1      -3.634  -1.704  25.236  0.00  0.00    +0.010 A 
ATOM     27  C   UNL     1      -3.939  -1.517  24.492  0.00  0.00    +0.068 A 
ATOM     28  C   UNL     1      -4.021  -0.727  24.267  0.00  0.00    +0.007 A 
BRANCH  27  29
ATOM     29  C   UNL     1      -4.162  -2.119  23.973  0.00  0.00    +0.100 C 
ATOM     30  N   UNL     1      -4.385  -2.721  23.455  0.00  0.00    -0.191 NA
ENDBRANCH  27  29
ENDBRANCH  22  23
ENDBRANCH  21  22
ENDBRANCH  15  17
TORSDOF 9
ENDMDL
MODEL 2
REMARK VINA RESULT:     -10.7      1.145      2.860
REMARK  Name = 
REMARK  9 active torsions:
REMARK  status: ('A' for Active; 'I' for Inactive)
REMARK    1  A    between atoms: O_2  and  C_3
REMARK    2  A    between atoms: C_3  and  C_4
REMARK    3  A    between atoms: C_4  and  N_5
REMARK    4  A    between atoms: N_5  and  C_6
REMARK    5  A    between atoms: C_7  and  C_12
REMARK    6  A    between atoms: C_15  and  C_17
REMARK    7  A    between atoms: N_21  and  C_22
REMARK    8  A    between atoms: C_22  and  C_23
REMARK    9  A    between atoms: C_27  and  C_29
REMARK                            x       y       z     vdW  Elec       q    Type
REMARK                         _______ _______ _______ _____ _____    ______ ____
ROOT
ATOM     12  C   UNL     1      -1.498   2.719  24.323  0.00  0.00    +0.206 A 
ATOM     13  N   UNL     1      -1.773   2.513  23.573  0.00  0.00    -0.056 NA
ATOM     14  O   UNL     1      -1.641   1.705  23.466  0.00  0.00    -0.336 OA
ATOM     15  C   UNL     1      -1.285   1.412  24.150  0.00  0.00    +0.251 A 
ATOM     16  N   UNL     1      -1.197   2.039  24.680  0.00  0.00    -0.190 NA
ENDROOT
BRANCH  12   7
ATOM      6  C   UNL     1      -2.223   3.757  24.985  0.00  0.00    +0.151 A 
ATOM      7  C   UNL     1      -1.521   3.473  24.658  0.00  0.00    +0.072 A 
ATOM      8  C   UNL     1      -0.843   3.941  24.665  0.00  0.00    +0.008 A 
ATOM      9  C   UNL     1      -0.866   4.695  24.999  0.00  0.00    +0.021 A 
ATOM     10  C   UNL     1      -1.567   4.980  25.326  0.00  0.00    +0.100 A 
ATOM     11  N   UNL     1      -2.246   4.511  25.319  0.00  0.00    -0.228 NA
BRANCH   6   5
ATOM      5  N   UNL     1      -2.902   3.289  24.978  0.00  0.00    -0.218 NA
BRANCH   5   4
ATOM      4  C   UNL     1      -3.586   3.546  25.361  0.00  0.00    +0.146 C 
BRANCH   4   3
ATOM      3  C   UNL     1      -4.292   3.131  25.268  0.00  0.00    +0.166 C 
BRANCH   3   2
ATOM      1  C   UNL     1      -5.553   2.708  25.790  0.00  0.00    +0.174 C 
ATOM      2  O   UNL     1      -4.879   3.179  25.846  0.00  0.00    -0.349 OA
ENDBRANCH   3   2
ENDBRANCH   4   3
ENDBRANCH   5   4
ENDBRANCH   6   5
ENDBRANCH  12   7
BRANCH  15  17
ATOM     17  C   UNL     1      -1.057   0.631  24.282  0.00  0.00    +0.138 C 
ATOM     18  C   UNL     1      -0.299   0.322  24.177  0.00  0.00    +0.027 C 
ATOM     19  C   UNL     1      -0.320  -0.479  24.372  0.00  0.00    +0.019 C 
ATOM     20  C   UNL     1      -1.091  -0.666  24.598  0.00  0.00    +0.073 C 
ATOM     21  N   UNL     1      -1.547   0.020  24.542  0.00  0.00    -0.263 NA
BRANCH  21  22
ATOM     22  C   UNL     1      -2.350   0.083  24.716  0.00  0.00    +0.099 C 
BRANCH  22  23
ATOM     23  C   UNL     1      -2.774  -0.582  24.959  0.00  0.00    -0.005 A 
ATOM     24  C   UNL     1      -2.780  -0.800  25.755  0.00  0.00    -0.003 A 
ATOM     25  C   UNL     1      -3.204  -1.464  25.997  0.00  0.00    +0.000 A 
ATOM     26  C   UNL     1      -3.621  -1.912  25.444  0.00  0.00    +0.010 A 
ATOM     27  C   UNL     1      -3.615  -1.695  24.648  0.00  0.00    +0.068 A 
ATOM     28  C   UNL     1      -3.191  -1.029  24.406  0.00  0.00    +0.007 A 
BRANCH  27  29
ATOM     29  C   UNL     1      -4.033  -2.142  24.094  0.00  0.00    +0.100 C 
ATOM     30  N   UNL     1      -4.450  -2.589  23.541  0.00  0.00    -0.191 NA
ENDBRANCH  27  29
ENDBRANCH  22  23
ENDBRANCH  21  22
ENDBRANCH  15  17
TORSDOF 9
ENDMDL
MODEL 3
REMARK VINA RESULT:     -10.6      1.262      4.361
REMARK  Name = 
REMARK  9 active torsions:
REMARK  status: ('A' for Active; 'I' for Inactive)
REMARK    1  A    between atoms: O_2  and  C_3
REMARK    2  A    between atoms: C_3  and  C_4
REMARK    3  A    between atoms: C_4  and  N_5
REMARK    4  A    between atoms: N_5  and  C_6
REMARK    5  A    between atoms: C_7  and  C_12
REMARK    6  A    between atoms: C_15  and  C_17
REMARK    7  A    between atoms: N_21  and  C_22
REMARK    8  A    between atoms: C_22  and  C_23
REMARK    9  A    between atoms: C_27  and  C_29
REMARK                            x       y       z     vdW  Elec       q    Type
REMARK                         _______ _______ _______ _____ _____    ______ ____
ROOT
ATOM     12  C   UNL     1      -3.635  -0.325  24.287  0.00  0.00    +0.206 A 
ATOM     13  N   UNL     1      -3.654   0.054  23.554  0.00  0.00    -0.056 NA
ATOM     14  O   UNL     1      -3.881   0.838  23.678  0.00  0.00    -0.336 OA
ATOM     15  C   UNL     1      -4.002   0.943  24.488  0.00  0.00    +0.251 A 
ATOM     16  N   UNL     1      -3.850   0.224  24.864  0.00  0.00    -0.190 NA
ENDROOT
BRANCH  12   7
ATOM      6  C   UNL     1      -2.645  -1.330  24.513  0.00  0.00    +0.151 A 
ATOM      7  C   UNL     1      -3.436  -1.115  24.420  0.00  0.00    +0.072 A 
ATOM      8  C   UNL     1      -4.028  -1.687  24.460  0.00  0.00    +0.008 A 
ATOM      9  C   UNL     1      -3.829  -2.477  24.592  0.00  0.00    +0.021 A 
ATOM     10  C   UNL     1      -3.038  -2.694  24.685  0.00  0.00    +0.100 A 
ATOM     11  N   UNL     1      -2.446  -2.120  24.645  0.00  0.00    -0.228 NA
BRANCH   6   5
ATOM      5  N   UNL     1      -2.053  -0.757  24.473  0.00  0.00    -0.218 NA
BRANCH   5   4
ATOM      4  C   UNL     1      -1.260  -0.982  24.469  0.00  0.00    +0.146 C 
BRANCH   4   3
ATOM      3  C   UNL     1      -0.669  -0.412  24.394  0.00  0.00    +0.166 C 
BRANCH   3   2
ATOM      1  C   UNL     1       0.437   0.045  23.613  0.00  0.00    +0.174 C 
ATOM      2  O   UNL     1       0.007  -0.573  23.948  0.00  0.00    -0.349 OA
ENDBRANCH   3   2
ENDBRANCH   4   3
ENDBRANCH   5   4
ENDBRANCH   6   5
ENDBRANCH  12   7
BRANCH  15  17
ATOM     17  C   UNL     1      -4.234   1.643  24.856  0.00  0.00    +0.138 C 
ATOM     18  C   UNL     1      -4.938   1.763  25.271  0.00  0.00    +0.027 C 
ATOM     19  C   UNL     1      -4.942   2.541  25.546  0.00  0.00    +0.019 C 
ATOM     20  C   UNL     1      -4.242   2.902  25.302  0.00  0.00    +0.073 C 
ATOM     21  N   UNL     1      -3.804   2.347  24.875  0.00  0.00    -0.263 NA
BRANCH  21  22
ATOM     22  C   UNL     1      -3.067   2.475  24.529  0.00  0.00    +0.099 C 
BRANCH  22  23
ATOM     23  C   UNL     1      -2.530   2.994  24.879  0.00  0.00    -0.005 A 
ATOM     24  C   UNL     1      -2.664   3.808  24.849  0.00  0.00    -0.003 A 
ATOM     25  C   UNL     1      -2.127   4.327  25.199  0.00  0.00    +0.000 A 
ATOM     26  C   UNL     1      -1.458   4.033  25.581  0.00  0.00    +0.010 A 
ATOM     27  C   UNL     1      -1.324   3.219  25.612  0.00  0.00    +0.068 A 
ATOM     28  C   UNL     1      -1.861   2.700  25.261  0.00  0.00    +0.007 A 
BRANCH  27  29
ATOM     29  C   UNL     1      -0.654   2.925  25.993  0.00  0.00    +0.100 C 
ATOM     30  N   UNL     1       0.016   2.630  26.374  0.00  0.00    -0.191 NA
ENDBRANCH  27  29
ENDBRANCH  22  23
ENDBRANCH  21  22
ENDBRANCH  15  17
TORSDOF 9
ENDMDL
MODEL 4
REMARK VINA RESULT:     -10.2      1.454      3.288
REMARK  Name = 
REMARK  9 active torsions:
REMARK  status: ('A' for Active; 'I' for Inactive)
REMARK    1  A    between atoms: O_2  and  C_3
REMARK    2  A    between atoms: C_3  and  C_4
REMARK    3  A    between atoms: C_4  and  N_5
REMARK    4  A    between atoms: N_5  and  C_6
REMARK    5  A    between atoms: C_7  and  C_12
REMARK    6  A    between atoms: C_15  and  C_17
REMARK    7  A    between atoms: N_21  and  C_22
REMARK    8  A    between atoms: C_22  and  C_23
REMARK    9  A    between atoms: C_27  and  C_29
REMARK                            x       y       z     vdW  Elec       q    Type
REMARK                         _______ _______ _______ _____ _____    ______ ____
ROOT
ATOM     12  C   UNL     1      -4.375   1.630  24.603  0.00  0.00    +0.206 A 
ATOM     13  N   UNL     1      -4.032   1.649  23.852  0.00  0.00    -0.056 NA
ATOM     14  O   UNL     1      -3.759   0.890  23.678  0.00  0.00    -0.336 OA
ATOM     15  C   UNL     1      -3.933   0.402  24.320  0.00  0.00    +0.251 A 
ATOM     16  N   UNL     1      -4.313   0.860  24.892  0.00  0.00    -0.190 NA
ENDROOT
BRANCH  12   7
ATOM      6  C   UNL     1      -4.248   2.901  25.244  0.00  0.00    +0.151 A 
ATOM      7  C   UNL     1      -4.718   2.270  24.995  0.00  0.00    +0.072 A 
ATOM      8  C   UNL     1      -5.530   2.278  25.136  0.00  0.00    +0.008 A 
ATOM      9  C   UNL     1      -5.873   2.918  25.528  0.00  0.00    +0.021 A 
ATOM     10  C   UNL     1      -5.405   3.549  25.778  0.00  0.00    +0.100 A 
ATOM     11  N   UNL     1      -4.592   3.540  25.636  0.00  0.00    -0.228 NA
BRANCH   6   5
ATOM      5  N   UNL     1      -3.436   2.892  25.103  0.00  0.00    -0.218 NA
BRANCH   5   4
ATOM      4  C   UNL     1      -2.965   3.518  25.361  0.00  0.00    +0.146 C 
BRANCH   4   3
ATOM      3  C   UNL     1      -2.150   3.499  25.239  0.00  0.00    +0.166 C 
BRANCH   3   2
ATOM      1  C   UNL     1      -0.961   4.276  25.082  0.00  0.00    +0.174 C 
ATOM      2  O   UNL     1      -1.684   4.145  25.455  0.00  0.00    -0.349 OA
ENDBRANCH   3   2
ENDBRANCH   4   3
ENDBRANCH   5   4
ENDBRANCH   6   5
ENDBRANCH  12   7
BRANCH  15  17
ATOM     17  C   UNL     1      -3.757  -0.401  24.381  0.00  0.00    +0.138 C 
ATOM     18  C   UNL     1      -4.249  -1.023  24.153  0.00  0.00    +0.027 C 
ATOM     19  C   UNL     1      -3.855  -1.731  24.312  0.00  0.00    +0.019 C 
ATOM     20  C   UNL     1      -3.120  -1.546  24.638  0.00  0.00    +0.073 C 
ATOM     21  N   UNL     1      -3.060  -0.724  24.681  0.00  0.00    -0.263 NA
BRANCH  21  22
ATOM     22  C   UNL     1      -2.415  -0.300  24.972  0.00  0.00    +0.099 C 
BRANCH  22  23
ATOM     23  C   UNL     1      -1.657  -0.623  24.932  0.00  0.00    -0.005 A 
ATOM     24  C   UNL     1      -1.422  -1.193  25.481  0.00  0.00    -0.003 A 
ATOM     25  C   UNL     1      -0.664  -1.515  25.442  0.00  0.00    +0.000 A 
ATOM     26  C   UNL     1      -0.141  -1.268  24.854  0.00  0.00    +0.010 A 
ATOM     27  C   UNL     1      -0.375  -0.699  24.305  0.00  0.00    +0.068 A 
ATOM     28  C   UNL     1      -1.134  -0.376  24.345  0.00  0.00    +0.007 A 
BRANCH  27  29
ATOM     29  C   UNL     1       0.148  -0.452  23.716  0.00  0.00    +0.100 C 
ATOM     30  N   UNL     1       0.672  -0.204  23.129  0.00  0.00    -0.191 NA
ENDBRANCH  27  29
ENDBRANCH  22  23
ENDBRANCH  21  22
ENDBRANCH  15  17
TORSDOF 9
ENDMDL
MODEL 5
REMARK VINA RESULT:     -10.1      1.390      5.276
REMARK  Name = 
REMARK  9 active torsions:
REMARK  status: ('A' for Active; 'I' for Inactive)
REMARK    1  A    between atoms: O_2  and  C_3
REMARK    2  A    between atoms: C_3  and  C_4
REMARK    3  A    between atoms: C_4  and  N_5
REMARK    4  A    between atoms: N_5  and  C_6
REMARK    5  A    between atoms: C_7  and  C_12
REMARK    6  A    between atoms: C_15  and  C_17
REMARK    7  A    between atoms: N_21  and  C_22
REMARK    8  A    between atoms: C_22  and  C_23
REMARK    9  A    between atoms: C_27  and  C_29
REMARK                            x       y       z     vdW  Elec       q    Type
REMARK                         _______ _______ _______ _____ _____    ______ ____
ROOT
ATOM     12  C   UNL     1      -2.043  -0.805  25.043  0.00  0.00    +0.206 A 
ATOM     13  N   UNL     1      -1.743  -0.683  25.801  0.00  0.00    -0.056 NA
ATOM     14  O   UNL     1      -1.162  -0.098  25.754  0.00  0.00    -0.336 OA
ATOM     15  C   UNL     1      -1.105   0.141  24.967  0.00  0.00    +0.251 A 
ATOM     16  N   UNL     1      -1.649  -0.296  24.527  0.00  0.00    -0.190 NA
ENDROOT
BRANCH  12   7
ATOM      6  C   UNL     1      -3.422  -1.098  24.809  0.00  0.00    +0.151 A 
ATOM      7  C   UNL     1      -2.635  -1.342  24.836  0.00  0.00    +0.072 A 
ATOM      8  C   UNL     1      -2.438  -2.123  24.658  0.00  0.00    +0.008 A 
ATOM      9  C   UNL     1      -3.029  -2.660  24.452  0.00  0.00    +0.021 A 
ATOM     10  C   UNL     1      -3.817  -2.417  24.424  0.00  0.00    +0.100 A 
ATOM     11  N   UNL     1      -4.014  -1.635  24.603  0.00  0.00    -0.228 NA
BRANCH   6   5
ATOM      5  N   UNL     1      -3.619  -0.317  24.987  0.00  0.00    -0.218 NA
BRANCH   5   4
ATOM      4  C   UNL     1      -4.385  -0.043  24.852  0.00  0.00    +0.146 C 
BRANCH   4   3
ATOM      3  C   UNL     1      -4.639   0.661  25.199  0.00  0.00    +0.166 C 
BRANCH   3   2
ATOM      1  C   UNL     1      -5.696   1.621  25.170  0.00  0.00    +0.174 C 
ATOM      2  O   UNL     1      -5.122   1.179  24.777  0.00  0.00    -0.349 OA
ENDBRANCH   3   2
ENDBRANCH   4   3
ENDBRANCH   5   4
ENDBRANCH   6   5
ENDBRANCH  12   7
BRANCH  15  17
ATOM     17  C   UNL     1      -0.593   0.716  24.670  0.00  0.00    +0.138 C 
ATOM     18  C   UNL     1      -0.001   0.595  24.107  0.00  0.00    +0.027 C 
ATOM     19  C   UNL     1       0.375   1.317  23.974  0.00  0.00    +0.019 C 
ATOM     20  C   UNL     1       0.017   1.884  24.454  0.00  0.00    +0.073 C 
ATOM     21  N   UNL     1      -0.581   1.512  24.884  0.00  0.00    -0.263 NA
BRANCH  21  22
ATOM     22  C   UNL     1      -1.080   1.874  25.432  0.00  0.00    +0.099 C 
BRANCH  22  23
ATOM     23  C   UNL     1      -1.249   2.679  25.369  0.00  0.00    -0.005 A 
ATOM     24  C   UNL     1      -0.687   3.238  25.599  0.00  0.00    -0.003 A 
ATOM     25  C   UNL     1      -0.856   4.043  25.535  0.00  0.00    +0.000 A 
ATOM     26  C   UNL     1      -1.586   4.289  25.241  0.00  0.00    +0.010 A 
ATOM     27  C   UNL     1      -2.148   3.731  25.011  0.00  0.00    +0.068 A 
ATOM     28  C   UNL     1      -1.979   2.925  25.075  0.00  0.00    +0.007 A 
BRANCH  27  29
ATOM     29  C   UNL     1      -2.879   3.977  24.716  0.00  0.00    +0.100 C 
ATOM     30  N   UNL     1      -3.609   4.223  24.422  0.00  0.00    -0.191 NA
ENDBRANCH  27  29
ENDBRANCH  22  23
ENDBRANCH  21  22
ENDBRANCH  15  17
TORSDOF 9
ENDMDL
MODEL 6
REMARK VINA RESULT:      -9.9      1.395      3.782
REMARK  Name = 
REMARK  9 active torsions:
REMARK  status: ('A' for Active; 'I' for Inactive)
REMARK    1  A    between atoms: O_2  and  C_3
REMARK    2  A    between atoms: C_3  and  C_4
REMARK    3  A    between atoms: C_4  and  N_5
REMARK    4  A    between atoms: N_5  and  C_6
REMARK    5  A    between atoms: C_7  and  C_12
REMARK    6  A    between atoms: C_15  and  C_17
REMARK    7  A    between atoms: N_21  and  C_22
REMARK    8  A    between atoms: C_22  and  C_23
REMARK    9  A    between atoms: C_27  and  C_29
REMARK                            x       y       z     vdW  Elec       q    Type
REMARK                         _______ _______ _______ _____ _____    ______ ____
ROOT
ATOM     12  C   UNL     1      -3.573   2.667  24.758  0.00  0.00    +0.206 A 
ATOM     13  N   UNL     1      -3.356   2.935  24.008  0.00  0.00    -0.056 NA
ATOM     14  O   UNL     1      -2.532   2.947  23.970  0.00  0.00    -0.336 OA
ATOM     15  C   UNL     1      -2.239   2.685  24.696  0.00  0.00    +0.251 A 
ATOM     16  N   UNL     1      -2.883   2.512  25.183  0.00  0.00    -0.190 NA
ENDROOT
BRANCH  12   7
ATOM      6  C   UNL     1      -4.711   1.833  24.981  0.00  0.00    +0.151 A 
ATOM      7  C   UNL     1      -4.344   2.570  25.034  0.00  0.00    +0.072 A 
ATOM      8  C   UNL     1      -4.747   3.209  25.363  0.00  0.00    +0.008 A 
ATOM      9  C   UNL     1      -5.519   3.112  25.639  0.00  0.00    +0.021 A 
ATOM     10  C   UNL     1      -5.887   2.376  25.586  0.00  0.00    +0.100 A 
ATOM     11  N   UNL     1      -5.483   1.736  25.256  0.00  0.00    -0.228 NA
BRANCH   6   5
ATOM      5  N   UNL     1      -4.308   1.193  24.652  0.00  0.00    -0.218 NA
BRANCH   5   4
ATOM      4  C   UNL     1      -4.618   0.432  24.717  0.00  0.00    +0.146 C 
BRANCH   4   3
ATOM      3  C   UNL     1      -4.326  -0.175  24.241  0.00  0.00    +0.166 C 
BRANCH   3   2
ATOM      1  C   UNL     1      -4.181  -1.582  24.037  0.00  0.00    +0.174 C 
ATOM      2  O   UNL     1      -4.246  -0.938  24.547  0.00  0.00    -0.349 OA
ENDBRANCH   3   2
ENDBRANCH   4   3
ENDBRANCH   5   4
ENDBRANCH   6   5
ENDBRANCH  12   7
BRANCH  15  17
ATOM     17  C   UNL     1      -1.444   2.610  24.899  0.00  0.00    +0.138 C 
ATOM     18  C   UNL     1      -1.035   3.080  25.441  0.00  0.00    +0.027 C 
ATOM     19  C   UNL     1      -0.255   2.812  25.474  0.00  0.00    +0.019 C 
ATOM     20  C   UNL     1      -0.182   2.177  24.953  0.00  0.00    +0.073 C 
ATOM     21  N   UNL     1      -0.916   2.052  24.598  0.00  0.00    -0.263 NA
BRANCH  21  22
ATOM     22  C   UNL     1      -1.092   1.471  24.039  0.00  0.00    +0.099 C 
BRANCH  22  23
ATOM     23  C   UNL     1      -0.635   0.786  23.999  0.00  0.00    -0.005 A 
ATOM     24  C   UNL     1       0.018   0.754  23.496  0.00  0.00    -0.003 A 
ATOM     25  C   UNL     1       0.475   0.069  23.455  0.00  0.00    +0.000 A 
ATOM     26  C   UNL     1       0.280  -0.585  23.918  0.00  0.00    +0.010 A 
ATOM     27  C   UNL     1      -0.373  -0.555  24.422  0.00  0.00    +0.068 A 
ATOM     28  C   UNL     1      -0.830   0.132  24.462  0.00  0.00    +0.007 A 
BRANCH  27  29
ATOM     29  C   UNL     1      -0.569  -1.209  24.885  0.00  0.00    +0.100 C 
ATOM     30  N   UNL     1      -0.765  -1.863  25.348  0.00  0.00    -0.191 NA
ENDBRANCH  27  29
ENDBRANCH  22  23
ENDBRANCH  21  22
ENDBRANCH  15  17
TORSDOF 9
ENDMDL
MODEL 7
REMARK VINA RESULT:      -9.4      1.299      2.826
REMARK  Name = 
REMARK  9 active torsions:
REMARK  status: ('A' for Active; 'I' for Inactive)
REMARK    1  A    between atoms: O_2  and  C_3
REMARK    2  A    between atoms: C_3  and  C_4
REMARK    3  A    between atoms: C_4  and  N_5
REMARK    4  A    between atoms: N_5  and  C_6
REMARK    5  A    between atoms: C_7  and  C_12
REMARK    6  A    between atoms: C_15  and  C_17
REMARK    7  A    between atoms: N_21  and  C_22
REMARK    8  A    between atoms: C_22  and  C_23
REMARK    9  A    between atoms: C_27  and  C_29
REMARK                            x       y       z     vdW  Elec       q    Type
REMARK                         _______ _______ _______ _____ _____    ______ ____
ROOT
ATOM     12  C   UNL     1      -3.605   2.164  24.510  0.00  0.00    +0.206 A 
ATOM     13  N   UNL     1      -3.523   2.068  23.694  0.00  0.00    -0.056 NA
ATOM     14  O   UNL     1      -2.969   1.470  23.563  0.00  0.00    -0.336 OA
ATOM     15  C   UNL     1      -2.709   1.197  24.296  0.00  0.00    +0.251 A 
ATOM     16  N   UNL     1      -3.103   1.626  24.882  0.00  0.00    -0.190 NA
ENDROOT
BRANCH  12   7
ATOM      6  C   UNL     1      -3.800   3.417  25.169  0.00  0.00    +0.151 A 
ATOM      7  C   UNL     1      -4.103   2.703  24.887  0.00  0.00    +0.072 A 
ATOM      8  C   UNL     1      -4.903   2.528  24.982  0.00  0.00    +0.008 A 
ATOM      9  C   UNL     1      -5.401   3.067  25.358  0.00  0.00    +0.021 A 
ATOM     10  C   UNL     1      -5.099   3.781  25.641  0.00  0.00    +0.100 A 
ATOM     11  N   UNL     1      -4.298   3.956  25.546  0.00  0.00    -0.228 NA
BRANCH   6   5
ATOM      5  N   UNL     1      -3.000   3.591  25.074  0.00  0.00    -0.218 NA
BRANCH   5   4
ATOM      4  C   UNL     1      -2.700   4.313  25.339  0.00  0.00    +0.146 C 
BRANCH   4   3
ATOM      3  C   UNL     1      -1.888   4.454  25.321  0.00  0.00    +0.166 C 
BRANCH   3   2
ATOM      1  C   UNL     1      -0.851   5.345  24.905  0.00  0.00    +0.174 C 
ATOM      2  O   UNL     1      -1.604   5.222  25.217  0.00  0.00    -0.349 OA
ENDBRANCH   3   2
ENDBRANCH   4   3
ENDBRANCH   5   4
ENDBRANCH   6   5
ENDBRANCH  12   7
BRANCH  15  17
ATOM     17  C   UNL     1      -2.154   0.601  24.423  0.00  0.00    +0.138 C 
ATOM     18  C   UNL     1      -1.352   0.636  24.233  0.00  0.00    +0.027 C 
ATOM     19  C   UNL     1      -1.005  -0.079  24.455  0.00  0.00    +0.019 C 
ATOM     20  C   UNL     1      -1.593  -0.557  24.781  0.00  0.00    +0.073 C 
ATOM     21  N   UNL     1      -2.303  -0.137  24.762  0.00  0.00    -0.263 NA
BRANCH  21  22
ATOM     22  C   UNL     1      -3.034  -0.407  25.033  0.00  0.00    +0.099 C 
BRANCH  22  23
ATOM     23  C   UNL     1      -3.204  -1.214  25.026  0.00  0.00    -0.005 A 
ATOM     24  C   UNL     1      -2.972  -1.690  25.659  0.00  0.00    -0.003 A 
ATOM     25  C   UNL     1      -3.142  -2.497  25.652  0.00  0.00    +0.000 A 
ATOM     26  C   UNL     1      -3.543  -2.829  25.012  0.00  0.00    +0.010 A 
ATOM     27  C   UNL     1      -3.775  -2.353  24.379  0.00  0.00    +0.068 A 
ATOM     28  C   UNL     1      -3.605  -1.546  24.386  0.00  0.00    +0.007 A 
BRANCH  27  29
ATOM     29  C   UNL     1      -4.176  -2.685  23.738  0.00  0.00    +0.100 C 
ATOM     30  N   UNL     1      -4.578  -3.016  23.099  0.00  0.00    -0.191 NA
ENDBRANCH  27  29
ENDBRANCH  22  23
ENDBRANCH  21  22
ENDBRANCH  15  17
TORSDOF 9
ENDMDL
MODEL 8
REMARK VINA RESULT:      -9.4      1.397      3.688
REMARK  Name = 
REMARK  9 active torsions:
REMARK  status: ('A' for Active; 'I' for Inactive)
REMARK    1  A    between atoms: O_2  and  C_3
REMARK    2  A    between atoms: C_3  and  C_4
REMARK    3  A    between atoms: C_4  and  N_5
REMARK    4  A    between atoms: N_5  and  C_6
REMARK    5  A    between atoms: C_7  and  C_12
REMARK    6  A    between atoms: C_15  and  C_17
REMARK    7  A    between atoms: N_21  and  C_22
REMARK    8  A    between atoms: C_22  and  C_23
REMARK    9  A    between atoms: C_27  and  C_29
REMARK                            x       y       z     vdW  Elec       q    Type
REMARK                         _______ _______ _______ _____ _____    ______ ____
ROOT
ATOM     12  C   UNL     1      -1.011  -0.204  24.438  0.00  0.00    +0.206 A 
ATOM     13  N   UNL     1      -1.098  -0.370  25.242  0.00  0.00    -0.056 NA
ATOM     14  O   UNL     1      -1.887  -0.571  25.377  0.00  0.00    -0.336 OA
ATOM     15  C   UNL     1      -2.287  -0.530  24.657  0.00  0.00    +0.251 A 
ATOM     16  N   UNL     1      -1.746  -0.304  24.077  0.00  0.00    -0.190 NA
ENDROOT
BRANCH  12   7
ATOM      6  C   UNL     1      -0.053   0.803  24.108  0.00  0.00    +0.151 A 
ATOM      7  C   UNL     1      -0.312   0.021  24.061  0.00  0.00    +0.072 A 
ATOM      8  C   UNL     1       0.126  -0.536  23.640  0.00  0.00    +0.008 A 
ATOM      9  C   UNL     1       0.825  -0.311  23.264  0.00  0.00    +0.021 A 
ATOM     10  C   UNL     1       1.086   0.471  23.309  0.00  0.00    +0.100 A 
ATOM     11  N   UNL     1       0.646   1.027  23.732  0.00  0.00    -0.228 NA
BRANCH   6   5
ATOM      5  N   UNL     1      -0.491   1.359  24.530  0.00  0.00    -0.218 NA
BRANCH   5   4
ATOM      4  C   UNL     1      -0.270   2.154  24.519  0.00  0.00    +0.146 C 
BRANCH   4   3
ATOM      3  C   UNL     1      -0.641   2.692  25.021  0.00  0.00    +0.166 C 
BRANCH   3   2
ATOM      1  C   UNL     1      -0.966   4.064  25.254  0.00  0.00    +0.174 C 
ATOM      2  O   UNL     1      -0.876   3.430  24.735  0.00  0.00    -0.349 OA
ENDBRANCH   3   2
ENDBRANCH   4   3
ENDBRANCH   5   4
ENDBRANCH   6   5
ENDBRANCH  12   7
BRANCH  15  17
ATOM     17  C   UNL     1      -3.088  -0.688  24.538  0.00  0.00    +0.138 C 
ATOM     18  C   UNL     1      -3.400  -1.354  24.163  0.00  0.00    +0.027 C 
ATOM     19  C   UNL     1      -4.223  -1.285  24.166  0.00  0.00    +0.019 C 
ATOM     20  C   UNL     1      -4.419  -0.578  24.542  0.00  0.00    +0.073 C 
ATOM     21  N   UNL     1      -3.717  -0.209  24.772  0.00  0.00    -0.263 NA
BRANCH  21  22
ATOM     22  C   UNL     1      -3.656   0.513  25.167  0.00  0.00    +0.099 C 
BRANCH  22  23
ATOM     23  C   UNL     1      -4.208   1.109  25.024  0.00  0.00    -0.005 A 
ATOM     24  C   UNL     1      -4.971   1.047  25.333  0.00  0.00    -0.003 A 
ATOM     25  C   UNL     1      -5.523   1.644  25.190  0.00  0.00    +0.000 A 
ATOM     26  C   UNL     1      -5.312   2.301  24.740  0.00  0.00    +0.010 A 
ATOM     27  C   UNL     1      -4.550   2.364  24.431  0.00  0.00    +0.068 A 
ATOM     28  C   UNL     1      -3.998   1.767  24.574  0.00  0.00    +0.007 A 
BRANCH  27  29
ATOM     29  C   UNL     1      -4.339   3.022  23.980  0.00  0.00    +0.100 C 
ATOM     30  N   UNL     1      -4.127   3.680  23.529  0.00  0.00    -0.191 NA
ENDBRANCH  27  29
ENDBRANCH  22  23
ENDBRANCH  21  22
ENDBRANCH  15  17
TORSDOF 9
ENDMDL
