MODEL 1
REMARK VINA RESULT:     -15.5      0.000      0.000
REMARK  Name = 
REMARK  4 active torsions:
REMARK  status: ('A' for Active; 'I' for Inactive)
REMARK    1  A    between atoms: C_8  and  C_10
REMARK    2  A    between atoms: C_10  and  C_11
REMARK    3  A    between atoms: C_16  and  C_18
REMARK    4  A    between atoms: C_29  and  C_31
REMARK                            x       y       z     vdW  Elec       q    Type
REMARK                         _______ _______ _______ _____ _____    ______ ____
ROOT
ATOM     11  C   UNL     1      -3.769   1.145  24.625  0.00  0.00    +0.050 C 
ATOM     12  C   UNL     1      -3.004   1.433  24.504  0.00  0.00    +0.063 A 
ATOM     13  C   UNL     1      -2.836   2.228  24.645  0.00  0.00    +0.023 A 
ATOM     14  C   UNL     1      -3.431   2.735  24.908  0.00  0.00    +0.034 C 
ATOM     15  C   UNL     1      -4.195   2.448  25.029  0.00  0.00    +0.010 C 
ATOM     16  C   UNL     1      -4.789   2.955  25.291  0.00  0.00    +0.059 C 
ATOM     17  C   UNL     1      -4.156   3.483  25.257  0.00  0.00    +0.005 C 
ATOM     20  C   UNL     1      -5.553   2.668  25.412  0.00  0.00    +0.154 C 
ATOM     21  O   UNL     1      -6.149   3.176  25.675  0.00  0.00    -0.223 OA
ATOM     22  C   UNL     1      -5.722   1.873  25.271  0.00  0.00    +0.033 C 
ATOM     23  C   UNL     1      -5.127   1.365  25.008  0.00  0.00    +0.003 C 
ATOM     24  C   UNL     1      -4.363   1.653  24.888  0.00  0.00    +0.006 C 
ATOM     25  C   UNL     1      -4.532   0.858  24.746  0.00  0.00    +0.000 C 
ATOM     26  S   UNL     1      -2.037   2.353  24.478  0.00  0.00    -0.054 S 
ATOM     27  C   UNL     1      -1.713   1.636  24.234  0.00  0.00    +0.185 A 
ATOM     28  N   UNL     1      -0.929   1.509  24.013  0.00  0.00    -0.151 NA
ATOM     29  C   UNL     1      -0.682   0.756  23.779  0.00  0.00    +0.271 C 
ATOM     30  O   UNL     1      -1.221   0.131  23.768  0.00  0.00    -0.268 OA
ATOM     38  N   UNL     1      -2.310   1.066  24.249  0.00  0.00    -0.227 NA
ENDROOT
BRANCH  29  31
ATOM     31  C   UNL     1       0.102   0.629  23.558  0.00  0.00    +0.056 A 
ATOM     32  C   UNL     1       0.682   1.177  23.763  0.00  0.00    +0.007 A 
ATOM     33  C   UNL     1       1.467   1.050  23.542  0.00  0.00    +0.030 A 
ATOM     34  C   UNL     1       1.671   0.375  23.115  0.00  0.00    +0.140 A 
ATOM     35  F   UNL     1       2.456   0.248  22.893  0.00  0.00    -0.204 F 
ATOM     36  C   UNL     1       1.090  -0.174  22.909  0.00  0.00    +0.030 A 
ATOM     37  C   UNL     1       0.305  -0.047  23.130  0.00  0.00    +0.007 A 
ENDBRANCH  29  31
BRANCH  16  18
ATOM     18  C   UNL     1      -5.165   3.646  25.542  0.00  0.00    +0.184 C 
ATOM     19  O   UNL     1      -4.794   4.376  25.445  0.00  0.00    -0.220 OA
ENDBRANCH  16  18
BRANCH  11  10
ATOM     10  C   UNL     1      -3.937   0.351  24.484  0.00  0.00    +0.091 C 
BRANCH  10   8
ATOM      1  C   UNL     1      -3.764  -3.415  24.201  0.00  0.00    +0.000 C 
ATOM      2  C   UNL     1      -3.751  -2.617  24.409  0.00  0.00    +0.003 C 
ATOM      3  C   UNL     1      -3.974  -2.044  23.860  0.00  0.00    +0.022 C 
ATOM      4  C   UNL     1      -3.962  -1.245  24.068  0.00  0.00    +0.093 C 
ATOM      5  N   UNL     1      -3.727  -1.021  24.825  0.00  0.00    -0.280 N 
ATOM      6  C   UNL     1      -3.504  -1.593  25.375  0.00  0.00    +0.093 C 
ATOM      7  C   UNL     1      -3.516  -2.391  25.167  0.00  0.00    +0.022 C 
ATOM      8  C   UNL     1      -3.714  -0.222  25.033  0.00  0.00    +0.226 C 
ATOM      9  O   UNL     1      -3.479   0.003  25.791  0.00  0.00    -0.275 OA
ENDBRANCH  10   8
ENDBRANCH  11  10
TORSDOF 4
ENDMDL
MODEL 2
REMARK VINA RESULT:     -14.6      2.156      4.365
REMARK  Name = 
REMARK  4 active torsions:
REMARK  status: ('A' for Active; 'I' for Inactive)
REMARK    1  A    between atoms: C_8  and  C_10
REMARK    2  A    between atoms: C_10  and  C_11
REMARK    3  A    between atoms: C_16  and  C_18
REMARK    4  A    between atoms: C_29  and  C_31
REMARK                            x       y       z     vdW  Elec       q    Type
REMARK                         _______ _______ _______ _____ _____    ______ ____
ROOT
ATOM     11  C   UNL     1      -3.209  -0.075  25.067  0.00  0.00    +0.050 C 
ATOM     12  C   UNL     1      -2.557   0.415  24.937  0.00  0.00    +0.063 A 
ATOM     13  C   UNL     1      -1.837   0.089  24.700  0.00  0.00    +0.023 A 
ATOM     14  C   UNL     1      -1.769  -0.726  24.593  0.00  0.00    +0.034 C 
ATOM     15  C   UNL     1      -2.420  -1.215  24.723  0.00  0.00    +0.010 C 
ATOM     16  C   UNL     1      -2.351  -2.030  24.616  0.00  0.00    +0.059 C 
ATOM     17  C   UNL     1      -1.584  -1.795  24.425  0.00  0.00    +0.005 C 
ATOM     20  C   UNL     1      -3.003  -2.520  24.745  0.00  0.00    +0.154 C 
ATOM     21  O   UNL     1      -2.935  -3.335  24.638  0.00  0.00    -0.223 OA
ATOM     22  C   UNL     1      -3.723  -2.194  24.983  0.00  0.00    +0.033 C 
ATOM     23  C   UNL     1      -3.791  -1.378  25.090  0.00  0.00    +0.003 C 
ATOM     24  C   UNL     1      -3.140  -0.889  24.960  0.00  0.00    +0.006 C 
ATOM     25  C   UNL     1      -3.860  -0.564  25.197  0.00  0.00    +0.000 C 
ATOM     26  S   UNL     1      -1.294   0.705  24.614  0.00  0.00    -0.054 S 
ATOM     27  C   UNL     1      -1.679   1.411  24.798  0.00  0.00    +0.185 A 
ATOM     28  N   UNL     1      -1.342   2.164  24.785  0.00  0.00    -0.151 NA
ATOM     29  C   UNL     1      -1.798   2.823  24.984  0.00  0.00    +0.271 C 
ATOM     30  O   UNL     1      -2.589   2.728  25.196  0.00  0.00    -0.268 OA
ATOM     38  N   UNL     1      -2.459   1.232  24.998  0.00  0.00    -0.227 NA
ENDROOT
BRANCH  29  31
ATOM     31  C   UNL     1      -1.461   3.576  24.971  0.00  0.00    +0.056 A 
ATOM     32  C   UNL     1      -0.708   3.685  24.655  0.00  0.00    +0.007 A 
ATOM     33  C   UNL     1      -0.372   4.439  24.641  0.00  0.00    +0.030 A 
ATOM     34  C   UNL     1      -0.788   5.082  24.945  0.00  0.00    +0.140 A 
ATOM     35  F   UNL     1      -0.452   5.836  24.932  0.00  0.00    -0.204 F 
ATOM     36  C   UNL     1      -1.543   4.973  25.262  0.00  0.00    +0.030 A 
ATOM     37  C   UNL     1      -1.879   4.219  25.275  0.00  0.00    +0.007 A 
ENDBRANCH  29  31
BRANCH  16  18
ATOM     18  C   UNL     1      -2.017  -2.764  24.442  0.00  0.00    +0.184 C 
ATOM     19  O   UNL     1      -1.245  -2.808  24.155  0.00  0.00    -0.220 OA
ENDBRANCH  16  18
BRANCH  11  10
ATOM     10  C   UNL     1      -3.928   0.251  25.304  0.00  0.00    +0.091 C 
BRANCH  10   8
ATOM      1  C   UNL     1      -6.706   2.770  25.784  0.00  0.00    +0.000 C 
ATOM      2  C   UNL     1      -6.131   2.237  25.527  0.00  0.00    +0.003 C 
ATOM      3  C   UNL     1      -5.653   1.849  26.076  0.00  0.00    +0.022 C 
ATOM      4  C   UNL     1      -5.078   1.316  25.819  0.00  0.00    +0.093 C 
ATOM      5  N   UNL     1      -4.981   1.171  25.013  0.00  0.00    -0.280 N 
ATOM      6  C   UNL     1      -5.459   1.558  24.464  0.00  0.00    +0.093 C 
ATOM      7  C   UNL     1      -6.034   2.091  24.721  0.00  0.00    +0.022 C 
ATOM      8  C   UNL     1      -4.406   0.639  24.756  0.00  0.00    +0.226 C 
ATOM      9  O   UNL     1      -4.309   0.493  23.950  0.00  0.00    -0.275 OA
ENDBRANCH  10   8
ENDBRANCH  11  10
TORSDOF 4
ENDMDL
MODEL 3
REMARK VINA RESULT:     -14.1      2.375      5.500
REMARK  Name = 
REMARK  4 active torsions:
REMARK  status: ('A' for Active; 'I' for Inactive)
REMARK    1  A    between atoms: C_8  and  C_10
REMARK    2  A    between atoms: C_10  and  C_11
REMARK    3  A    between atoms: C_16  and  C_18
REMARK    4  A    between atoms: C_29  and  C_31
REMARK                            x       y       z     vdW  Elec       q    Type
REMARK                         _______ _______ _______ _____ _____    ______ ____
ROOT
ATOM     11  C   UNL     1      -2.562  -0.277  24.984  0.00  0.00    +0.050 C 
ATOM     12  C   UNL     1      -3.297   0.095  24.937  0.00  0.00    +0.063 A 
ATOM     13  C   UNL     1      -3.962  -0.332  24.702  0.00  0.00    +0.023 A 
ATOM     14  C   UNL     1      -3.892  -1.133  24.515  0.00  0.00    +0.034 C 
ATOM     15  C   UNL     1      -3.158  -1.505  24.562  0.00  0.00    +0.010 C 
ATOM     16  C   UNL     1      -3.088  -2.305  24.375  0.00  0.00    +0.059 C 
ATOM     17  C   UNL     1      -3.896  -2.198  24.247  0.00  0.00    +0.005 C 
ATOM     20  C   UNL     1      -2.354  -2.678  24.422  0.00  0.00    +0.154 C 
ATOM     21  O   UNL     1      -2.284  -3.479  24.234  0.00  0.00    -0.223 OA
ATOM     22  C   UNL     1      -1.689  -2.250  24.657  0.00  0.00    +0.033 C 
ATOM     23  C   UNL     1      -1.758  -1.449  24.844  0.00  0.00    +0.003 C 
ATOM     24  C   UNL     1      -2.493  -1.077  24.797  0.00  0.00    +0.006 C 
ATOM     25  C   UNL     1      -1.828  -0.650  25.031  0.00  0.00    +0.000 C 
ATOM     26  S   UNL     1      -4.609   0.180  24.707  0.00  0.00    -0.054 S 
ATOM     27  C   UNL     1      -4.344   0.923  24.944  0.00  0.00    +0.185 A 
ATOM     28  N   UNL     1      -4.808   1.600  25.025  0.00  0.00    -0.151 NA
ATOM     29  C   UNL     1      -4.464   2.310  25.269  0.00  0.00    +0.271 C 
ATOM     30  O   UNL     1      -3.656   2.341  25.431  0.00  0.00    -0.268 OA
ATOM     38  N   UNL     1      -3.533   0.872  25.086  0.00  0.00    -0.227 NA
ENDROOT
BRANCH  29  31
ATOM     31  C   UNL     1      -4.928   2.987  25.350  0.00  0.00    +0.056 A 
ATOM     32  C   UNL     1      -5.690   2.930  25.661  0.00  0.00    +0.007 A 
ATOM     33  C   UNL     1      -6.154   3.607  25.741  0.00  0.00    +0.030 A 
ATOM     34  C   UNL     1      -5.857   4.341  25.511  0.00  0.00    +0.140 A 
ATOM     35  F   UNL     1      -6.321   5.019  25.592  0.00  0.00    -0.204 F 
ATOM     36  C   UNL     1      -5.094   4.398  25.200  0.00  0.00    +0.030 A 
ATOM     37  C   UNL     1      -4.630   3.721  25.119  0.00  0.00    +0.007 A 
ENDBRANCH  29  31
BRANCH  16  18
ATOM     18  C   UNL     1      -3.299  -3.069  24.143  0.00  0.00    +0.184 C 
ATOM     19  O   UNL     1      -4.079  -3.237  23.935  0.00  0.00    -0.220 OA
ENDBRANCH  16  18
BRANCH  11  10
ATOM     10  C   UNL     1      -1.897   0.150  25.219  0.00  0.00    +0.091 C 
BRANCH  10   8
ATOM      1  C   UNL     1       0.476   3.038  25.787  0.00  0.00    +0.000 C 
ATOM      2  C   UNL     1      -0.023   2.442  25.512  0.00  0.00    +0.003 C 
ATOM      3  C   UNL     1      -0.400   1.939  26.046  0.00  0.00    +0.022 C 
ATOM      4  C   UNL     1      -0.899   1.343  25.770  0.00  0.00    +0.093 C 
ATOM      5  N   UNL     1      -1.021   1.249  24.960  0.00  0.00    -0.280 N 
ATOM      6  C   UNL     1      -0.644   1.751  24.426  0.00  0.00    +0.093 C 
ATOM      7  C   UNL     1      -0.145   2.347  24.701  0.00  0.00    +0.022 C 
ATOM      8  C   UNL     1      -1.520   0.653  24.685  0.00  0.00    +0.226 C 
ATOM      9  O   UNL     1      -1.642   0.558  23.874  0.00  0.00    -0.275 OA
ENDBRANCH  10   8
ENDBRANCH  11  10
TORSDOF 4
ENDMDL
MODEL 4
REMARK VINA RESULT:     -13.6      2.108      4.260
REMARK  Name = 
REMARK  4 active torsions:
REMARK  status: ('A' for Active; 'I' for Inactive)
REMARK    1  A    between atoms: C_8  and  C_10
REMARK    2  A    between atoms: C_10  and  C_11
REMARK    3  A    between atoms: C_16  and  C_18
REMARK    4  A    between atoms: C_29  and  C_31
REMARK                            x       y       z     vdW  Elec       q    Type
REMARK                         _______ _______ _______ _____ _____    ______ ____
ROOT
ATOM     11  C   UNL     1      -2.630   2.710  25.133  0.00  0.00    +0.050 C 
ATOM     12  C   UNL     1      -2.387   1.964  24.876  0.00  0.00    +0.063 A 
ATOM     13  C   UNL     1      -1.636   1.864  24.550  0.00  0.00    +0.023 A 
ATOM     14  C   UNL     1      -1.128   2.511  24.481  0.00  0.00    +0.034 C 
ATOM     15  C   UNL     1      -1.370   3.256  24.738  0.00  0.00    +0.010 C 
ATOM     16  C   UNL     1      -0.862   3.901  24.669  0.00  0.00    +0.059 C 
ATOM     17  C   UNL     1      -0.385   3.309  24.349  0.00  0.00    +0.005 C 
ATOM     20  C   UNL     1      -1.104   4.647  24.926  0.00  0.00    +0.154 C 
ATOM     21  O   UNL     1      -0.595   5.293  24.857  0.00  0.00    -0.223 OA
ATOM     22  C   UNL     1      -1.855   4.747  25.252  0.00  0.00    +0.033 C 
ATOM     23  C   UNL     1      -2.364   4.100  25.321  0.00  0.00    +0.003 C 
ATOM     24  C   UNL     1      -2.121   3.355  25.064  0.00  0.00    +0.006 C 
ATOM     25  C   UNL     1      -2.872   3.455  25.390  0.00  0.00    +0.000 C 
ATOM     26  S   UNL     1      -1.550   1.069  24.346  0.00  0.00    -0.054 S 
ATOM     27  C   UNL     1      -2.248   0.679  24.546  0.00  0.00    +0.185 A 
ATOM     28  N   UNL     1      -2.402  -0.125  24.437  0.00  0.00    -0.151 NA
ATOM     29  C   UNL     1      -3.130  -0.440  24.666  0.00  0.00    +0.271 C 
ATOM     30  O   UNL     1      -3.703   0.048  25.002  0.00  0.00    -0.268 OA
ATOM     38  N   UNL     1      -2.766   1.231  24.874  0.00  0.00    -0.227 NA
ENDROOT
BRANCH  29  31
ATOM     31  C   UNL     1      -3.284  -1.244  24.557  0.00  0.00    +0.056 A 
ATOM     32  C   UNL     1      -2.833  -1.807  24.956  0.00  0.00    +0.007 A 
ATOM     33  C   UNL     1      -2.987  -2.610  24.847  0.00  0.00    +0.030 A 
ATOM     34  C   UNL     1      -3.591  -2.850  24.340  0.00  0.00    +0.140 A 
ATOM     35  F   UNL     1      -3.745  -3.653  24.232  0.00  0.00    -0.204 F 
ATOM     36  C   UNL     1      -4.043  -2.286  23.941  0.00  0.00    +0.030 A 
ATOM     37  C   UNL     1      -3.889  -1.482  24.050  0.00  0.00    +0.007 A 
ENDBRANCH  29  31
BRANCH  16  18
ATOM     18  C   UNL     1      -0.187   4.342  24.489  0.00  0.00    +0.184 C 
ATOM     19  O   UNL     1       0.319   4.094  23.886  0.00  0.00    -0.220 OA
ENDBRANCH  16  18
BRANCH  11  10
ATOM     10  C   UNL     1      -3.380   2.810  25.459  0.00  0.00    +0.091 C 
BRANCH  10   8
ATOM      1  C   UNL     1      -7.015   2.113  26.233  0.00  0.00    +0.000 C 
ATOM      2  C   UNL     1      -6.273   2.287  25.918  0.00  0.00    +0.003 C 
ATOM      3  C   UNL     1      -5.607   2.289  26.405  0.00  0.00    +0.022 C 
ATOM      4  C   UNL     1      -4.865   2.462  26.090  0.00  0.00    +0.093 C 
ATOM      5  N   UNL     1      -4.788   2.634  25.287  0.00  0.00    -0.280 N 
ATOM      6  C   UNL     1      -5.453   2.632  24.799  0.00  0.00    +0.093 C 
ATOM      7  C   UNL     1      -6.195   2.459  25.115  0.00  0.00    +0.022 C 
ATOM      8  C   UNL     1      -4.046   2.808  24.972  0.00  0.00    +0.226 C 
ATOM      9  O   UNL     1      -3.968   2.980  24.169  0.00  0.00    -0.275 OA
ENDBRANCH  10   8
ENDBRANCH  11  10
TORSDOF 4
ENDMDL
MODEL 5
REMARK VINA RESULT:     -13.2      1.653      3.887
REMARK  Name = 
REMARK  4 active torsions:
REMARK  status: ('A' for Active; 'I' for Inactive)
REMARK    1  A    between atoms: C_8  and  C_10
REMARK    2  A    between atoms: C_10  and  C_11
REMARK    3  A    between atoms: C_16  and  C_18
REMARK    4  A    between atoms: C_29  and  C_31
REMARK                            x       y       z     vdW  Elec       q    Type
REMARK                         _______ _______ _______ _____ _____    ______ ____
ROOT
ATOM     11  C   UNL     1      -3.506   2.336  24.753  0.00  0.00    +0.050 C 
ATOM     12  C   UNL     1      -3.908   1.617  24.814  0.00  0.00    +0.063 A 
ATOM     13  C   UNL     1      -4.695   1.603  25.061  0.00  0.00    +0.023 A 
ATOM     14  C   UNL     1      -5.081   2.309  25.247  0.00  0.00    +0.034 C 
ATOM     15  C   UNL     1      -4.680   3.027  25.185  0.00  0.00    +0.010 C 
ATOM     16  C   UNL     1      -5.066   3.731  25.370  0.00  0.00    +0.059 C 
ATOM     17  C   UNL     1      -5.675   3.193  25.514  0.00  0.00    +0.005 C 
ATOM     20  C   UNL     1      -4.666   4.450  25.309  0.00  0.00    +0.154 C 
ATOM     21  O   UNL     1      -5.052   5.156  25.494  0.00  0.00    -0.223 OA
ATOM     22  C   UNL     1      -3.879   4.464  25.062  0.00  0.00    +0.033 C 
ATOM     23  C   UNL     1      -3.492   3.758  24.876  0.00  0.00    +0.003 C 
ATOM     24  C   UNL     1      -3.893   3.040  24.938  0.00  0.00    +0.006 C 
ATOM     25  C   UNL     1      -3.106   3.054  24.691  0.00  0.00    +0.000 C 
ATOM     26  S   UNL     1      -4.946   0.817  25.070  0.00  0.00    -0.054 S 
ATOM     27  C   UNL     1      -4.314   0.346  24.828  0.00  0.00    +0.185 A 
ATOM     28  N   UNL     1      -4.323  -0.476  24.756  0.00  0.00    -0.151 NA
ATOM     29  C   UNL     1      -3.645  -0.876  24.506  0.00  0.00    +0.271 C 
ATOM     30  O   UNL     1      -2.959  -0.453  24.329  0.00  0.00    -0.268 OA
ATOM     38  N   UNL     1      -3.672   0.839  24.670  0.00  0.00    -0.227 NA
ENDROOT
BRANCH  29  31
ATOM     31  C   UNL     1      -3.653  -1.698  24.435  0.00  0.00    +0.056 A 
ATOM     32  C   UNL     1      -4.094  -2.055  23.837  0.00  0.00    +0.007 A 
ATOM     33  C   UNL     1      -4.103  -2.877  23.766  0.00  0.00    +0.030 A 
ATOM     34  C   UNL     1      -3.669  -3.341  24.292  0.00  0.00    +0.140 A 
ATOM     35  F   UNL     1      -3.678  -4.163  24.220  0.00  0.00    -0.204 F 
ATOM     36  C   UNL     1      -3.227  -2.983  24.890  0.00  0.00    +0.030 A 
ATOM     37  C   UNL     1      -3.219  -2.161  24.962  0.00  0.00    +0.007 A 
ENDBRANCH  29  31
BRANCH  16  18
ATOM     18  C   UNL     1      -5.664   4.250  25.606  0.00  0.00    +0.184 C 
ATOM     19  O   UNL     1      -6.394   3.955  25.850  0.00  0.00    -0.220 OA
ENDBRANCH  16  18
BRANCH  11  10
ATOM     10  C   UNL     1      -2.720   2.349  24.506  0.00  0.00    +0.091 C 
BRANCH  10   8
ATOM      1  C   UNL     1       0.949   1.607  23.973  0.00  0.00    +0.000 C 
ATOM      2  C   UNL     1       0.183   1.755  24.241  0.00  0.00    +0.003 C 
ATOM      3  C   UNL     1      -0.422   1.905  23.701  0.00  0.00    +0.022 C 
ATOM      4  C   UNL     1      -1.188   2.053  23.969  0.00  0.00    +0.093 C 
ATOM      5  N   UNL     1      -1.349   2.051  24.778  0.00  0.00    -0.280 N 
ATOM      6  C   UNL     1      -0.745   1.902  25.318  0.00  0.00    +0.093 C 
ATOM      7  C   UNL     1       0.021   1.754  25.050  0.00  0.00    +0.022 C 
ATOM      8  C   UNL     1      -2.115   2.199  25.046  0.00  0.00    +0.226 C 
ATOM      9  O   UNL     1      -2.277   2.198  25.855  0.00  0.00    -0.275 OA
ENDBRANCH  10   8
ENDBRANCH  11  10
TORSDOF 4
ENDMDL
MODEL 6
REMARK VINA RESULT:     -13.1      2.263      4.168
REMARK  Name = 
REMARK  4 active torsions:
REMARK  status: ('A' for Active; 'I' for Inactive)
REMARK    1  A    between atoms: C_8  and  C_10
REMARK    2  A    between atoms: C_10  and  C_11
REMARK    3  A    between atoms: C_16  and  C_18
REMARK    4  A    between atoms: C_29  and  C_31
REMARK                            x       y       z     vdW  Elec       q    Type
REMARK                         _______ _______ _______ _____ _____    ______ ____
ROOT
ATOM     11  C   UNL     1      -1.649   0.327  24.550  0.00  0.00    +0.050 C 
ATOM     12  C   UNL     1      -0.974  -0.046  24.255  0.00  0.00    +0.063 A 
ATOM     13  C   UNL     1      -0.935  -0.870  24.230  0.00  0.00    +0.023 A 
ATOM     14  C   UNL     1      -1.572  -1.320  24.500  0.00  0.00    +0.034 C 
ATOM     15  C   UNL     1      -2.246  -0.948  24.795  0.00  0.00    +0.010 C 
ATOM     16  C   UNL     1      -2.881  -1.399  25.065  0.00  0.00    +0.059 C 
ATOM     17  C   UNL     1      -2.365  -2.001  24.837  0.00  0.00    +0.005 C 
ATOM     20  C   UNL     1      -3.556  -1.027  25.361  0.00  0.00    +0.154 C 
ATOM     21  O   UNL     1      -4.192  -1.477  25.631  0.00  0.00    -0.223 OA
ATOM     22  C   UNL     1      -3.594  -0.203  25.386  0.00  0.00    +0.033 C 
ATOM     23  C   UNL     1      -2.958   0.249  25.115  0.00  0.00    +0.003 C 
ATOM     24  C   UNL     1      -2.284  -0.125  24.820  0.00  0.00    +0.006 C 
ATOM     25  C   UNL     1      -2.323   0.699  24.845  0.00  0.00    +0.000 C 
ATOM     26  S   UNL     1      -0.204  -1.082  23.912  0.00  0.00    -0.054 S 
ATOM     27  C   UNL     1       0.209  -0.389  23.740  0.00  0.00    +0.185 A 
ATOM     28  N   UNL     1       0.965  -0.344  23.414  0.00  0.00    -0.151 NA
ATOM     29  C   UNL     1       1.310   0.393  23.272  0.00  0.00    +0.271 C 
ATOM     30  O   UNL     1       0.898   1.083  23.457  0.00  0.00    -0.268 OA
ATOM     38  N   UNL     1      -0.266   0.251  23.952  0.00  0.00    -0.227 NA
ENDROOT
BRANCH  29  31
ATOM     31  C   UNL     1       2.067   0.438  22.946  0.00  0.00    +0.056 A 
ATOM     32  C   UNL     1       2.255  -0.009  22.279  0.00  0.00    +0.007 A 
ATOM     33  C   UNL     1       3.011   0.036  21.953  0.00  0.00    +0.030 A 
ATOM     34  C   UNL     1       3.579   0.528  22.293  0.00  0.00    +0.140 A 
ATOM     35  F   UNL     1       4.336   0.574  21.966  0.00  0.00    -0.204 F 
ATOM     36  C   UNL     1       3.390   0.976  22.960  0.00  0.00    +0.030 A 
ATOM     37  C   UNL     1       2.634   0.931  23.287  0.00  0.00    +0.007 A 
ENDBRANCH  29  31
BRANCH  16  18
ATOM     18  C   UNL     1      -3.338  -2.059  25.256  0.00  0.00    +0.184 C 
ATOM     19  O   UNL     1      -3.123  -2.805  24.978  0.00  0.00    -0.220 OA
ENDBRANCH  16  18
BRANCH  11  10
ATOM     10  C   UNL     1      -1.687   1.150  24.575  0.00  0.00    +0.091 C 
BRANCH  10   8
ATOM      1  C   UNL     1      -1.037   4.847  25.023  0.00  0.00    +0.000 C 
ATOM      2  C   UNL     1      -1.106   4.026  25.063  0.00  0.00    +0.003 C 
ATOM      3  C   UNL     1      -1.481   3.613  24.456  0.00  0.00    +0.022 C 
ATOM      4  C   UNL     1      -1.550   2.792  24.495  0.00  0.00    +0.093 C 
ATOM      5  N   UNL     1      -1.243   2.384  25.142  0.00  0.00    -0.280 N 
ATOM      6  C   UNL     1      -0.867   2.796  25.750  0.00  0.00    +0.093 C 
ATOM      7  C   UNL     1      -0.799   3.617  25.710  0.00  0.00    +0.022 C 
ATOM      8  C   UNL     1      -1.312   1.563  25.182  0.00  0.00    +0.226 C 
ATOM      9  O   UNL     1      -1.005   1.153  25.829  0.00  0.00    -0.275 OA
ENDBRANCH  10   8
ENDBRANCH  11  10
TORSDOF 4
ENDMDL
MODEL 7
REMARK VINA RESULT:     -12.5      1.947      4.219
REMARK  Name = 
REMARK  4 active torsions:
REMARK  status: ('A' for Active; 'I' for Inactive)
REMARK    1  A    between atoms: C_8  and  C_10
REMARK    2  A    between atoms: C_10  and  C_11
REMARK    3  A    between atoms: C_16  and  C_18
REMARK    4  A    between atoms: C_29  and  C_31
REMARK                            x       y       z     vdW  Elec       q    Type
REMARK                         _______ _______ _______ _____ _____    ______ ____
ROOT
ATOM     11  C   UNL     1      -1.500   2.224  24.422  0.00  0.00    +0.050 C 
ATOM     12  C   UNL     1      -2.125   1.723  24.622  0.00  0.00    +0.063 A 
ATOM     13  C   UNL     1      -2.757   2.010  25.069  0.00  0.00    +0.023 A 
ATOM     14  C   UNL     1      -2.763   2.797  25.316  0.00  0.00    +0.034 C 
ATOM     15  C   UNL     1      -2.139   3.297  25.116  0.00  0.00    +0.010 C 
ATOM     16  C   UNL     1      -2.146   4.084  25.363  0.00  0.00    +0.059 C 
ATOM     17  C   UNL     1      -2.859   3.826  25.688  0.00  0.00    +0.005 C 
ATOM     20  C   UNL     1      -1.521   4.585  25.163  0.00  0.00    +0.154 C 
ATOM     21  O   UNL     1      -1.527   5.372  25.410  0.00  0.00    -0.223 OA
ATOM     22  C   UNL     1      -0.889   4.298  24.717  0.00  0.00    +0.033 C 
ATOM     23  C   UNL     1      -0.882   3.510  24.470  0.00  0.00    +0.003 C 
ATOM     24  C   UNL     1      -1.507   3.011  24.670  0.00  0.00    +0.006 C 
ATOM     25  C   UNL     1      -0.876   2.724  24.223  0.00  0.00    +0.000 C 
ATOM     26  S   UNL     1      -3.292   1.391  25.181  0.00  0.00    -0.054 S 
ATOM     27  C   UNL     1      -2.990   0.723  24.804  0.00  0.00    +0.185 A 
ATOM     28  N   UNL     1      -3.347  -0.020  24.777  0.00  0.00    -0.151 NA
ATOM     29  C   UNL     1      -2.979  -0.641  24.376  0.00  0.00    +0.271 C 
ATOM     30  O   UNL     1      -2.253  -0.517  24.003  0.00  0.00    -0.268 OA
ATOM     38  N   UNL     1      -2.270   0.927  24.458  0.00  0.00    -0.227 NA
ENDROOT
BRANCH  29  31
ATOM     31  C   UNL     1      -3.335  -1.384  24.349  0.00  0.00    +0.056 A 
ATOM     32  C   UNL     1      -3.980  -1.514  23.852  0.00  0.00    +0.007 A 
ATOM     33  C   UNL     1      -4.337  -2.257  23.825  0.00  0.00    +0.030 A 
ATOM     34  C   UNL     1      -4.049  -2.871  24.295  0.00  0.00    +0.140 A 
ATOM     35  F   UNL     1      -4.406  -3.614  24.267  0.00  0.00    -0.204 F 
ATOM     36  C   UNL     1      -3.403  -2.741  24.792  0.00  0.00    +0.030 A 
ATOM     37  C   UNL     1      -3.046  -1.998  24.819  0.00  0.00    +0.007 A 
ENDBRANCH  29  31
BRANCH  16  18
ATOM     18  C   UNL     1      -2.400   4.782  25.723  0.00  0.00    +0.184 C 
ATOM     19  O   UNL     1      -3.029   4.767  26.255  0.00  0.00    -0.220 OA
ENDBRANCH  16  18
BRANCH  11  10
ATOM     10  C   UNL     1      -0.869   1.937  23.976  0.00  0.00    +0.091 C 
BRANCH  10   8
ATOM      1  C   UNL     1       1.688  -0.414  22.483  0.00  0.00    +0.000 C 
ATOM      2  C   UNL     1       1.194   0.058  22.946  0.00  0.00    +0.003 C 
ATOM      3  C   UNL     1       0.612   0.521  22.589  0.00  0.00    +0.022 C 
ATOM      4  C   UNL     1       0.118   0.993  23.051  0.00  0.00    +0.093 C 
ATOM      5  N   UNL     1       0.206   1.002  23.871  0.00  0.00    -0.280 N 
ATOM      6  C   UNL     1       0.787   0.540  24.228  0.00  0.00    +0.093 C 
ATOM      7  C   UNL     1       1.281   0.068  23.766  0.00  0.00    +0.022 C 
ATOM      8  C   UNL     1      -0.288   1.474  24.333  0.00  0.00    +0.226 C 
ATOM      9  O   UNL     1      -0.200   1.484  25.153  0.00  0.00    -0.275 OA
ENDBRANCH  10   8
ENDBRANCH  11  10
TORSDOF 4
ENDMDL
MODEL 8
REMARK VINA RESULT:     -12.2     16.306     19.033
REMARK  Name = 
REMARK  4 active torsions:
REMARK  status: ('A' for Active; 'I' for Inactive)
REMARK    1  A    between atoms: C_8  and  C_10
REMARK    2  A    between atoms: C_10  and  C_11
REMARK    3  A    between atoms: C_16  and  C_18
REMARK    4  A    between atoms: C_29  and  C_31
REMARK                            x       y       z     vdW  Elec       q    Type
REMARK                         _______ _______ _______ _____ _____    ______ ____
ROOT
ATOM     11  C   UNL     1      14.337   7.501  20.190  0.00  0.00    +0.050 C 
ATOM     12  C   UNL     1      14.176   7.549  19.382  0.00  0.00    +0.063 A 
ATOM     13  C   UNL     1      14.735   7.290  18.834  0.00  0.00    +0.023 A 
ATOM     14  C   UNL     1      15.455   6.981  19.094  0.00  0.00    +0.034 C 
ATOM     15  C   UNL     1      15.616   6.933  19.901  0.00  0.00    +0.010 C 
ATOM     16  C   UNL     1      16.335   6.625  20.161  0.00  0.00    +0.059 C 
ATOM     17  C   UNL     1      16.437   6.558  19.345  0.00  0.00    +0.005 C 
ATOM     20  C   UNL     1      16.496   6.576  20.969  0.00  0.00    +0.154 C 
ATOM     21  O   UNL     1      17.216   6.268  21.229  0.00  0.00    -0.223 OA
ATOM     22  C   UNL     1      15.937   6.836  21.517  0.00  0.00    +0.033 C 
ATOM     23  C   UNL     1      15.217   7.145  21.257  0.00  0.00    +0.003 C 
ATOM     24  C   UNL     1      15.057   7.193  20.449  0.00  0.00    +0.006 C 
ATOM     25  C   UNL     1      14.497   7.453  20.998  0.00  0.00    +0.000 C 
ATOM     26  S   UNL     1      14.424   7.405  18.078  0.00  0.00    -0.054 S 
ATOM     27  C   UNL     1      13.674   7.736  18.160  0.00  0.00    +0.185 A 
ATOM     28  N   UNL     1      13.166   7.942  17.543  0.00  0.00    -0.151 NA
ATOM     29  C   UNL     1      12.426   8.270  17.710  0.00  0.00    +0.271 C 
ATOM     30  O   UNL     1      12.197   8.392  18.493  0.00  0.00    -0.268 OA
ATOM     38  N   UNL     1      13.519   7.826  18.965  0.00  0.00    -0.227 NA
ENDROOT
BRANCH  29  31
ATOM     31  C   UNL     1      11.918   8.476  17.094  0.00  0.00    +0.056 A 
ATOM     32  C   UNL     1      11.112   8.314  17.153  0.00  0.00    +0.007 A 
ATOM     33  C   UNL     1      10.603   8.520  16.537  0.00  0.00    +0.030 A 
ATOM     34  C   UNL     1      10.901   8.888  15.861  0.00  0.00    +0.140 A 
ATOM     35  F   UNL     1      10.393   9.094  15.245  0.00  0.00    -0.204 F 
ATOM     36  C   UNL     1      11.709   9.050  15.802  0.00  0.00    +0.030 A 
ATOM     37  C   UNL     1      12.217   8.844  16.418  0.00  0.00    +0.007 A 
ENDBRANCH  29  31
BRANCH  16  18
ATOM     18  C   UNL     1      17.091   6.294  20.138  0.00  0.00    +0.184 C 
ATOM     19  O   UNL     1      17.351   5.907  19.458  0.00  0.00    -0.220 OA
ENDBRANCH  16  18
BRANCH  11  10
ATOM     10  C   UNL     1      13.778   7.761  20.738  0.00  0.00    +0.091 C 
BRANCH  10   8
ATOM      1  C   UNL     1      10.583   8.535  22.605  0.00  0.00    +0.000 C 
ATOM      2  C   UNL     1      11.221   8.221  22.187  0.00  0.00    +0.003 C 
ATOM      3  C   UNL     1      11.864   8.701  21.993  0.00  0.00    +0.022 C 
ATOM      4  C   UNL     1      12.502   8.387  21.575  0.00  0.00    +0.093 C 
ATOM      5  N   UNL     1      12.497   7.594  21.350  0.00  0.00    -0.280 N 
ATOM      6  C   UNL     1      11.855   7.114  21.542  0.00  0.00    +0.093 C 
ATOM      7  C   UNL     1      11.217   7.428  21.961  0.00  0.00    +0.022 C 
ATOM      8  C   UNL     1      13.135   7.281  20.931  0.00  0.00    +0.226 C 
ATOM      9  O   UNL     1      13.132   6.488  20.705  0.00  0.00    -0.275 OA
ENDBRANCH  10   8
ENDBRANCH  11  10
TORSDOF 4
ENDMDL
MODEL 9
REMARK VINA RESULT:     -12.0      2.441      4.783
REMARK  Name = 
REMARK  4 active torsions:
REMARK  status: ('A' for Active; 'I' for Inactive)
REMARK    1  A    between atoms: C_8  and  C_10
REMARK    2  A    between atoms: C_10  and  C_11
REMARK    3  A    between atoms: C_16  and  C_18
REMARK    4  A    between atoms: C_29  and  C_31
REMARK                            x       y       z     vdW  Elec       q    Type
REMARK                         _______ _______ _______ _____ _____    ______ ____
ROOT
ATOM     11  C   UNL     1      -1.315  -0.401  24.535  0.00  0.00    +0.050 C 
ATOM     12  C   UNL     1      -1.693   0.308  24.724  0.00  0.00    +0.063 A 
ATOM     13  C   UNL     1      -2.482   0.303  24.967  0.00  0.00    +0.023 A 
ATOM     14  C   UNL     1      -2.892  -0.412  25.021  0.00  0.00    +0.034 C 
ATOM     15  C   UNL     1      -2.514  -1.120  24.832  0.00  0.00    +0.010 C 
ATOM     16  C   UNL     1      -2.924  -1.833  24.886  0.00  0.00    +0.059 C 
ATOM     17  C   UNL     1      -3.516  -1.309  25.122  0.00  0.00    +0.005 C 
ATOM     20  C   UNL     1      -2.546  -2.542  24.697  0.00  0.00    +0.154 C 
ATOM     21  O   UNL     1      -2.956  -3.256  24.751  0.00  0.00    -0.223 OA
ATOM     22  C   UNL     1      -1.758  -2.537  24.454  0.00  0.00    +0.033 C 
ATOM     23  C   UNL     1      -1.347  -1.823  24.400  0.00  0.00    +0.003 C 
ATOM     24  C   UNL     1      -1.726  -1.115  24.589  0.00  0.00    +0.006 C 
ATOM     25  C   UNL     1      -0.937  -1.109  24.346  0.00  0.00    +0.000 C 
ATOM     26  S   UNL     1      -2.708   1.082  25.116  0.00  0.00    -0.054 S 
ATOM     27  C   UNL     1      -2.059   1.568  24.966  0.00  0.00    +0.185 A 
ATOM     28  N   UNL     1      -2.041   2.389  25.043  0.00  0.00    -0.151 NA
ATOM     29  C   UNL     1      -1.348   2.805  24.872  0.00  0.00    +0.271 C 
ATOM     30  O   UNL     1      -0.675   2.398  24.622  0.00  0.00    -0.268 OA
ATOM     38  N   UNL     1      -1.432   1.091  24.723  0.00  0.00    -0.227 NA
ENDROOT
BRANCH  29  31
ATOM     31  C   UNL     1      -1.329   3.626  24.950  0.00  0.00    +0.056 A 
ATOM     32  C   UNL     1      -1.938   4.016  25.346  0.00  0.00    +0.007 A 
ATOM     33  C   UNL     1      -1.919   4.837  25.424  0.00  0.00    +0.030 A 
ATOM     34  C   UNL     1      -1.292   5.268  25.105  0.00  0.00    +0.140 A 
ATOM     35  F   UNL     1      -1.273   6.089  25.183  0.00  0.00    -0.204 F 
ATOM     36  C   UNL     1      -0.683   4.877  24.708  0.00  0.00    +0.030 A 
ATOM     37  C   UNL     1      -0.702   4.056  24.631  0.00  0.00    +0.007 A 
ENDBRANCH  29  31
BRANCH  16  18
ATOM     18  C   UNL     1      -3.540  -2.365  25.022  0.00  0.00    +0.184 C 
ATOM     19  O   UNL     1      -4.311  -2.169  24.806  0.00  0.00    -0.220 OA
ENDBRANCH  16  18
BRANCH  11  10
ATOM     10  C   UNL     1      -0.528  -0.396  24.292  0.00  0.00    +0.091 C 
BRANCH  10   8
ATOM      1  C   UNL     1       2.816   0.130  22.606  0.00  0.00    +0.000 C 
ATOM      2  C   UNL     1       2.027   0.040  22.831  0.00  0.00    +0.003 C 
ATOM      3  C   UNL     1       1.838  -0.127  23.617  0.00  0.00    +0.022 C 
ATOM      4  C   UNL     1       1.050  -0.217  23.842  0.00  0.00    +0.093 C 
ATOM      5  N   UNL     1       0.450  -0.140  23.281  0.00  0.00    -0.280 N 
ATOM      6  C   UNL     1       0.638   0.027  22.496  0.00  0.00    +0.093 C 
ATOM      7  C   UNL     1       1.427   0.117  22.271  0.00  0.00    +0.022 C 
ATOM      8  C   UNL     1      -0.339  -0.229  23.507  0.00  0.00    +0.226 C 
ATOM      9  O   UNL     1      -0.939  -0.152  22.947  0.00  0.00    -0.275 OA
ENDBRANCH  10   8
ENDBRANCH  11  10
TORSDOF 4
ENDMDL
