MODEL 1
REMARK VINA RESULT:     -12.0      0.000      0.000
REMARK  Name = 
REMARK  4 active torsions:
REMARK  status: ('A' for Active; 'I' for Inactive)
REMARK    1  A    between atoms: O_2  and  C_3
REMARK    2  A    between atoms: C_8  and  C_9
REMARK    3  A    between atoms: C_9  and  N_10
REMARK    4  A    between atoms: C_13  and  C_15
REMARK                            x       y       z     vdW  Elec       q    Type
REMARK                         _______ _______ _______ _____ _____    ______ ____
ROOT
ATOM     10  N   UNL     1      -3.762   2.345  24.435  0.00  0.00    -0.268 NA
ATOM     11  C   UNL     1      -4.576   2.258  24.533  0.00  0.00    +0.073 C 
ATOM     12  C   UNL     1      -4.738   1.452  24.615  0.00  0.00    +0.028 C 
ATOM     13  C   UNL     1      -4.023   1.043  24.567  0.00  0.00    +0.094 C 
ATOM     14  C   UNL     1      -3.420   1.594  24.456  0.00  0.00    +0.082 C 
ENDROOT
BRANCH  13  15
ATOM     15  C   UNL     1      -3.929   0.225  24.622  0.00  0.00    +0.207 A 
ATOM     16  N   UNL     1      -4.100  -0.323  24.030  0.00  0.00    -0.212 NA
ATOM     17  C   UNL     1      -3.923  -1.075  24.320  0.00  0.00    +0.118 A 
ATOM     18  C   UNL     1      -3.643  -0.991  25.092  0.00  0.00    +0.164 A 
ATOM     19  O   UNL     1      -3.646  -0.188  25.279  0.00  0.00    -0.438 OA
ATOM     20  C   UNL     1      -3.421  -1.658  25.524  0.00  0.00    +0.039 A 
ATOM     21  C   UNL     1      -3.479  -2.407  25.186  0.00  0.00    -0.001 A 
ATOM     22  C   UNL     1      -3.759  -2.491  24.414  0.00  0.00    -0.020 A 
ATOM     23  C   UNL     1      -3.818  -3.241  24.075  0.00  0.00    +0.031 C 
ATOM     24  C   UNL     1      -3.981  -1.825  23.981  0.00  0.00    +0.018 A 
ENDBRANCH  13  15
BRANCH  10   9
ATOM      9  C   UNL     1      -3.360   3.058  24.333  0.00  0.00    +0.102 C 
BRANCH   9   8
ATOM      3  C   UNL     1      -2.340   3.751  25.055  0.00  0.00    +0.136 A 
ATOM      4  C   UNL     1      -2.102   4.188  25.713  0.00  0.00    +0.037 A 
ATOM      5  C   UNL     1      -2.645   4.368  26.307  0.00  0.00    +0.003 A 
ATOM      6  C   UNL     1      -3.426   4.113  26.243  0.00  0.00    -0.000 A 
ATOM      7  C   UNL     1      -3.665   3.676  25.585  0.00  0.00    +0.000 A 
ATOM      8  C   UNL     1      -3.121   3.495  24.991  0.00  0.00    +0.028 A 
BRANCH   3   2
ATOM      1  C   UNL     1      -1.016   3.831  24.523  0.00  0.00    +0.252 C 
ATOM      2  O   UNL     1      -1.796   3.570  24.462  0.00  0.00    -0.472 OA
ENDBRANCH   3   2
ENDBRANCH   9   8
ENDBRANCH  10   9
TORSDOF 4
ENDMDL
MODEL 2
REMARK VINA RESULT:     -11.9      0.979      5.083
REMARK  Name = 
REMARK  4 active torsions:
REMARK  status: ('A' for Active; 'I' for Inactive)
REMARK    1  A    between atoms: O_2  and  C_3
REMARK    2  A    between atoms: C_8  and  C_9
REMARK    3  A    between atoms: C_9  and  N_10
REMARK    4  A    between atoms: C_13  and  C_15
REMARK                            x       y       z     vdW  Elec       q    Type
REMARK                         _______ _______ _______ _____ _____    ______ ____
ROOT
ATOM     10  N   UNL     1      -4.149   0.548  24.605  0.00  0.00    -0.268 NA
ATOM     11  C   UNL     1      -4.717   1.032  24.956  0.00  0.00    +0.073 C 
ATOM     12  C   UNL     1      -4.366   1.762  25.117  0.00  0.00    +0.028 C 
ATOM     13  C   UNL     1      -3.581   1.728  24.864  0.00  0.00    +0.094 C 
ATOM     14  C   UNL     1      -3.447   0.978  24.548  0.00  0.00    +0.082 C 
ENDROOT
BRANCH  13  15
ATOM     15  C   UNL     1      -3.027   2.338  24.919  0.00  0.00    +0.207 A 
ATOM     16  N   UNL     1      -3.193   3.145  24.912  0.00  0.00    -0.212 NA
ATOM     17  C   UNL     1      -2.479   3.553  24.979  0.00  0.00    +0.118 A 
ATOM     18  C   UNL     1      -1.872   2.997  25.028  0.00  0.00    +0.164 A 
ATOM     19  O   UNL     1      -2.210   2.246  24.991  0.00  0.00    -0.438 OA
ATOM     20  C   UNL     1      -1.089   3.247  25.100  0.00  0.00    +0.039 A 
ATOM     21  C   UNL     1      -0.913   4.052  25.122  0.00  0.00    -0.001 A 
ATOM     22  C   UNL     1      -1.521   4.608  25.073  0.00  0.00    -0.020 A 
ATOM     23  C   UNL     1      -1.346   5.414  25.096  0.00  0.00    +0.031 C 
ATOM     24  C   UNL     1      -2.304   4.359  25.002  0.00  0.00    +0.018 A 
ENDBRANCH  13  15
BRANCH  10   9
ATOM      9  C   UNL     1      -4.262  -0.229  24.354  0.00  0.00    +0.102 C 
BRANCH   9   8
ATOM      3  C   UNL     1      -3.907  -1.609  24.461  0.00  0.00    +0.136 A 
ATOM      4  C   UNL     1      -3.590  -2.234  24.898  0.00  0.00    +0.037 A 
ATOM      5  C   UNL     1      -3.314  -2.103  25.663  0.00  0.00    +0.003 A 
ATOM      6  C   UNL     1      -3.353  -1.348  25.993  0.00  0.00    -0.000 A 
ATOM      7  C   UNL     1      -3.669  -0.723  25.556  0.00  0.00    +0.000 A 
ATOM      8  C   UNL     1      -3.946  -0.854  24.790  0.00  0.00    +0.028 A 
BRANCH   3   2
ATOM      1  C   UNL     1      -4.246  -2.511  23.405  0.00  0.00    +0.252 C 
ATOM      2  O   UNL     1      -4.184  -1.740  23.695  0.00  0.00    -0.472 OA
ENDBRANCH   3   2
ENDBRANCH   9   8
ENDBRANCH  10   9
TORSDOF 4
ENDMDL
MODEL 3
REMARK VINA RESULT:     -11.7      1.058      1.664
REMARK  Name = 
REMARK  4 active torsions:
REMARK  status: ('A' for Active; 'I' for Inactive)
REMARK    1  A    between atoms: O_2  and  C_3
REMARK    2  A    between atoms: C_8  and  C_9
REMARK    3  A    between atoms: C_9  and  N_10
REMARK    4  A    between atoms: C_13  and  C_15
REMARK                            x       y       z     vdW  Elec       q    Type
REMARK                         _______ _______ _______ _____ _____    ______ ____
ROOT
ATOM     10  N   UNL     1      -3.449   2.248  23.871  0.00  0.00    -0.268 NA
ATOM     11  C   UNL     1      -2.839   2.077  23.342  0.00  0.00    +0.073 C 
ATOM     12  C   UNL     1      -2.751   1.257  23.311  0.00  0.00    +0.028 C 
ATOM     13  C   UNL     1      -3.306   0.921  23.821  0.00  0.00    +0.094 C 
ATOM     14  C   UNL     1      -3.737   1.534  24.167  0.00  0.00    +0.082 C 
ENDROOT
BRANCH  13  15
ATOM     15  C   UNL     1      -3.411   0.115  23.961  0.00  0.00    +0.207 A 
ATOM     16  N   UNL     1      -2.939  -0.359  24.443  0.00  0.00    -0.212 NA
ATOM     17  C   UNL     1      -3.243  -1.125  24.423  0.00  0.00    +0.118 A 
ATOM     18  C   UNL     1      -3.903  -1.125  23.927  0.00  0.00    +0.164 A 
ATOM     19  O   UNL     1      -4.007  -0.359  23.642  0.00  0.00    -0.438 OA
ATOM     20  C   UNL     1      -4.324  -1.824  23.801  0.00  0.00    +0.039 A 
ATOM     21  C   UNL     1      -4.085  -2.522  24.169  0.00  0.00    -0.001 A 
ATOM     22  C   UNL     1      -3.425  -2.522  24.664  0.00  0.00    -0.020 A 
ATOM     23  C   UNL     1      -3.185  -3.220  25.033  0.00  0.00    +0.031 C 
ATOM     24  C   UNL     1      -3.004  -1.824  24.791  0.00  0.00    +0.018 A 
ENDBRANCH  13  15
BRANCH  10   9
ATOM      9  C   UNL     1      -3.723   3.000  24.069  0.00  0.00    +0.102 C 
BRANCH   9   8
ATOM      3  C   UNL     1      -4.012   3.664  25.301  0.00  0.00    +0.136 A 
ATOM      4  C   UNL     1      -3.752   4.028  25.995  0.00  0.00    +0.037 A 
ATOM      5  C   UNL     1      -2.944   4.092  26.149  0.00  0.00    +0.003 A 
ATOM      6  C   UNL     1      -2.396   3.793  25.611  0.00  0.00    -0.000 A 
ATOM      7  C   UNL     1      -2.655   3.429  24.917  0.00  0.00    +0.000 A 
ATOM      8  C   UNL     1      -3.464   3.364  24.763  0.00  0.00    +0.028 A 
BRANCH   3   2
ATOM      1  C   UNL     1      -5.368   3.890  25.691  0.00  0.00    +0.252 C 
ATOM      2  O   UNL     1      -4.819   3.600  25.147  0.00  0.00    -0.472 OA
ENDBRANCH   3   2
ENDBRANCH   9   8
ENDBRANCH  10   9
TORSDOF 4
ENDMDL
