REMARK  Name = 
REMARK  7 active torsions:
REMARK  status: ('A' for Active; 'I' for Inactive)
REMARK    1  A    between atoms: C_2  and  C_4
REMARK    2  A    between atoms: C_4  and  C_5
REMARK    3  A    between atoms: C_4  and  N_12
REMARK    4  A    between atoms: C_5  and  C_6
REMARK    5  A    between atoms: C_13  and  C_15
REMARK    6  A    between atoms: C_21  and  C_23
REMARK    7  A    between atoms: C_28  and  C_30
REMARK                            x       y       z     vdW  Elec       q    Type
REMARK                         _______ _______ _______ _____ _____    ______ ____
ROOT
ATOM     15  C   UNL     1       5.609   0.640   0.000  0.00  0.00    +0.174 C 
ATOM     16  C   UNL     1       6.324   1.053   0.000  0.00  0.00    +0.123 C 
ATOM     17  N   UNL     1       7.038   0.640   0.000  0.00  0.00    -0.276 N 
ATOM     18  C   UNL     1       7.038  -0.185   0.000  0.00  0.00    +0.115 C 
ATOM     19  C   UNL     1       6.324  -0.597   0.000  0.00  0.00    +0.116 C 
ATOM     20  N   UNL     1       5.609  -0.185   0.000  0.00  0.00    -0.266 N 
ATOM     21  C   UNL     1       4.895  -0.597   0.000  0.00  0.00    +0.255 C 
ATOM     22  O   UNL     1       4.180  -0.185   0.000  0.00  0.00    -0.269 OA
ATOM     28  C   UNL     1       7.753   1.053   0.000  0.00  0.00    +0.225 C 
ATOM     29  O   UNL     1       7.753   1.878   0.000  0.00  0.00    -0.275 OA
ENDROOT
BRANCH  28  30
ATOM     30  C   UNL     1       8.467   0.640   0.000  0.00  0.00    +0.080 C 
ATOM     31  C   UNL     1       9.181   1.053   0.000  0.00  0.00    +0.028 C 
ATOM     32  C   UNL     1       9.896   0.640   0.000  0.00  0.00    +0.089 C 
ATOM     33  N   UNL     1       9.896  -0.185   0.000  0.00  0.00    -0.218 NA
ATOM     34  C   UNL     1       9.181  -0.597   0.000  0.00  0.00    +0.089 C 
ATOM     35  C   UNL     1       8.467  -0.185   0.000  0.00  0.00    +0.028 C 
ENDBRANCH  28  30
BRANCH  21  23
ATOM     23  C   UNL     1       4.895  -1.422   0.000  0.00  0.00    +0.083 A 
ATOM     24  C   UNL     1       5.562  -1.907   0.000  0.00  0.00    +0.012 A 
ATOM     25  C   UNL     1       5.307  -2.692   0.000  0.00  0.00    +0.008 A 
ATOM     26  C   UNL     1       4.482  -2.692   0.000  0.00  0.00    +0.036 A 
ATOM     27  S   UNL     1       4.227  -1.907   0.000  0.00  0.00    -0.082 S 
ENDBRANCH  21  23
BRANCH  15  13
ATOM     12  N   UNL     1       4.180   0.640   0.000  0.00  0.00    -0.196 NA
ATOM     13  C   UNL     1       4.895   1.053   0.000  0.00  0.00    +0.262 C 
ATOM     14  O   UNL     1       4.895   1.878   0.000  0.00  0.00    -0.271 OA
BRANCH  12   4
ATOM      4  C   UNL     1       3.466   1.053   0.000  0.00  0.00    +0.174 C 
BRANCH   4   2
ATOM      1  N   UNL     1       4.180   2.290   0.000  0.00  0.00    -0.086 NA
ATOM      2  C   UNL     1       3.466   1.878   0.000  0.00  0.00    +0.281 C 
ATOM      3  O   UNL     1       2.751   2.290   0.000  0.00  0.00    -0.270 OA
ENDBRANCH   4   2
BRANCH   4   5
ATOM      5  C   UNL     1       2.751   0.640   0.000  0.00  0.00    +0.031 C 
BRANCH   5   6
ATOM      6  C   UNL     1       2.037   1.053   0.000  0.00  0.00    +0.002 C 
ATOM      7  C   UNL     1       1.322   0.640   0.000  0.00  0.00    +0.000 C 
ATOM      8  C   UNL     1       0.608   1.053   0.000  0.00  0.00    +0.000 C 
ATOM      9  C   UNL     1       0.608   1.878   0.000  0.00  0.00    +0.000 C 
ATOM     10  C   UNL     1       1.322   2.290   0.000  0.00  0.00    +0.000 C 
ATOM     11  C   UNL     1       2.037   1.878   0.000  0.00  0.00    +0.000 C 
ENDBRANCH   5   6
ENDBRANCH   4   5
ENDBRANCH  12   4
ENDBRANCH  15  13
TORSDOF 7
