MODEL 1
REMARK VINA RESULT:     -15.5      0.000      0.000
REMARK  Name = 
REMARK  4 active torsions:
REMARK  status: ('A' for Active; 'I' for Inactive)
REMARK    1  A    between atoms: C_2  and  C_3
REMARK    2  A    between atoms: C_11  and  C_12
REMARK    3  A    between atoms: C_12  and  C_13
REMARK    4  A    between atoms: C_28  and  C_30
REMARK                            x       y       z     vdW  Elec       q    Type
REMARK                         _______ _______ _______ _____ _____    ______ ____
ROOT
ATOM      1  C   UNL     1      -0.478   4.362  24.712  0.00  0.00    +0.005 C 
ATOM      2  C   UNL     1      -1.149   3.900  24.841  0.00  0.00    +0.059 C 
ATOM      5  C   UNL     1      -1.437   4.638  25.069  0.00  0.00    +0.154 C 
ATOM      6  O   UNL     1      -0.948   5.302  25.035  0.00  0.00    -0.223 OA
ATOM      7  C   UNL     1      -2.216   4.714  25.332  0.00  0.00    +0.033 C 
ATOM      8  C   UNL     1      -2.706   4.051  25.366  0.00  0.00    +0.003 C 
ATOM      9  C   UNL     1      -2.418   3.313  25.139  0.00  0.00    +0.006 C 
ATOM     10  C   UNL     1      -3.195   3.389  25.401  0.00  0.00    +0.000 C 
ATOM     11  C   UNL     1      -2.907   2.650  25.173  0.00  0.00    +0.050 C 
ATOM     21  C   UNL     1      -2.619   1.912  24.945  0.00  0.00    +0.063 A 
ATOM     22  C   UNL     1      -1.839   1.836  24.682  0.00  0.00    +0.023 A 
ATOM     23  C   UNL     1      -1.350   2.499  24.648  0.00  0.00    +0.034 C 
ATOM     24  C   UNL     1      -1.638   3.238  24.876  0.00  0.00    +0.010 C 
ATOM     25  S   UNL     1      -1.710   1.043  24.495  0.00  0.00    -0.054 S 
ATOM     26  C   UNL     1      -2.408   0.628  24.642  0.00  0.00    +0.185 A 
ATOM     27  N   UNL     1      -2.524  -0.181  24.530  0.00  0.00    -0.151 NA
ATOM     28  C   UNL     1      -3.256  -0.519  24.702  0.00  0.00    +0.271 C 
ATOM     29  O   UNL     1      -3.872  -0.050  24.985  0.00  0.00    -0.268 OA
ATOM     37  N   UNL     1      -2.969   1.165  24.920  0.00  0.00    -0.227 NA
ENDROOT
BRANCH  28  30
ATOM     30  C   UNL     1      -3.372  -1.329  24.590  0.00  0.00    +0.058 A 
ATOM     31  C   UNL     1      -2.914  -1.873  25.009  0.00  0.00    +0.005 A 
ATOM     32  C   UNL     1      -3.030  -2.682  24.898  0.00  0.00    +0.002 A 
ATOM     33  C   UNL     1      -3.604  -2.947  24.367  0.00  0.00    +0.030 A 
ATOM     34  C   UNL     1      -4.061  -2.403  23.948  0.00  0.00    +0.140 A 
ATOM     35  F   UNL     1      -4.635  -2.668  23.418  0.00  0.00    -0.204 F 
ATOM     36  C   UNL     1      -3.945  -1.594  24.060  0.00  0.00    +0.034 A 
ENDBRANCH  28  30
BRANCH   2   3
ATOM      3  C   UNL     1      -0.627   3.323  24.568  0.00  0.00    +0.184 C 
ATOM      4  O   UNL     1       0.120   3.538  24.293  0.00  0.00    -0.220 OA
ENDBRANCH   2   3
BRANCH  11  12
ATOM     12  C   UNL     1      -3.685   2.725  25.436  0.00  0.00    +0.091 C 
BRANCH  12  13
ATOM     13  C   UNL     1      -4.310   2.654  24.901  0.00  0.00    +0.226 C 
ATOM     14  O   UNL     1      -4.174   2.750  24.093  0.00  0.00    -0.275 OA
ATOM     15  N   UNL     1      -5.070   2.488  25.174  0.00  0.00    -0.274 N 
ATOM     16  C   UNL     1      -5.695   2.418  24.640  0.00  0.00    +0.125 C 
ATOM     17  C   UNL     1      -6.455   2.252  24.913  0.00  0.00    +0.164 C 
ATOM     18  O   UNL     1      -6.591   2.156  25.721  0.00  0.00    -0.350 OA
ATOM     19  C   UNL     1      -5.967   2.227  26.256  0.00  0.00    +0.164 C 
ATOM     20  C   UNL     1      -5.206   2.393  25.983  0.00  0.00    +0.125 C 
ENDBRANCH  12  13
ENDBRANCH  11  12
TORSDOF 4
ENDMDL
MODEL 2
REMARK VINA RESULT:     -15.1      1.863      4.899
REMARK  Name = 
REMARK  4 active torsions:
REMARK  status: ('A' for Active; 'I' for Inactive)
REMARK    1  A    between atoms: C_2  and  C_3
REMARK    2  A    between atoms: C_11  and  C_12
REMARK    3  A    between atoms: C_12  and  C_13
REMARK    4  A    between atoms: C_28  and  C_30
REMARK                            x       y       z     vdW  Elec       q    Type
REMARK                         _______ _______ _______ _____ _____    ______ ____
ROOT
ATOM      1  C   UNL     1      -2.422  -2.809  24.437  0.00  0.00    +0.005 C 
ATOM      2  C   UNL     1      -2.730  -2.045  24.468  0.00  0.00    +0.059 C 
ATOM      5  C   UNL     1      -3.429  -2.479  24.408  0.00  0.00    +0.154 C 
ATOM      6  O   UNL     1      -3.401  -3.302  24.360  0.00  0.00    -0.223 OA
ATOM      7  C   UNL     1      -4.157  -2.089  24.397  0.00  0.00    +0.033 C 
ATOM      8  C   UNL     1      -4.185  -1.266  24.445  0.00  0.00    +0.003 C 
ATOM      9  C   UNL     1      -3.487  -0.833  24.504  0.00  0.00    +0.006 C 
ATOM     10  C   UNL     1      -4.213  -0.444  24.493  0.00  0.00    +0.000 C 
ATOM     11  C   UNL     1      -3.514  -0.009  24.552  0.00  0.00    +0.050 C 
ATOM     21  C   UNL     1      -2.816   0.424  24.612  0.00  0.00    +0.063 A 
ATOM     22  C   UNL     1      -2.088   0.035  24.624  0.00  0.00    +0.023 A 
ATOM     23  C   UNL     1      -2.060  -0.788  24.576  0.00  0.00    +0.034 C 
ATOM     24  C   UNL     1      -2.759  -1.222  24.516  0.00  0.00    +0.010 C 
ATOM     25  S   UNL     1      -1.495   0.606  24.686  0.00  0.00    -0.054 S 
ATOM     26  C   UNL     1      -1.856   1.347  24.714  0.00  0.00    +0.185 A 
ATOM     27  N   UNL     1      -1.468   2.073  24.776  0.00  0.00    -0.151 NA
ATOM     28  C   UNL     1      -1.904   2.772  24.797  0.00  0.00    +0.271 C 
ATOM     29  O   UNL     1      -2.728   2.747  24.756  0.00  0.00    -0.268 OA
ATOM     37  N   UNL     1      -2.671   1.235  24.668  0.00  0.00    -0.227 NA
ENDROOT
BRANCH  28  30
ATOM     30  C   UNL     1      -1.517   3.498  24.859  0.00  0.00    +0.058 A 
ATOM     31  C   UNL     1      -0.745   3.579  24.578  0.00  0.00    +0.005 A 
ATOM     32  C   UNL     1      -0.358   4.305  24.640  0.00  0.00    +0.002 A 
ATOM     33  C   UNL     1      -0.743   4.949  24.983  0.00  0.00    +0.030 A 
ATOM     34  C   UNL     1      -1.513   4.868  25.264  0.00  0.00    +0.140 A 
ATOM     35  F   UNL     1      -1.898   5.512  25.607  0.00  0.00    -0.204 F 
ATOM     36  C   UNL     1      -1.901   4.142  25.202  0.00  0.00    +0.034 A 
ENDBRANCH  28  30
BRANCH   2   3
ATOM      3  C   UNL     1      -1.924  -1.877  24.517  0.00  0.00    +0.184 C 
ATOM      4  O   UNL     1      -1.374  -2.492  24.530  0.00  0.00    -0.220 OA
ENDBRANCH   2   3
BRANCH  11  12
ATOM     12  C   UNL     1      -4.242   0.380  24.541  0.00  0.00    +0.091 C 
BRANCH  12  13
ATOM     13  C   UNL     1      -4.569   0.664  25.243  0.00  0.00    +0.226 C 
ATOM     14  O   UNL     1      -4.298   0.380  25.969  0.00  0.00    -0.275 OA
ATOM     15  N   UNL     1      -5.166   1.232  25.220  0.00  0.00    -0.274 N 
ATOM     16  C   UNL     1      -5.493   1.516  25.922  0.00  0.00    +0.125 C 
ATOM     17  C   UNL     1      -6.091   2.085  25.898  0.00  0.00    +0.164 C 
ATOM     18  O   UNL     1      -6.361   2.369  25.173  0.00  0.00    -0.350 OA
ATOM     19  C   UNL     1      -6.034   2.085  24.470  0.00  0.00    +0.164 C 
ATOM     20  C   UNL     1      -5.437   1.517  24.494  0.00  0.00    +0.125 C 
ENDBRANCH  12  13
ENDBRANCH  11  12
TORSDOF 4
ENDMDL
MODEL 3
REMARK VINA RESULT:     -14.4      2.207      4.140
REMARK  Name = 
REMARK  4 active torsions:
REMARK  status: ('A' for Active; 'I' for Inactive)
REMARK    1  A    between atoms: C_2  and  C_3
REMARK    2  A    between atoms: C_11  and  C_12
REMARK    3  A    between atoms: C_12  and  C_13
REMARK    4  A    between atoms: C_28  and  C_30
REMARK                            x       y       z     vdW  Elec       q    Type
REMARK                         _______ _______ _______ _____ _____    ______ ____
ROOT
ATOM      1  C   UNL     1      -5.194   3.496  25.559  0.00  0.00    +0.005 C 
ATOM      2  C   UNL     1      -4.819   2.808  25.301  0.00  0.00    +0.059 C 
ATOM      5  C   UNL     1      -5.582   2.519  25.421  0.00  0.00    +0.154 C 
ATOM      6  O   UNL     1      -6.177   3.023  25.690  0.00  0.00    -0.223 OA
ATOM      7  C   UNL     1      -5.750   1.724  25.273  0.00  0.00    +0.033 C 
ATOM      8  C   UNL     1      -5.155   1.220  25.004  0.00  0.00    +0.003 C 
ATOM      9  C   UNL     1      -4.393   1.510  24.884  0.00  0.00    +0.006 C 
ATOM     10  C   UNL     1      -4.560   0.717  24.735  0.00  0.00    +0.000 C 
ATOM     11  C   UNL     1      -3.797   1.006  24.615  0.00  0.00    +0.050 C 
ATOM     21  C   UNL     1      -3.034   1.295  24.495  0.00  0.00    +0.063 A 
ATOM     22  C   UNL     1      -2.866   2.090  24.643  0.00  0.00    +0.023 A 
ATOM     23  C   UNL     1      -3.461   2.594  24.912  0.00  0.00    +0.034 C 
ATOM     24  C   UNL     1      -4.225   2.305  25.032  0.00  0.00    +0.010 C 
ATOM     25  S   UNL     1      -2.069   2.217  24.475  0.00  0.00    -0.054 S 
ATOM     26  C   UNL     1      -1.743   1.502  24.223  0.00  0.00    +0.185 A 
ATOM     27  N   UNL     1      -0.959   1.379  23.998  0.00  0.00    -0.151 NA
ATOM     28  C   UNL     1      -0.713   0.630  23.758  0.00  0.00    +0.271 C 
ATOM     29  O   UNL     1      -1.250   0.003  23.741  0.00  0.00    -0.268 OA
ATOM     37  N   UNL     1      -2.340   0.933  24.235  0.00  0.00    -0.227 NA
ENDROOT
BRANCH  28  30
ATOM     30  C   UNL     1       0.071   0.506  23.533  0.00  0.00    +0.058 A 
ATOM     31  C   UNL     1       0.290  -0.204  23.173  0.00  0.00    +0.005 A 
ATOM     32  C   UNL     1       1.075  -0.328  22.948  0.00  0.00    +0.002 A 
ATOM     33  C   UNL     1       1.639   0.258  23.084  0.00  0.00    +0.030 A 
ATOM     34  C   UNL     1       1.421   0.967  23.443  0.00  0.00    +0.140 A 
ATOM     35  F   UNL     1       1.986   1.553  23.579  0.00  0.00    -0.204 F 
ATOM     36  C   UNL     1       0.637   1.091  23.668  0.00  0.00    +0.034 A 
ENDBRANCH  28  30
BRANCH   2   3
ATOM      3  C   UNL     1      -4.187   3.337  25.270  0.00  0.00    +0.184 C 
ATOM      4  O   UNL     1      -4.294   4.123  25.501  0.00  0.00    -0.220 OA
ENDBRANCH   2   3
BRANCH  11  12
ATOM     12  C   UNL     1      -3.965   0.212  24.466  0.00  0.00    +0.091 C 
BRANCH  12  13
ATOM     13  C   UNL     1      -3.710  -0.370  24.994  0.00  0.00    +0.226 C 
ATOM     14  O   UNL     1      -3.422  -0.154  25.737  0.00  0.00    -0.275 OA
ATOM     15  N   UNL     1      -3.745  -1.164  24.780  0.00  0.00    -0.274 N 
ATOM     16  C   UNL     1      -3.491  -1.746  25.307  0.00  0.00    +0.125 C 
ATOM     17  C   UNL     1      -3.526  -2.542  25.093  0.00  0.00    +0.164 C 
ATOM     18  O   UNL     1      -3.814  -2.756  24.351  0.00  0.00    -0.350 OA
ATOM     19  C   UNL     1      -4.069  -2.175  23.822  0.00  0.00    +0.164 C 
ATOM     20  C   UNL     1      -4.034  -1.380  24.037  0.00  0.00    +0.125 C 
ENDBRANCH  12  13
ENDBRANCH  11  12
TORSDOF 4
ENDMDL
MODEL 4
REMARK VINA RESULT:     -13.6      2.024      5.422
REMARK  Name = 
REMARK  4 active torsions:
REMARK  status: ('A' for Active; 'I' for Inactive)
REMARK    1  A    between atoms: C_2  and  C_3
REMARK    2  A    between atoms: C_11  and  C_12
REMARK    3  A    between atoms: C_12  and  C_13
REMARK    4  A    between atoms: C_28  and  C_30
REMARK                            x       y       z     vdW  Elec       q    Type
REMARK                         _______ _______ _______ _____ _____    ______ ____
ROOT
ATOM      1  C   UNL     1      -3.337  -2.977  24.183  0.00  0.00    +0.005 C 
ATOM      2  C   UNL     1      -3.076  -2.222  24.390  0.00  0.00    +0.059 C 
ATOM      5  C   UNL     1      -2.366  -2.638  24.441  0.00  0.00    +0.154 C 
ATOM      6  O   UNL     1      -2.348  -3.447  24.277  0.00  0.00    -0.223 OA
ATOM      7  C   UNL     1      -1.672  -2.246  24.657  0.00  0.00    +0.033 C 
ATOM      8  C   UNL     1      -1.689  -1.438  24.820  0.00  0.00    +0.003 C 
ATOM      9  C   UNL     1      -2.399  -1.022  24.769  0.00  0.00    +0.006 C 
ATOM     10  C   UNL     1      -1.706  -0.630  24.984  0.00  0.00    +0.000 C 
ATOM     11  C   UNL     1      -2.416  -0.213  24.932  0.00  0.00    +0.050 C 
ATOM     21  C   UNL     1      -3.126   0.203  24.881  0.00  0.00    +0.063 A 
ATOM     22  C   UNL     1      -3.820  -0.189  24.665  0.00  0.00    +0.023 A 
ATOM     23  C   UNL     1      -3.803  -0.997  24.502  0.00  0.00    +0.034 C 
ATOM     24  C   UNL     1      -3.093  -1.414  24.553  0.00  0.00    +0.010 C 
ATOM     25  S   UNL     1      -4.433   0.363  24.661  0.00  0.00    -0.054 S 
ATOM     26  C   UNL     1      -4.120   1.095  24.873  0.00  0.00    +0.185 A 
ATOM     27  N   UNL     1      -4.540   1.802  24.938  0.00  0.00    -0.151 NA
ATOM     28  C   UNL     1      -4.149   2.495  25.156  0.00  0.00    +0.271 C 
ATOM     29  O   UNL     1      -3.339   2.481  25.311  0.00  0.00    -0.268 OA
ATOM     37  N   UNL     1      -3.312   0.997  25.009  0.00  0.00    -0.227 NA
ENDROOT
BRANCH  28  30
ATOM     30  C   UNL     1      -4.569   3.202  25.221  0.00  0.00    +0.058 A 
ATOM     31  C   UNL     1      -4.204   3.918  25.034  0.00  0.00    +0.005 A 
ATOM     32  C   UNL     1      -4.624   4.625  25.099  0.00  0.00    +0.002 A 
ATOM     33  C   UNL     1      -5.409   4.616  25.351  0.00  0.00    +0.030 A 
ATOM     34  C   UNL     1      -5.775   3.901  25.538  0.00  0.00    +0.140 A 
ATOM     35  F   UNL     1      -6.561   3.892  25.789  0.00  0.00    -0.204 F 
ATOM     36  C   UNL     1      -5.355   3.194  25.473  0.00  0.00    +0.034 A 
ENDBRANCH  28  30
BRANCH   2   3
ATOM      3  C   UNL     1      -3.876  -2.068  24.266  0.00  0.00    +0.184 C 
ATOM      4  O   UNL     1      -4.365  -2.652  23.947  0.00  0.00    -0.220 OA
ENDBRANCH   2   3
BRANCH  11  12
ATOM     12  C   UNL     1      -1.723   0.179  25.148  0.00  0.00    +0.091 C 
BRANCH  12  13
ATOM     13  C   UNL     1      -1.322   0.643  24.595  0.00  0.00    +0.226 C 
ATOM     14  O   UNL     1      -1.488   0.561  23.791  0.00  0.00    -0.275 OA
ATOM     15  N   UNL     1      -0.757   1.187  24.846  0.00  0.00    -0.274 N 
ATOM     16  C   UNL     1      -0.356   1.651  24.294  0.00  0.00    +0.125 C 
ATOM     17  C   UNL     1       0.210   2.195  24.545  0.00  0.00    +0.164 C 
ATOM     18  O   UNL     1       0.375   2.277  25.349  0.00  0.00    -0.350 OA
ATOM     19  C   UNL     1      -0.025   1.813  25.902  0.00  0.00    +0.164 C 
ATOM     20  C   UNL     1      -0.591   1.268  25.651  0.00  0.00    +0.125 C 
ENDBRANCH  12  13
ENDBRANCH  11  12
TORSDOF 4
ENDMDL
MODEL 5
REMARK VINA RESULT:     -13.5      1.664      3.424
REMARK  Name = 
REMARK  4 active torsions:
REMARK  status: ('A' for Active; 'I' for Inactive)
REMARK    1  A    between atoms: C_2  and  C_3
REMARK    2  A    between atoms: C_11  and  C_12
REMARK    3  A    between atoms: C_12  and  C_13
REMARK    4  A    between atoms: C_28  and  C_30
REMARK                            x       y       z     vdW  Elec       q    Type
REMARK                         _______ _______ _______ _____ _____    ______ ____
ROOT
ATOM      1  C   UNL     1      -2.276   4.772  25.655  0.00  0.00    +0.005 C 
ATOM      2  C   UNL     1      -2.047   4.058  25.310  0.00  0.00    +0.059 C 
ATOM      5  C   UNL     1      -1.394   4.525  25.121  0.00  0.00    +0.154 C 
ATOM      6  O   UNL     1      -1.367   5.315  25.358  0.00  0.00    -0.223 OA
ATOM      7  C   UNL     1      -0.765   4.201  24.693  0.00  0.00    +0.033 C 
ATOM      8  C   UNL     1      -0.791   3.412  24.456  0.00  0.00    +0.003 C 
ATOM      9  C   UNL     1      -1.444   2.946  24.645  0.00  0.00    +0.006 C 
ATOM     10  C   UNL     1      -0.817   2.623  24.218  0.00  0.00    +0.000 C 
ATOM     11  C   UNL     1      -1.471   2.156  24.407  0.00  0.00    +0.050 C 
ATOM     21  C   UNL     1      -2.124   1.690  24.597  0.00  0.00    +0.063 A 
ATOM     22  C   UNL     1      -2.752   2.013  25.024  0.00  0.00    +0.023 A 
ATOM     23  C   UNL     1      -2.726   2.802  25.262  0.00  0.00    +0.034 C 
ATOM     24  C   UNL     1      -2.073   3.269  25.072  0.00  0.00    +0.010 C 
ATOM     25  S   UNL     1      -3.318   1.422  25.129  0.00  0.00    -0.054 S 
ATOM     26  C   UNL     1      -3.041   0.735  24.768  0.00  0.00    +0.185 A 
ATOM     27  N   UNL     1      -3.434   0.010  24.740  0.00  0.00    -0.151 NA
ATOM     28  C   UNL     1      -3.086  -0.632  24.356  0.00  0.00    +0.271 C 
ATOM     29  O   UNL     1      -2.346  -0.550  24.000  0.00  0.00    -0.268 OA
ATOM     37  N   UNL     1      -2.303   0.900  24.439  0.00  0.00    -0.227 NA
ENDROOT
BRANCH  28  30
ATOM     30  C   UNL     1      -3.478  -1.358  24.328  0.00  0.00    +0.058 A 
ATOM     31  C   UNL     1      -4.070  -1.486  23.767  0.00  0.00    +0.005 A 
ATOM     32  C   UNL     1      -4.462  -2.211  23.739  0.00  0.00    +0.002 A 
ATOM     33  C   UNL     1      -4.263  -2.808  24.273  0.00  0.00    +0.030 A 
ATOM     34  C   UNL     1      -3.672  -2.680  24.834  0.00  0.00    +0.140 A 
ATOM     35  F   UNL     1      -3.473  -3.277  25.368  0.00  0.00    -0.204 F 
ATOM     36  C   UNL     1      -3.280  -1.955  24.862  0.00  0.00    +0.034 A 
ENDBRANCH  28  30
BRANCH   2   3
ATOM      3  C   UNL     1      -2.779   3.840  25.619  0.00  0.00    +0.184 C 
ATOM      4  O   UNL     1      -3.204   4.370  26.089  0.00  0.00    -0.220 OA
ENDBRANCH   2   3
BRANCH  11  12
ATOM     12  C   UNL     1      -0.843   1.833  23.980  0.00  0.00    +0.091 C 
BRANCH  12  13
ATOM     13  C   UNL     1      -0.330   1.297  24.342  0.00  0.00    +0.226 C 
ATOM     14  O   UNL     1      -0.290   1.256  25.165  0.00  0.00    -0.275 OA
ATOM     15  N   UNL     1       0.141   0.802  23.881  0.00  0.00    -0.274 N 
ATOM     16  C   UNL     1       0.653   0.265  24.242  0.00  0.00    +0.125 C 
ATOM     17  C   UNL     1       1.124  -0.230  23.781  0.00  0.00    +0.164 C 
ATOM     18  O   UNL     1       1.083  -0.190  22.958  0.00  0.00    -0.350 OA
ATOM     19  C   UNL     1       0.571   0.347  22.596  0.00  0.00    +0.164 C 
ATOM     20  C   UNL     1       0.100   0.842  23.057  0.00  0.00    +0.125 C 
ENDBRANCH  12  13
ENDBRANCH  11  12
TORSDOF 4
ENDMDL
MODEL 6
REMARK VINA RESULT:     -13.3      1.424      3.372
REMARK  Name = 
REMARK  4 active torsions:
REMARK  status: ('A' for Active; 'I' for Inactive)
REMARK    1  A    between atoms: C_2  and  C_3
REMARK    2  A    between atoms: C_11  and  C_12
REMARK    3  A    between atoms: C_12  and  C_13
REMARK    4  A    between atoms: C_28  and  C_30
REMARK                            x       y       z     vdW  Elec       q    Type
REMARK                         _______ _______ _______ _____ _____    ______ ____
ROOT
ATOM      1  C   UNL     1      -5.768   3.886  25.610  0.00  0.00    +0.005 C 
ATOM      2  C   UNL     1      -5.103   3.451  25.388  0.00  0.00    +0.059 C 
ATOM      5  C   UNL     1      -4.800   4.216  25.330  0.00  0.00    +0.154 C 
ATOM      6  O   UNL     1      -5.278   4.865  25.505  0.00  0.00    -0.223 OA
ATOM      7  C   UNL     1      -4.016   4.332  25.096  0.00  0.00    +0.033 C 
ATOM      8  C   UNL     1      -3.538   3.684  24.921  0.00  0.00    +0.003 C 
ATOM      9  C   UNL     1      -3.841   2.920  24.979  0.00  0.00    +0.006 C 
ATOM     10  C   UNL     1      -3.059   3.036  24.746  0.00  0.00    +0.000 C 
ATOM     11  C   UNL     1      -3.363   2.271  24.803  0.00  0.00    +0.050 C 
ATOM     21  C   UNL     1      -3.666   1.507  24.861  0.00  0.00    +0.063 A 
ATOM     22  C   UNL     1      -4.450   1.390  25.095  0.00  0.00    +0.023 A 
ATOM     23  C   UNL     1      -4.928   2.038  25.270  0.00  0.00    +0.034 C 
ATOM     24  C   UNL     1      -4.625   2.803  25.212  0.00  0.00    +0.010 C 
ATOM     25  S   UNL     1      -4.594   0.578  25.102  0.00  0.00    -0.054 S 
ATOM     26  C   UNL     1      -3.902   0.192  24.873  0.00  0.00    +0.185 A 
ATOM     27  N   UNL     1      -3.801  -0.624  24.805  0.00  0.00    -0.151 NA
ATOM     28  C   UNL     1      -3.073  -0.930  24.569  0.00  0.00    +0.271 C 
ATOM     29  O   UNL     1      -2.445  -0.422  24.401  0.00  0.00    -0.268 OA
ATOM     37  N   UNL     1      -3.329   0.766  24.724  0.00  0.00    -0.227 NA
ENDROOT
BRANCH  28  30
ATOM     30  C   UNL     1      -2.972  -1.746  24.501  0.00  0.00    +0.058 A 
ATOM     31  C   UNL     1      -2.230  -2.083  24.636  0.00  0.00    +0.005 A 
ATOM     32  C   UNL     1      -2.129  -2.899  24.568  0.00  0.00    +0.002 A 
ATOM     33  C   UNL     1      -2.769  -3.378  24.365  0.00  0.00    +0.030 A 
ATOM     34  C   UNL     1      -3.510  -3.042  24.230  0.00  0.00    +0.140 A 
ATOM     35  F   UNL     1      -4.151  -3.521  24.028  0.00  0.00    -0.204 F 
ATOM     36  C   UNL     1      -3.611  -2.226  24.298  0.00  0.00    +0.034 A 
ENDBRANCH  28  30
BRANCH   2   3
ATOM      3  C   UNL     1      -5.638   2.838  25.523  0.00  0.00    +0.184 C 
ATOM      4  O   UNL     1      -6.368   2.997  25.873  0.00  0.00    -0.220 OA
ENDBRANCH   2   3
BRANCH  11  12
ATOM     12  C   UNL     1      -2.580   2.388  24.570  0.00  0.00    +0.091 C 
BRANCH  12  13
ATOM     13  C   UNL     1      -1.966   2.275  25.111  0.00  0.00    +0.226 C 
ATOM     14  O   UNL     1      -2.135   2.198  25.915  0.00  0.00    -0.275 OA
ATOM     15  N   UNL     1      -1.186   2.240  24.848  0.00  0.00    -0.274 N 
ATOM     16  C   UNL     1      -0.573   2.128  25.388  0.00  0.00    +0.125 C 
ATOM     17  C   UNL     1       0.208   2.093  25.125  0.00  0.00    +0.164 C 
ATOM     18  O   UNL     1       0.376   2.170  24.322  0.00  0.00    -0.350 OA
ATOM     19  C   UNL     1      -0.236   2.282  23.781  0.00  0.00    +0.164 C 
ATOM     20  C   UNL     1      -1.018   2.317  24.044  0.00  0.00    +0.125 C 
ENDBRANCH  12  13
ENDBRANCH  11  12
TORSDOF 4
ENDMDL
MODEL 7
REMARK VINA RESULT:     -11.6      2.525      6.046
REMARK  Name = 
REMARK  4 active torsions:
REMARK  status: ('A' for Active; 'I' for Inactive)
REMARK    1  A    between atoms: C_2  and  C_3
REMARK    2  A    between atoms: C_11  and  C_12
REMARK    3  A    between atoms: C_12  and  C_13
REMARK    4  A    between atoms: C_28  and  C_30
REMARK                            x       y       z     vdW  Elec       q    Type
REMARK                         _______ _______ _______ _____ _____    ______ ____
ROOT
ATOM      1  C   UNL     1      -3.573  -2.238  25.011  0.00  0.00    +0.005 C 
ATOM      2  C   UNL     1      -2.939  -1.728  24.873  0.00  0.00    +0.059 C 
ATOM      5  C   UNL     1      -2.583  -2.450  24.695  0.00  0.00    +0.154 C 
ATOM      6  O   UNL     1      -3.016  -3.150  24.755  0.00  0.00    -0.223 OA
ATOM      7  C   UNL     1      -1.793  -2.473  24.457  0.00  0.00    +0.033 C 
ATOM      8  C   UNL     1      -1.360  -1.774  24.397  0.00  0.00    +0.003 C 
ATOM      9  C   UNL     1      -1.716  -1.052  24.575  0.00  0.00    +0.006 C 
ATOM     10  C   UNL     1      -0.927  -1.075  24.337  0.00  0.00    +0.000 C 
ATOM     11  C   UNL     1      -1.283  -0.352  24.515  0.00  0.00    +0.050 C 
ATOM     21  C   UNL     1      -1.639   0.370  24.693  0.00  0.00    +0.063 A 
ATOM     22  C   UNL     1      -2.430   0.393  24.931  0.00  0.00    +0.023 A 
ATOM     23  C   UNL     1      -2.862  -0.306  24.991  0.00  0.00    +0.034 C 
ATOM     24  C   UNL     1      -2.507  -1.029  24.813  0.00  0.00    +0.010 C 
ATOM     25  S   UNL     1      -2.631   1.181  25.069  0.00  0.00    -0.054 S 
ATOM     26  C   UNL     1      -1.966   1.645  24.917  0.00  0.00    +0.185 A 
ATOM     27  N   UNL     1      -1.922   2.466  24.985  0.00  0.00    -0.151 NA
ATOM     28  C   UNL     1      -1.216   2.857  24.814  0.00  0.00    +0.271 C 
ATOM     29  O   UNL     1      -0.554   2.427  24.573  0.00  0.00    -0.268 OA
ATOM     37  N   UNL     1      -1.354   1.144  24.685  0.00  0.00    -0.227 NA
ENDROOT
BRANCH  28  30
ATOM     30  C   UNL     1      -1.172   3.677  24.882  0.00  0.00    +0.058 A 
ATOM     31  C   UNL     1      -0.558   4.090  24.515  0.00  0.00    +0.005 A 
ATOM     32  C   UNL     1      -0.513   4.911  24.583  0.00  0.00    +0.002 A 
ATOM     33  C   UNL     1      -1.083   5.319  25.018  0.00  0.00    +0.030 A 
ATOM     34  C   UNL     1      -1.696   4.908  25.385  0.00  0.00    +0.140 A 
ATOM     35  F   UNL     1      -2.266   5.317  25.820  0.00  0.00    -0.204 F 
ATOM     36  C   UNL     1      -1.741   4.087  25.316  0.00  0.00    +0.034 A 
ENDBRANCH  28  30
BRANCH   2   3
ATOM      3  C   UNL     1      -3.516  -1.183  25.099  0.00  0.00    +0.184 C 
ATOM      4  O   UNL     1      -4.295  -1.430  25.215  0.00  0.00    -0.220 OA
ENDBRANCH   2   3
BRANCH  11  12
ATOM     12  C   UNL     1      -0.494  -0.375  24.277  0.00  0.00    +0.091 C 
BRANCH  12  13
ATOM     13  C   UNL     1      -0.290  -0.175  23.502  0.00  0.00    +0.226 C 
ATOM     14  O   UNL     1      -0.881  -0.016  22.949  0.00  0.00    -0.275 OA
ATOM     15  N   UNL     1       0.503  -0.134  23.283  0.00  0.00    -0.274 N 
ATOM     16  C   UNL     1       0.707   0.066  22.509  0.00  0.00    +0.125 C 
ATOM     17  C   UNL     1       1.501   0.107  22.288  0.00  0.00    +0.164 C 
ATOM     18  O   UNL     1       2.091  -0.051  22.842  0.00  0.00    -0.350 OA
ATOM     19  C   UNL     1       1.888  -0.251  23.617  0.00  0.00    +0.164 C 
ATOM     20  C   UNL     1       1.094  -0.292  23.837  0.00  0.00    +0.125 C 
ENDBRANCH  12  13
ENDBRANCH  11  12
TORSDOF 4
ENDMDL
