MODEL 1
REMARK VINA RESULT:      -9.5      0.000      0.000
REMARK  Name = 
REMARK  7 active torsions:
REMARK  status: ('A' for Active; 'I' for Inactive)
REMARK    1  A    between atoms: O_2  and  C_3
REMARK    2  A    between atoms: C_5  and  O_6
REMARK    3  A    between atoms: C_9  and  N_10
REMARK    4  A    between atoms: C_11  and  O_13
REMARK    5  A    between atoms: O_13  and  C_14
REMARK    6  A    between atoms: C_14  and  C_15
REMARK    7  A    between atoms: C_22  and  C_23
REMARK                            x       y       z     vdW  Elec       q    Type
REMARK                         _______ _______ _______ _____ _____    ______ ____
ROOT
ATOM     10  N   UNL     1      -3.255  -0.132  25.327  0.00  0.00    -0.142 NA
ATOM     11  C   UNL     1      -3.454   0.439  24.765  0.00  0.00    +0.425 C 
ATOM     12  O   UNL     1      -3.408   0.259  23.962  0.00  0.00    -0.224 OA
ENDROOT
BRANCH  10   9
ATOM      3  C   UNL     1      -1.965  -1.785  24.724  0.00  0.00    +0.143 A 
ATOM      4  C   UNL     1      -2.522  -2.381  24.602  0.00  0.00    +0.074 A 
ATOM      5  C   UNL     1      -3.323  -2.228  24.722  0.00  0.00    +0.143 A 
ATOM      8  C   UNL     1      -3.568  -1.478  24.964  0.00  0.00    +0.054 A 
ATOM      9  C   UNL     1      -3.011  -0.882  25.085  0.00  0.00    +0.083 A 
ATOM     25  C   UNL     1      -2.209  -1.036  24.965  0.00  0.00    +0.054 A 
BRANCH   3   2
ATOM      1  C   UNL     1      -0.617  -1.770  25.198  0.00  0.00    +0.252 C 
ATOM      2  O   UNL     1      -1.163  -1.939  24.604  0.00  0.00    -0.471 OA
ENDBRANCH   3   2
BRANCH   5   6
ATOM      6  O   UNL     1      -3.882  -2.824  24.600  0.00  0.00    -0.471 OA
ATOM      7  C   UNL     1      -4.149  -2.989  23.838  0.00  0.00    +0.252 C 
ENDBRANCH   5   6
ENDBRANCH  10   9
BRANCH  11  13
ATOM     13  O   UNL     1      -3.698   1.189  25.007  0.00  0.00    -0.432 OA
BRANCH  13  14
ATOM     14  C   UNL     1      -3.554   1.844  24.528  0.00  0.00    +0.226 C 
BRANCH  14  15
ATOM     15  C   UNL     1      -3.305   2.555  24.864  0.00  0.00    +0.102 C 
ATOM     16  C   UNL     1      -3.359   3.136  25.379  0.00  0.00    +0.021 C 
ATOM     17  C   UNL     1      -2.862   3.773  25.425  0.00  0.00    +0.016 C 
ATOM     18  C   UNL     1      -3.095   4.331  26.088  0.00  0.00    +0.018 C 
ATOM     19  C   UNL     1      -3.147   3.799  25.711  0.00  0.00    +0.072 C 
ATOM     20  N   UNL     1      -2.802   3.207  24.917  0.00  0.00    -0.270 NA
ATOM     21  C   UNL     1      -2.070   3.455  24.433  0.00  0.00    +0.085 C 
ATOM     22  C   UNL     1      -2.158   4.005  24.955  0.00  0.00    +0.081 C 
BRANCH  22  23
ATOM     23  C   UNL     1      -1.690   4.677  25.056  0.00  0.00    -0.078 C 
ATOM     24  C   UNL     1      -1.222   5.348  25.157  0.00  0.00    -0.014 C 
ENDBRANCH  22  23
ENDBRANCH  14  15
ENDBRANCH  13  14
ENDBRANCH  11  13
TORSDOF 7
ENDMDL
MODEL 2
REMARK VINA RESULT:      -9.4      1.607      5.349
REMARK  Name = 
REMARK  7 active torsions:
REMARK  status: ('A' for Active; 'I' for Inactive)
REMARK    1  A    between atoms: O_2  and  C_3
REMARK    2  A    between atoms: C_5  and  O_6
REMARK    3  A    between atoms: C_9  and  N_10
REMARK    4  A    between atoms: C_11  and  O_13
REMARK    5  A    between atoms: O_13  and  C_14
REMARK    6  A    between atoms: C_14  and  C_15
REMARK    7  A    between atoms: C_22  and  C_23
REMARK                            x       y       z     vdW  Elec       q    Type
REMARK                         _______ _______ _______ _____ _____    ______ ____
ROOT
ATOM     10  N   UNL     1      -2.593   2.160  24.569  0.00  0.00    -0.142 NA
ATOM     11  C   UNL     1      -3.323   1.948  24.889  0.00  0.00    +0.425 C 
ATOM     12  O   UNL     1      -3.594   2.314  25.577  0.00  0.00    -0.224 OA
ENDROOT
BRANCH  10   9
ATOM      3  C   UNL     1      -1.068   3.097  25.818  0.00  0.00    +0.143 A 
ATOM      4  C   UNL     1      -1.215   3.895  25.670  0.00  0.00    +0.074 A 
ATOM      5  C   UNL     1      -1.820   4.115  25.156  0.00  0.00    +0.143 A 
ATOM      8  C   UNL     1      -2.280   3.537  24.789  0.00  0.00    +0.054 A 
ATOM      9  C   UNL     1      -2.134   2.738  24.936  0.00  0.00    +0.083 A 
ATOM     25  C   UNL     1      -1.527   2.518  25.451  0.00  0.00    +0.054 A 
BRANCH   3   2
ATOM      1  C   UNL     1       0.166   2.417  26.058  0.00  0.00    +0.252 C 
ATOM      2  O   UNL     1      -0.462   2.877  26.333  0.00  0.00    -0.471 OA
ENDBRANCH   3   2
BRANCH   5   6
ATOM      6  O   UNL     1      -1.967   4.914  25.008  0.00  0.00    -0.471 OA
ATOM      7  C   UNL     1      -1.339   5.444  24.947  0.00  0.00    +0.252 C 
ENDBRANCH   5   6
ENDBRANCH  10   9
BRANCH  11  13
ATOM     13  O   UNL     1      -3.782   1.369  24.522  0.00  0.00    -0.432 OA
BRANCH  13  14
ATOM     14  C   UNL     1      -4.135   0.775  24.973  0.00  0.00    +0.226 C 
BRANCH  14  15
ATOM     15  C   UNL     1      -4.119  -0.006  24.710  0.00  0.00    +0.102 C 
ATOM     16  C   UNL     1      -4.288  -0.572  24.203  0.00  0.00    +0.021 C 
ATOM     17  C   UNL     1      -4.080  -1.351  24.279  0.00  0.00    +0.016 C 
ATOM     18  C   UNL     1      -4.370  -1.842  23.587  0.00  0.00    +0.018 C 
ATOM     19  C   UNL     1      -4.287  -1.296  23.935  0.00  0.00    +0.072 C 
ATOM     20  N   UNL     1      -3.911  -0.802  24.780  0.00  0.00    -0.270 NA
ATOM     21  C   UNL     1      -3.451  -1.258  25.423  0.00  0.00    +0.085 C 
ATOM     22  C   UNL     1      -3.637  -1.783  24.900  0.00  0.00    +0.081 C 
BRANCH  22  23
ATOM     23  C   UNL     1      -3.458  -2.589  24.917  0.00  0.00    -0.078 C 
ATOM     24  C   UNL     1      -3.278  -3.393  24.934  0.00  0.00    -0.014 C 
ENDBRANCH  22  23
ENDBRANCH  14  15
ENDBRANCH  13  14
ENDBRANCH  11  13
TORSDOF 7
ENDMDL
MODEL 3
REMARK VINA RESULT:      -9.4      1.668      5.791
REMARK  Name = 
REMARK  7 active torsions:
REMARK  status: ('A' for Active; 'I' for Inactive)
REMARK    1  A    between atoms: O_2  and  C_3
REMARK    2  A    between atoms: C_5  and  O_6
REMARK    3  A    between atoms: C_9  and  N_10
REMARK    4  A    between atoms: C_11  and  O_13
REMARK    5  A    between atoms: O_13  and  C_14
REMARK    6  A    between atoms: C_14  and  C_15
REMARK    7  A    between atoms: C_22  and  C_23
REMARK                            x       y       z     vdW  Elec       q    Type
REMARK                         _______ _______ _______ _____ _____    ______ ____
ROOT
ATOM     10  N   UNL     1      -1.618   2.105  24.846  0.00  0.00    -0.142 NA
ATOM     11  C   UNL     1      -1.194   1.583  25.323  0.00  0.00    +0.425 C 
ATOM     12  O   UNL     1      -0.886   1.841  26.043  0.00  0.00    -0.224 OA
ENDROOT
BRANCH  10   9
ATOM      3  C   UNL     1      -2.550   3.877  25.715  0.00  0.00    +0.143 A 
ATOM      4  C   UNL     1      -1.968   4.444  25.576  0.00  0.00    +0.074 A 
ATOM      5  C   UNL     1      -1.269   4.232  25.193  0.00  0.00    +0.143 A 
ATOM      8  C   UNL     1      -1.152   3.452  24.950  0.00  0.00    +0.054 A 
ATOM      9  C   UNL     1      -1.734   2.885  25.089  0.00  0.00    +0.083 A 
ATOM     25  C   UNL     1      -2.434   3.098  25.472  0.00  0.00    +0.054 A 
BRANCH   3   2
ATOM      1  C   UNL     1      -3.977   3.843  25.796  0.00  0.00    +0.252 C 
ATOM      2  O   UNL     1      -3.250   4.090  26.098  0.00  0.00    -0.471 OA
ENDBRANCH   3   2
BRANCH   5   6
ATOM      6  O   UNL     1      -0.685   4.799  25.054  0.00  0.00    -0.471 OA
ATOM      7  C   UNL     1      -0.880   5.506  24.678  0.00  0.00    +0.252 C 
ENDBRANCH   5   6
ENDBRANCH  10   9
BRANCH  11  13
ATOM     13  O   UNL     1      -1.078   0.803  25.079  0.00  0.00    -0.432 OA
BRANCH  13  14
ATOM     14  C   UNL     1      -1.285   0.181  25.579  0.00  0.00    +0.226 C 
BRANCH  14  15
ATOM     15  C   UNL     1      -1.506  -0.547  25.260  0.00  0.00    +0.102 C 
ATOM     16  C   UNL     1      -1.359  -1.221  24.901  0.00  0.00    +0.021 C 
ATOM     17  C   UNL     1      -1.906  -1.790  24.721  0.00  0.00    +0.016 C 
ATOM     18  C   UNL     1      -1.534  -2.493  24.306  0.00  0.00    +0.018 C 
ATOM     19  C   UNL     1      -1.540  -1.907  24.596  0.00  0.00    +0.072 C 
ATOM     20  N   UNL     1      -2.059  -1.132  25.074  0.00  0.00    -0.270 NA
ATOM     21  C   UNL     1      -2.959  -1.187  25.213  0.00  0.00    +0.085 C 
ATOM     22  C   UNL     1      -2.772  -1.837  24.858  0.00  0.00    +0.081 C 
BRANCH  22  23
ATOM     23  C   UNL     1      -3.278  -2.454  24.647  0.00  0.00    -0.078 C 
ATOM     24  C   UNL     1      -3.783  -3.070  24.436  0.00  0.00    -0.014 C 
ENDBRANCH  22  23
ENDBRANCH  14  15
ENDBRANCH  13  14
ENDBRANCH  11  13
TORSDOF 7
ENDMDL
MODEL 4
REMARK VINA RESULT:      -8.4      2.246      3.320
REMARK  Name = 
REMARK  7 active torsions:
REMARK  status: ('A' for Active; 'I' for Inactive)
REMARK    1  A    between atoms: O_2  and  C_3
REMARK    2  A    between atoms: C_5  and  O_6
REMARK    3  A    between atoms: C_9  and  N_10
REMARK    4  A    between atoms: C_11  and  O_13
REMARK    5  A    between atoms: O_13  and  C_14
REMARK    6  A    between atoms: C_14  and  C_15
REMARK    7  A    between atoms: C_22  and  C_23
REMARK                            x       y       z     vdW  Elec       q    Type
REMARK                         _______ _______ _______ _____ _____    ______ ____
ROOT
ATOM     10  N   UNL     1      -1.140   1.415  24.232  0.00  0.00    -0.142 NA
ATOM     11  C   UNL     1      -1.706   1.637  23.675  0.00  0.00    +0.425 C 
ATOM     12  O   UNL     1      -1.776   1.218  22.969  0.00  0.00    -0.224 OA
ENDROOT
BRANCH  10   9
ATOM      3  C   UNL     1      -0.361  -0.624  24.186  0.00  0.00    +0.143 A 
ATOM      4  C   UNL     1       0.350  -0.510  23.784  0.00  0.00    +0.074 A 
ATOM      5  C   UNL     1       0.564   0.245  23.531  0.00  0.00    +0.143 A 
ATOM      8  C   UNL     1       0.068   0.887  23.680  0.00  0.00    +0.054 A 
ATOM      9  C   UNL     1      -0.643   0.773  24.083  0.00  0.00    +0.083 A 
ATOM     25  C   UNL     1      -0.858   0.018  24.336  0.00  0.00    +0.054 A 
BRANCH   3   2
ATOM      1  C   UNL     1      -0.587  -1.557  25.245  0.00  0.00    +0.252 C 
ATOM      2  O   UNL     1      -0.576  -1.379  24.440  0.00  0.00    -0.471 OA
ENDBRANCH   3   2
BRANCH   5   6
ATOM      6  O   UNL     1       1.276   0.359  23.128  0.00  0.00    -0.471 OA
ATOM      7  C   UNL     1       1.443  -0.083  22.453  0.00  0.00    +0.252 C 
ENDBRANCH   5   6
ENDBRANCH  10   9
BRANCH  11  13
ATOM     13  O   UNL     1      -2.202   2.279  23.826  0.00  0.00    -0.432 OA
BRANCH  13  14
ATOM     14  C   UNL     1      -2.996   2.246  23.606  0.00  0.00    +0.226 C 
BRANCH  14  15
ATOM     15  C   UNL     1      -3.579   2.521  24.121  0.00  0.00    +0.102 C 
ATOM     16  C   UNL     1      -3.926   3.073  24.544  0.00  0.00    +0.021 C 
ATOM     17  C   UNL     1      -4.586   2.971  25.003  0.00  0.00    +0.016 C 
ATOM     18  C   UNL     1      -4.829   3.732  25.412  0.00  0.00    +0.018 C 
ATOM     19  C   UNL     1      -4.460   3.355  25.025  0.00  0.00    +0.072 C 
ATOM     20  N   UNL     1      -4.251   2.425  24.590  0.00  0.00    -0.270 NA
ATOM     21  C   UNL     1      -4.777   1.699  24.763  0.00  0.00    +0.085 C 
ATOM     22  C   UNL     1      -5.087   2.269  25.164  0.00  0.00    +0.081 C 
BRANCH  22  23
ATOM     23  C   UNL     1      -5.754   2.233  25.649  0.00  0.00    -0.078 C 
ATOM     24  C   UNL     1      -6.421   2.197  26.133  0.00  0.00    -0.014 C 
ENDBRANCH  22  23
ENDBRANCH  14  15
ENDBRANCH  13  14
ENDBRANCH  11  13
TORSDOF 7
ENDMDL
MODEL 5
REMARK VINA RESULT:      -8.4      1.587      5.456
REMARK  Name = 
REMARK  7 active torsions:
REMARK  status: ('A' for Active; 'I' for Inactive)
REMARK    1  A    between atoms: O_2  and  C_3
REMARK    2  A    between atoms: C_5  and  O_6
REMARK    3  A    between atoms: C_9  and  N_10
REMARK    4  A    between atoms: C_11  and  O_13
REMARK    5  A    between atoms: O_13  and  C_14
REMARK    6  A    between atoms: C_14  and  C_15
REMARK    7  A    between atoms: C_22  and  C_23
REMARK                            x       y       z     vdW  Elec       q    Type
REMARK                         _______ _______ _______ _____ _____    ______ ____
ROOT
ATOM     10  N   UNL     1      -4.488   1.632  25.425  0.00  0.00    -0.142 NA
ATOM     11  C   UNL     1      -4.611   1.232  24.714  0.00  0.00    +0.425 C 
ATOM     12  O   UNL     1      -4.734   1.656  24.018  0.00  0.00    -0.224 OA
ENDROOT
BRANCH  10   9
ATOM      3  C   UNL     1      -3.794   3.697  25.300  0.00  0.00    +0.143 A 
ATOM      4  C   UNL     1      -4.490   4.106  25.469  0.00  0.00    +0.074 A 
ATOM      5  C   UNL     1      -5.185   3.690  25.624  0.00  0.00    +0.143 A 
ATOM      8  C   UNL     1      -5.185   2.865  25.609  0.00  0.00    +0.054 A 
ATOM      9  C   UNL     1      -4.489   2.456  25.440  0.00  0.00    +0.083 A 
ATOM     25  C   UNL     1      -3.793   2.872  25.285  0.00  0.00    +0.054 A 
BRANCH   3   2
ATOM      1  C   UNL     1      -2.489   4.120  25.702  0.00  0.00    +0.252 C 
ATOM      2  O   UNL     1      -3.098   4.113  25.145  0.00  0.00    -0.471 OA
ENDBRANCH   3   2
BRANCH   5   6
ATOM      6  O   UNL     1      -5.882   4.100  25.794  0.00  0.00    -0.471 OA
ATOM      7  C   UNL     1      -6.043   4.814  25.416  0.00  0.00    +0.252 C 
ENDBRANCH   5   6
ENDBRANCH  10   9
BRANCH  11  13
ATOM     13  O   UNL     1      -4.610   0.406  24.700  0.00  0.00    -0.432 OA
BRANCH  13  14
ATOM     14  C   UNL     1      -4.228   0.005  24.089  0.00  0.00    +0.226 C 
BRANCH  14  15
ATOM     15  C   UNL     1      -3.895  -0.736  24.227  0.00  0.00    +0.102 C 
ATOM     16  C   UNL     1      -3.934  -1.504  24.346  0.00  0.00    +0.021 C 
ATOM     17  C   UNL     1      -3.303  -1.997  24.464  0.00  0.00    +0.016 C 
ATOM     18  C   UNL     1      -3.560  -2.848  24.581  0.00  0.00    +0.018 C 
ATOM     19  C   UNL     1      -3.647  -2.209  24.475  0.00  0.00    +0.072 C 
ATOM     20  N   UNL     1      -3.256  -1.244  24.348  0.00  0.00    -0.270 NA
ATOM     21  C   UNL     1      -2.356  -1.096  24.382  0.00  0.00    +0.085 C 
ATOM     22  C   UNL     1      -2.438  -1.847  24.495  0.00  0.00    +0.081 C 
BRANCH  22  23
ATOM     23  C   UNL     1      -1.840  -2.402  24.621  0.00  0.00    -0.078 C 
ATOM     24  C   UNL     1      -1.242  -2.955  24.746  0.00  0.00    -0.014 C 
ENDBRANCH  22  23
ENDBRANCH  14  15
ENDBRANCH  13  14
ENDBRANCH  11  13
TORSDOF 7
ENDMDL
MODEL 6
REMARK VINA RESULT:      -6.8     16.823     18.897
REMARK  Name = 
REMARK  7 active torsions:
REMARK  status: ('A' for Active; 'I' for Inactive)
REMARK    1  A    between atoms: O_2  and  C_3
REMARK    2  A    between atoms: C_5  and  O_6
REMARK    3  A    between atoms: C_9  and  N_10
REMARK    4  A    between atoms: C_11  and  O_13
REMARK    5  A    between atoms: O_13  and  C_14
REMARK    6  A    between atoms: C_14  and  C_15
REMARK    7  A    between atoms: C_22  and  C_23
REMARK                            x       y       z     vdW  Elec       q    Type
REMARK                         _______ _______ _______ _____ _____    ______ ____
ROOT
ATOM     10  N   UNL     1      14.976   6.402  20.277  0.00  0.00    -0.142 NA
ATOM     11  C   UNL     1      14.435   6.866  19.862  0.00  0.00    +0.425 C 
ATOM     12  O   UNL     1      14.703   7.468  19.366  0.00  0.00    -0.224 OA
ENDROOT
BRANCH  10   9
ATOM      3  C   UNL     1      16.999   6.376  19.459  0.00  0.00    +0.143 A 
ATOM      4  C   UNL     1      17.404   6.812  20.030  0.00  0.00    +0.074 A 
ATOM      5  C   UNL     1      17.000   7.111  20.684  0.00  0.00    +0.143 A 
ATOM      8  C   UNL     1      16.190   6.974  20.766  0.00  0.00    +0.054 A 
ATOM      9  C   UNL     1      15.786   6.539  20.195  0.00  0.00    +0.083 A 
ATOM     25  C   UNL     1      16.190   6.239  19.541  0.00  0.00    +0.054 A 
BRANCH   3   2
ATOM      1  C   UNL     1      17.405   5.266  18.656  0.00  0.00    +0.252 C 
ATOM      2  O   UNL     1      17.404   6.077  18.805  0.00  0.00    -0.471 OA
ENDBRANCH   3   2
BRANCH   5   6
ATOM      6  O   UNL     1      17.405   7.547  21.256  0.00  0.00    -0.471 OA
ATOM      7  C   UNL     1      17.256   8.354  21.341  0.00  0.00    +0.252 C 
ENDBRANCH   5   6
ENDBRANCH  10   9
BRANCH  11  13
ATOM     13  O   UNL     1      13.626   6.729  19.945  0.00  0.00    -0.432 OA
BRANCH  13  14
ATOM     14  C   UNL     1      13.113   7.360  20.086  0.00  0.00    +0.226 C 
BRANCH  14  15
ATOM     15  C   UNL     1      12.461   7.258  20.580  0.00  0.00    +0.102 C 
ATOM     16  C   UNL     1      11.892   6.835  20.901  0.00  0.00    +0.021 C 
ATOM     17  C   UNL     1      11.345   7.106  21.433  0.00  0.00    +0.016 C 
ATOM     18  C   UNL     1      10.773   6.461  21.682  0.00  0.00    +0.018 C 
ATOM     19  C   UNL     1      11.280   6.714  21.356  0.00  0.00    +0.072 C 
ATOM     20  N   UNL     1      11.900   7.527  21.124  0.00  0.00    -0.270 NA
ATOM     21  C   UNL     1      11.764   8.344  21.506  0.00  0.00    +0.085 C 
ATOM     22  C   UNL     1      11.219   7.895  21.797  0.00  0.00    +0.081 C 
BRANCH  22  23
ATOM     23  C   UNL     1      10.635   8.106  22.340  0.00  0.00    -0.078 C 
ATOM     24  C   UNL     1      10.052   8.318  22.883  0.00  0.00    -0.014 C 
ENDBRANCH  22  23
ENDBRANCH  14  15
ENDBRANCH  13  14
ENDBRANCH  11  13
TORSDOF 7
ENDMDL
