MODEL 1
REMARK VINA RESULT:     -10.6      0.000      0.000
REMARK  Name = 
REMARK  6 active torsions:
REMARK  status: ('A' for Active; 'I' for Inactive)
REMARK    1  A    between atoms: C_2  and  C_4
REMARK    2  A    between atoms: C_4  and  C_5
REMARK    3  A    between atoms: C_10  and  C_11
REMARK    4  A    between atoms: C_11  and  C_12
REMARK    5  A    between atoms: C_12  and  N_13
REMARK    6  A    between atoms: N_27  and  C_28
REMARK                            x       y       z     vdW  Elec       q    Type
REMARK                         _______ _______ _______ _____ _____    ______ ____
ROOT
ATOM      5  C   UNL     1      -3.239  -1.124  24.504  0.00  0.00    +0.015 C 
ATOM      6  C   UNL     1      -4.036  -0.977  24.654  0.00  0.00    +0.022 C 
ATOM      7  C   UNL     1      -4.295  -0.207  24.794  0.00  0.00    +0.095 C 
ATOM      8  N   UNL     1      -3.757   0.418  24.784  0.00  0.00    -0.263 N 
ATOM      9  C   UNL     1      -2.959   0.271  24.634  0.00  0.00    +0.095 C 
ATOM     10  C   UNL     1      -2.700  -0.499  24.494  0.00  0.00    +0.022 C 
ATOM     25  C   UNL     1      -4.016   1.188  24.923  0.00  0.00    +0.327 C 
ATOM     26  O   UNL     1      -3.478   1.812  24.913  0.00  0.00    -0.250 OA
ATOM     27  N   UNL     1      -4.814   1.334  25.073  0.00  0.00    -0.162 NA
ENDROOT
BRANCH  27  28
ATOM     28  C   UNL     1      -5.073   2.106  25.213  0.00  0.00    +0.075 A 
ATOM     29  C   UNL     1      -4.878   2.708  24.684  0.00  0.00    +0.019 A 
ATOM     30  C   UNL     1      -5.137   3.479  24.823  0.00  0.00    +0.031 A 
ATOM     31  C   UNL     1      -5.591   3.647  25.492  0.00  0.00    +0.140 A 
ATOM     32  F   UNL     1      -5.850   4.417  25.631  0.00  0.00    -0.204 F 
ATOM     33  C   UNL     1      -5.786   3.044  26.020  0.00  0.00    +0.031 A 
ATOM     34  C   UNL     1      -5.527   2.273  25.880  0.00  0.00    +0.019 A 
ENDBRANCH  27  28
BRANCH   5   4
ATOM      4  C   UNL     1      -2.980  -1.894  24.365  0.00  0.00    +0.114 C 
BRANCH   4   2
ATOM      1  O   UNL     1      -3.975  -2.804  23.892  0.00  0.00    -0.246 OA
ATOM      2  C   UNL     1      -3.487  -2.530  24.499  0.00  0.00    +0.365 C 
ATOM      3  O   UNL     1      -3.507  -2.894  25.240  0.00  0.00    -0.246 OA
ENDBRANCH   4   2
ENDBRANCH   5   4
BRANCH  10  11
ATOM     11  C   UNL     1      -1.902  -0.645  24.344  0.00  0.00    +0.019 C 
BRANCH  11  12
ATOM     12  C   UNL     1      -1.323  -0.177  24.699  0.00  0.00    +0.072 C 
BRANCH  12  13
ATOM     13  N   UNL     1      -0.598  -0.062  24.322  0.00  0.00    -0.270 NA
ATOM     14  C   UNL     1      -0.274  -0.662  23.858  0.00  0.00    +0.094 C 
ATOM     15  C   UNL     1       0.450  -0.546  23.481  0.00  0.00    +0.109 C 
ATOM     16  N   UNL     1       0.852   0.170  23.569  0.00  0.00    -0.290 N 
ATOM     17  C   UNL     1       0.528   0.770  24.033  0.00  0.00    +0.109 C 
ATOM     18  C   UNL     1      -0.196   0.655  24.410  0.00  0.00    +0.094 C 
ATOM     19  C   UNL     1       1.577   0.285  23.192  0.00  0.00    +0.132 A 
ATOM     20  N   UNL     1       1.901  -0.315  22.728  0.00  0.00    -0.229 NA
ATOM     21  C   UNL     1       2.626  -0.200  22.351  0.00  0.00    +0.100 A 
ATOM     22  C   UNL     1       3.027   0.516  22.439  0.00  0.00    +0.021 A 
ATOM     23  C   UNL     1       2.703   1.117  22.903  0.00  0.00    +0.004 A 
ATOM     24  C   UNL     1       1.978   1.001  23.280  0.00  0.00    +0.034 A 
ENDBRANCH  12  13
ENDBRANCH  11  12
ENDBRANCH  10  11
TORSDOF 6
ENDMDL
MODEL 2
REMARK VINA RESULT:      -9.3      2.329      6.267
REMARK  Name = 
REMARK  6 active torsions:
REMARK  status: ('A' for Active; 'I' for Inactive)
REMARK    1  A    between atoms: C_2  and  C_4
REMARK    2  A    between atoms: C_4  and  C_5
REMARK    3  A    between atoms: C_10  and  C_11
REMARK    4  A    between atoms: C_11  and  C_12
REMARK    5  A    between atoms: C_12  and  N_13
REMARK    6  A    between atoms: N_27  and  C_28
REMARK                            x       y       z     vdW  Elec       q    Type
REMARK                         _______ _______ _______ _____ _____    ______ ____
ROOT
ATOM      5  C   UNL     1      -1.110  -1.023  24.475  0.00  0.00    +0.015 C 
ATOM      6  C   UNL     1      -0.463  -1.478  24.243  0.00  0.00    +0.022 C 
ATOM      7  C   UNL     1       0.191  -1.117  23.895  0.00  0.00    +0.095 C 
ATOM      8  N   UNL     1       0.199  -0.301  23.778  0.00  0.00    -0.263 N 
ATOM      9  C   UNL     1      -0.449   0.154  24.010  0.00  0.00    +0.095 C 
ATOM     10  C   UNL     1      -1.103  -0.207  24.358  0.00  0.00    +0.022 C 
ATOM     25  C   UNL     1       0.854   0.061  23.429  0.00  0.00    +0.327 C 
ATOM     26  O   UNL     1       0.860   0.877  23.313  0.00  0.00    -0.250 OA
ATOM     27  N   UNL     1       1.501  -0.394  23.198  0.00  0.00    -0.162 NA
ENDROOT
BRANCH  27  28
ATOM     28  C   UNL     1       2.156  -0.033  22.849  0.00  0.00    +0.075 A 
ATOM     29  C   UNL     1       2.652   0.446  23.302  0.00  0.00    +0.019 A 
ATOM     30  C   UNL     1       3.307   0.808  22.954  0.00  0.00    +0.031 A 
ATOM     31  C   UNL     1       3.466   0.690  22.152  0.00  0.00    +0.140 A 
ATOM     32  F   UNL     1       4.120   1.051  21.804  0.00  0.00    -0.204 F 
ATOM     33  C   UNL     1       2.969   0.211  21.700  0.00  0.00    +0.031 A 
ATOM     34  C   UNL     1       2.314  -0.150  22.048  0.00  0.00    +0.019 A 
ENDBRANCH  27  28
BRANCH   5   4
ATOM      4  C   UNL     1      -1.765  -1.385  24.823  0.00  0.00    +0.114 C 
BRANCH   4   2
ATOM      1  O   UNL     1      -2.343  -2.527  24.188  0.00  0.00    -0.246 OA
ATOM      2  C   UNL     1      -1.860  -2.202  24.773  0.00  0.00    +0.365 C 
ATOM      3  O   UNL     1      -1.471  -2.697  25.308  0.00  0.00    -0.246 OA
ENDBRANCH   4   2
ENDBRANCH   5   4
BRANCH  10  11
ATOM     11  C   UNL     1      -1.751   0.249  24.590  0.00  0.00    +0.019 C 
BRANCH  11  12
ATOM     12  C   UNL     1      -1.951   0.928  24.167  0.00  0.00    +0.072 C 
BRANCH  12  13
ATOM     13  N   UNL     1      -2.584   1.396  24.414  0.00  0.00    -0.270 NA
ATOM     14  C   UNL     1      -2.448   2.159  24.696  0.00  0.00    +0.094 C 
ATOM     15  C   UNL     1      -3.081   2.626  24.943  0.00  0.00    +0.109 C 
ATOM     16  N   UNL     1      -3.851   2.330  24.908  0.00  0.00    -0.290 N 
ATOM     17  C   UNL     1      -3.987   1.568  24.625  0.00  0.00    +0.109 C 
ATOM     18  C   UNL     1      -3.355   1.100  24.379  0.00  0.00    +0.094 C 
ATOM     19  C   UNL     1      -4.484   2.799  25.155  0.00  0.00    +0.132 A 
ATOM     20  N   UNL     1      -4.348   3.561  25.437  0.00  0.00    -0.229 NA
ATOM     21  C   UNL     1      -4.981   4.029  25.684  0.00  0.00    +0.100 A 
ATOM     22  C   UNL     1      -5.750   3.734  25.649  0.00  0.00    +0.021 A 
ATOM     23  C   UNL     1      -5.887   2.970  25.366  0.00  0.00    +0.004 A 
ATOM     24  C   UNL     1      -5.253   2.503  25.120  0.00  0.00    +0.034 A 
ENDBRANCH  12  13
ENDBRANCH  11  12
ENDBRANCH  10  11
TORSDOF 6
ENDMDL
MODEL 3
REMARK VINA RESULT:      -8.8      2.280      3.620
REMARK  Name = 
REMARK  6 active torsions:
REMARK  status: ('A' for Active; 'I' for Inactive)
REMARK    1  A    between atoms: C_2  and  C_4
REMARK    2  A    between atoms: C_4  and  C_5
REMARK    3  A    between atoms: C_10  and  C_11
REMARK    4  A    between atoms: C_11  and  C_12
REMARK    5  A    between atoms: C_12  and  N_13
REMARK    6  A    between atoms: N_27  and  C_28
REMARK                            x       y       z     vdW  Elec       q    Type
REMARK                         _______ _______ _______ _____ _____    ______ ____
ROOT
ATOM      5  C   UNL     1      -1.541   3.978  25.188  0.00  0.00    +0.015 C 
ATOM      6  C   UNL     1      -2.257   4.366  25.324  0.00  0.00    +0.022 C 
ATOM      7  C   UNL     1      -2.962   3.940  25.331  0.00  0.00    +0.095 C 
ATOM      8  N   UNL     1      -2.954   3.126  25.201  0.00  0.00    -0.263 N 
ATOM      9  C   UNL     1      -2.239   2.738  25.065  0.00  0.00    +0.095 C 
ATOM     10  C   UNL     1      -1.533   3.164  25.059  0.00  0.00    +0.022 C 
ATOM     25  C   UNL     1      -3.660   2.699  25.207  0.00  0.00    +0.327 C 
ATOM     26  O   UNL     1      -3.651   1.885  25.078  0.00  0.00    -0.250 OA
ATOM     27  N   UNL     1      -4.375   3.087  25.343  0.00  0.00    -0.162 NA
ENDROOT
BRANCH  27  28
ATOM     28  C   UNL     1      -5.082   2.660  25.350  0.00  0.00    +0.075 A 
ATOM     29  C   UNL     1      -5.499   2.565  26.055  0.00  0.00    +0.019 A 
ATOM     30  C   UNL     1      -6.205   2.139  26.061  0.00  0.00    +0.031 A 
ATOM     31  C   UNL     1      -6.494   1.808  25.362  0.00  0.00    +0.140 A 
ATOM     32  F   UNL     1      -7.200   1.382  25.369  0.00  0.00    -0.204 F 
ATOM     33  C   UNL     1      -6.076   1.904  24.658  0.00  0.00    +0.031 A 
ATOM     34  C   UNL     1      -5.370   2.330  24.652  0.00  0.00    +0.019 A 
ENDBRANCH  27  28
BRANCH   5   4
ATOM      4  C   UNL     1      -0.835   4.405  25.182  0.00  0.00    +0.114 C 
BRANCH   4   2
ATOM      1  O   UNL     1      -0.389   5.313  24.173  0.00  0.00    -0.246 OA
ATOM      2  C   UNL     1      -0.816   5.165  24.864  0.00  0.00    +0.365 C 
ATOM      3  O   UNL     1      -1.222   5.779  25.236  0.00  0.00    -0.246 OA
ENDBRANCH   4   2
ENDBRANCH   5   4
BRANCH  10  11
ATOM     11  C   UNL     1      -0.817   2.775  24.923  0.00  0.00    +0.019 C 
BRANCH  11  12
ATOM     12  C   UNL     1      -0.804   1.956  24.829  0.00  0.00    +0.072 C 
BRANCH  12  13
ATOM     13  N   UNL     1      -0.204   1.601  24.387  0.00  0.00    -0.270 NA
ATOM     14  C   UNL     1      -0.379   0.977  23.878  0.00  0.00    +0.094 C 
ATOM     15  C   UNL     1       0.222   0.624  23.437  0.00  0.00    +0.109 C 
ATOM     16  N   UNL     1       0.999   0.895  23.506  0.00  0.00    -0.290 N 
ATOM     17  C   UNL     1       1.174   1.519  24.016  0.00  0.00    +0.109 C 
ATOM     18  C   UNL     1       0.574   1.872  24.457  0.00  0.00    +0.094 C 
ATOM     19  C   UNL     1       1.600   0.540  23.065  0.00  0.00    +0.132 A 
ATOM     20  N   UNL     1       1.425  -0.083  22.556  0.00  0.00    -0.229 NA
ATOM     21  C   UNL     1       2.025  -0.438  22.114  0.00  0.00    +0.100 A 
ATOM     22  C   UNL     1       2.801  -0.167  22.183  0.00  0.00    +0.021 A 
ATOM     23  C   UNL     1       2.977   0.458  22.694  0.00  0.00    +0.004 A 
ATOM     24  C   UNL     1       2.376   0.811  23.134  0.00  0.00    +0.034 A 
ENDBRANCH  12  13
ENDBRANCH  11  12
ENDBRANCH  10  11
TORSDOF 6
ENDMDL
MODEL 4
REMARK VINA RESULT:      -8.5      3.267      4.846
REMARK  Name = 
REMARK  6 active torsions:
REMARK  status: ('A' for Active; 'I' for Inactive)
REMARK    1  A    between atoms: C_2  and  C_4
REMARK    2  A    between atoms: C_4  and  C_5
REMARK    3  A    between atoms: C_10  and  C_11
REMARK    4  A    between atoms: C_11  and  C_12
REMARK    5  A    between atoms: C_12  and  N_13
REMARK    6  A    between atoms: N_27  and  C_28
REMARK                            x       y       z     vdW  Elec       q    Type
REMARK                         _______ _______ _______ _____ _____    ______ ____
ROOT
ATOM      5  C   UNL     1      -5.059   2.544  25.489  0.00  0.00    +0.015 C 
ATOM      6  C   UNL     1      -4.895   3.297  25.784  0.00  0.00    +0.022 C 
ATOM      7  C   UNL     1      -4.169   3.653  25.627  0.00  0.00    +0.095 C 
ATOM      8  N   UNL     1      -3.605   3.258  25.174  0.00  0.00    -0.263 N 
ATOM      9  C   UNL     1      -3.768   2.505  24.879  0.00  0.00    +0.095 C 
ATOM     10  C   UNL     1      -4.494   2.149  25.036  0.00  0.00    +0.022 C 
ATOM     25  C   UNL     1      -2.878   3.615  25.017  0.00  0.00    +0.327 C 
ATOM     26  O   UNL     1      -2.314   3.219  24.564  0.00  0.00    -0.250 OA
ATOM     27  N   UNL     1      -2.715   4.367  25.313  0.00  0.00    -0.162 NA
ENDROOT
BRANCH  27  28
ATOM     28  C   UNL     1      -1.987   4.724  25.155  0.00  0.00    +0.075 A 
ATOM     29  C   UNL     1      -1.956   5.521  24.945  0.00  0.00    +0.019 A 
ATOM     30  C   UNL     1      -1.229   5.878  24.788  0.00  0.00    +0.031 A 
ATOM     31  C   UNL     1      -0.533   5.438  24.841  0.00  0.00    +0.140 A 
ATOM     32  F   UNL     1       0.193   5.794  24.684  0.00  0.00    -0.204 F 
ATOM     33  C   UNL     1      -0.565   4.641  25.051  0.00  0.00    +0.031 A 
ATOM     34  C   UNL     1      -1.292   4.284  25.208  0.00  0.00    +0.019 A 
ENDBRANCH  27  28
BRANCH   5   4
ATOM      4  C   UNL     1      -5.786   2.187  25.646  0.00  0.00    +0.114 C 
BRANCH   4   2
ATOM      1  O   UNL     1      -6.299   2.007  26.967  0.00  0.00    -0.246 OA
ATOM      2  C   UNL     1      -6.248   2.454  26.274  0.00  0.00    +0.365 C 
ATOM      3  O   UNL     1      -6.660   3.166  26.212  0.00  0.00    -0.246 OA
ENDBRANCH   4   2
ENDBRANCH   5   4
BRANCH  10  11
ATOM     11  C   UNL     1      -4.657   1.396  24.740  0.00  0.00    +0.019 C 
BRANCH  11  12
ATOM     12  C   UNL     1      -4.185   1.076  24.143  0.00  0.00    +0.072 C 
BRANCH  12  13
ATOM     13  N   UNL     1      -3.936   0.291  24.191  0.00  0.00    -0.270 NA
ATOM     14  C   UNL     1      -3.133   0.115  24.248  0.00  0.00    +0.094 C 
ATOM     15  C   UNL     1      -2.884  -0.669  24.297  0.00  0.00    +0.109 C 
ATOM     16  N   UNL     1      -3.440  -1.280  24.287  0.00  0.00    -0.290 N 
ATOM     17  C   UNL     1      -4.244  -1.104  24.230  0.00  0.00    +0.109 C 
ATOM     18  C   UNL     1      -4.492  -0.320  24.182  0.00  0.00    +0.094 C 
ATOM     19  C   UNL     1      -3.191  -2.065  24.336  0.00  0.00    +0.132 A 
ATOM     20  N   UNL     1      -2.388  -2.240  24.393  0.00  0.00    -0.229 NA
ATOM     21  C   UNL     1      -2.138  -3.026  24.441  0.00  0.00    +0.100 A 
ATOM     22  C   UNL     1      -2.694  -3.635  24.432  0.00  0.00    +0.021 A 
ATOM     23  C   UNL     1      -3.499  -3.460  24.375  0.00  0.00    +0.004 A 
ATOM     24  C   UNL     1      -3.747  -2.675  24.326  0.00  0.00    +0.034 A 
ENDBRANCH  12  13
ENDBRANCH  11  12
ENDBRANCH  10  11
TORSDOF 6
ENDMDL
MODEL 5
REMARK VINA RESULT:      -8.4      2.453      4.025
REMARK  Name = 
REMARK  6 active torsions:
REMARK  status: ('A' for Active; 'I' for Inactive)
REMARK    1  A    between atoms: C_2  and  C_4
REMARK    2  A    between atoms: C_4  and  C_5
REMARK    3  A    between atoms: C_10  and  C_11
REMARK    4  A    between atoms: C_11  and  C_12
REMARK    5  A    between atoms: C_12  and  N_13
REMARK    6  A    between atoms: N_27  and  C_28
REMARK                            x       y       z     vdW  Elec       q    Type
REMARK                         _______ _______ _______ _____ _____    ______ ____
ROOT
ATOM      5  C   UNL     1      -0.986   1.856  24.513  0.00  0.00    +0.015 C 
ATOM      6  C   UNL     1      -1.764   1.764  24.771  0.00  0.00    +0.022 C 
ATOM      7  C   UNL     1      -2.138   1.032  24.705  0.00  0.00    +0.095 C 
ATOM      8  N   UNL     1      -1.734   0.391  24.380  0.00  0.00    -0.263 N 
ATOM      9  C   UNL     1      -0.956   0.482  24.121  0.00  0.00    +0.095 C 
ATOM     10  C   UNL     1      -0.583   1.214  24.187  0.00  0.00    +0.022 C 
ATOM     25  C   UNL     1      -2.108  -0.342  24.313  0.00  0.00    +0.327 C 
ATOM     26  O   UNL     1      -1.704  -0.982  23.988  0.00  0.00    -0.250 OA
ATOM     27  N   UNL     1      -2.885  -0.432  24.572  0.00  0.00    -0.162 NA
ENDROOT
BRANCH  27  28
ATOM     28  C   UNL     1      -3.260  -1.166  24.505  0.00  0.00    +0.075 A 
ATOM     29  C   UNL     1      -3.080  -1.770  25.038  0.00  0.00    +0.019 A 
ATOM     30  C   UNL     1      -3.454  -2.502  24.971  0.00  0.00    +0.031 A 
ATOM     31  C   UNL     1      -4.007  -2.630  24.372  0.00  0.00    +0.140 A 
ATOM     32  F   UNL     1      -4.381  -3.362  24.306  0.00  0.00    -0.204 F 
ATOM     33  C   UNL     1      -4.186  -2.026  23.840  0.00  0.00    +0.031 A 
ATOM     34  C   UNL     1      -3.812  -1.293  23.907  0.00  0.00    +0.019 A 
ENDBRANCH  27  28
BRANCH   5   4
ATOM      4  C   UNL     1      -0.612   2.588  24.579  0.00  0.00    +0.114 C 
BRANCH   4   2
ATOM      1  O   UNL     1      -0.768   3.216  25.853  0.00  0.00    -0.246 OA
ATOM      2  C   UNL     1      -0.945   3.179  25.047  0.00  0.00    +0.365 C 
ATOM      3  O   UNL     1      -1.455   3.735  24.712  0.00  0.00    -0.246 OA
ENDBRANCH   4   2
ENDBRANCH   5   4
BRANCH  10  11
ATOM     11  C   UNL     1       0.196   1.305  23.928  0.00  0.00    +0.019 C 
BRANCH  11  12
ATOM     12  C   UNL     1       0.497   0.807  23.344  0.00  0.00    +0.072 C 
BRANCH  12  13
ATOM     13  N   UNL     1       1.309   0.662  23.304  0.00  0.00    -0.270 NA
ATOM     14  C   UNL     1       1.589  -0.113  23.290  0.00  0.00    +0.094 C 
ATOM     15  C   UNL     1       2.400  -0.257  23.251  0.00  0.00    +0.109 C 
ATOM     16  N   UNL     1       2.931   0.375  23.225  0.00  0.00    -0.290 N 
ATOM     17  C   UNL     1       2.651   1.150  23.238  0.00  0.00    +0.109 C 
ATOM     18  C   UNL     1       1.840   1.294  23.278  0.00  0.00    +0.094 C 
ATOM     19  C   UNL     1       3.743   0.229  23.185  0.00  0.00    +0.132 A 
ATOM     20  N   UNL     1       4.023  -0.546  23.172  0.00  0.00    -0.229 NA
ATOM     21  C   UNL     1       4.835  -0.691  23.132  0.00  0.00    +0.100 A 
ATOM     22  C   UNL     1       5.365  -0.060  23.106  0.00  0.00    +0.021 A 
ATOM     23  C   UNL     1       5.084   0.717  23.120  0.00  0.00    +0.004 A 
ATOM     24  C   UNL     1       4.273   0.861  23.159  0.00  0.00    +0.034 A 
ENDBRANCH  12  13
ENDBRANCH  11  12
ENDBRANCH  10  11
TORSDOF 6
ENDMDL
MODEL 6
REMARK VINA RESULT:      -7.5      1.978      2.686
REMARK  Name = 
REMARK  6 active torsions:
REMARK  status: ('A' for Active; 'I' for Inactive)
REMARK    1  A    between atoms: C_2  and  C_4
REMARK    2  A    between atoms: C_4  and  C_5
REMARK    3  A    between atoms: C_10  and  C_11
REMARK    4  A    between atoms: C_11  and  C_12
REMARK    5  A    between atoms: C_12  and  N_13
REMARK    6  A    between atoms: N_27  and  C_28
REMARK                            x       y       z     vdW  Elec       q    Type
REMARK                         _______ _______ _______ _____ _____    ______ ____
ROOT
ATOM      5  C   UNL     1      -1.054  -0.657  24.265  0.00  0.00    +0.015 C 
ATOM      6  C   UNL     1      -1.740  -0.366  24.619  0.00  0.00    +0.022 C 
ATOM      7  C   UNL     1      -1.826   0.442  24.752  0.00  0.00    +0.095 C 
ATOM      8  N   UNL     1      -1.225   0.963  24.532  0.00  0.00    -0.263 N 
ATOM      9  C   UNL     1      -0.539   0.673  24.177  0.00  0.00    +0.095 C 
ATOM     10  C   UNL     1      -0.454  -0.136  24.044  0.00  0.00    +0.022 C 
ATOM     25  C   UNL     1      -1.311   1.772  24.665  0.00  0.00    +0.327 C 
ATOM     26  O   UNL     1      -0.710   2.292  24.444  0.00  0.00    -0.250 OA
ATOM     27  N   UNL     1      -1.997   2.062  25.019  0.00  0.00    -0.162 NA
ENDROOT
BRANCH  27  28
ATOM     28  C   UNL     1      -2.082   2.872  25.152  0.00  0.00    +0.075 A 
ATOM     29  C   UNL     1      -1.640   3.241  25.743  0.00  0.00    +0.019 A 
ATOM     30  C   UNL     1      -1.725   4.051  25.877  0.00  0.00    +0.031 A 
ATOM     31  C   UNL     1      -2.253   4.492  25.419  0.00  0.00    +0.140 A 
ATOM     32  F   UNL     1      -2.338   5.300  25.552  0.00  0.00    -0.204 F 
ATOM     33  C   UNL     1      -2.695   4.121  24.829  0.00  0.00    +0.031 A 
ATOM     34  C   UNL     1      -2.609   3.312  24.695  0.00  0.00    +0.019 A 
ENDBRANCH  27  28
BRANCH   5   4
ATOM      4  C   UNL     1      -0.969  -1.466  24.132  0.00  0.00    +0.114 C 
BRANCH   4   2
ATOM      1  O   UNL     1      -2.159  -2.252  24.225  0.00  0.00    -0.246 OA
ATOM      2  C   UNL     1      -1.439  -2.003  24.544  0.00  0.00    +0.365 C 
ATOM      3  O   UNL     1      -1.190  -2.294  25.275  0.00  0.00    -0.246 OA
ENDBRANCH   4   2
ENDBRANCH   5   4
BRANCH  10  11
ATOM     11  C   UNL     1       0.233  -0.426  23.690  0.00  0.00    +0.019 C 
BRANCH  11  12
ATOM     12  C   UNL     1       0.658   0.048  23.165  0.00  0.00    +0.072 C 
BRANCH  12  13
ATOM     13  N   UNL     1       1.483   0.042  23.180  0.00  0.00    -0.270 NA
ATOM     14  C   UNL     1       1.889  -0.662  23.316  0.00  0.00    +0.094 C 
ATOM     15  C   UNL     1       2.713  -0.667  23.332  0.00  0.00    +0.109 C 
ATOM     16  N   UNL     1       3.132   0.034  23.210  0.00  0.00    -0.290 N 
ATOM     17  C   UNL     1       2.727   0.739  23.074  0.00  0.00    +0.109 C 
ATOM     18  C   UNL     1       1.902   0.744  23.058  0.00  0.00    +0.094 C 
ATOM     19  C   UNL     1       3.958   0.029  23.225  0.00  0.00    +0.132 A 
ATOM     20  N   UNL     1       4.363  -0.676  23.362  0.00  0.00    -0.229 NA
ATOM     21  C   UNL     1       5.188  -0.681  23.377  0.00  0.00    +0.100 A 
ATOM     22  C   UNL     1       5.607   0.019  23.256  0.00  0.00    +0.021 A 
ATOM     23  C   UNL     1       5.201   0.725  23.119  0.00  0.00    +0.004 A 
ATOM     24  C   UNL     1       4.376   0.729  23.104  0.00  0.00    +0.034 A 
ENDBRANCH  12  13
ENDBRANCH  11  12
ENDBRANCH  10  11
TORSDOF 6
ENDMDL
MODEL 7
REMARK VINA RESULT:      -6.8      2.715      4.941
REMARK  Name = 
REMARK  6 active torsions:
REMARK  status: ('A' for Active; 'I' for Inactive)
REMARK    1  A    between atoms: C_2  and  C_4
REMARK    2  A    between atoms: C_4  and  C_5
REMARK    3  A    between atoms: C_10  and  C_11
REMARK    4  A    between atoms: C_11  and  C_12
REMARK    5  A    between atoms: C_12  and  N_13
REMARK    6  A    between atoms: N_27  and  C_28
REMARK                            x       y       z     vdW  Elec       q    Type
REMARK                         _______ _______ _______ _____ _____    ______ ____
ROOT
ATOM      5  C   UNL     1       0.782   0.735  23.759  0.00  0.00    +0.015 C 
ATOM      6  C   UNL     1       1.058   1.503  23.638  0.00  0.00    +0.022 C 
ATOM      7  C   UNL     1       0.619   2.146  23.908  0.00  0.00    +0.095 C 
ATOM      8  N   UNL     1      -0.097   2.022  24.299  0.00  0.00    -0.263 N 
ATOM      9  C   UNL     1      -0.372   1.254  24.419  0.00  0.00    +0.095 C 
ATOM     10  C   UNL     1       0.067   0.611  24.149  0.00  0.00    +0.022 C 
ATOM     25  C   UNL     1      -0.537   2.666  24.569  0.00  0.00    +0.327 C 
ATOM     26  O   UNL     1      -1.252   2.541  24.960  0.00  0.00    -0.250 OA
ATOM     27  N   UNL     1      -0.260   3.433  24.449  0.00  0.00    -0.162 NA
ENDROOT
BRANCH  27  28
ATOM     28  C   UNL     1      -0.701   4.077  24.719  0.00  0.00    +0.075 A 
ATOM     29  C   UNL     1      -0.461   4.846  24.537  0.00  0.00    +0.019 A 
ATOM     30  C   UNL     1      -0.901   5.489  24.807  0.00  0.00    +0.031 A 
ATOM     31  C   UNL     1      -1.580   5.365  25.260  0.00  0.00    +0.140 A 
ATOM     32  F   UNL     1      -2.019   6.008  25.530  0.00  0.00    -0.204 F 
ATOM     33  C   UNL     1      -1.818   4.596  25.442  0.00  0.00    +0.031 A 
ATOM     34  C   UNL     1      -1.378   3.953  25.172  0.00  0.00    +0.019 A 
ENDBRANCH  27  28
BRANCH   5   4
ATOM      4  C   UNL     1       1.222   0.091  23.488  0.00  0.00    +0.114 C 
BRANCH   4   2
ATOM      1  O   UNL     1       2.473   0.468  22.910  0.00  0.00    -0.246 OA
ATOM      2  C   UNL     1       1.707   0.172  22.826  0.00  0.00    +0.365 C 
ATOM      3  O   UNL     1       1.427  -0.042  22.080  0.00  0.00    -0.246 OA
ENDBRANCH   4   2
ENDBRANCH   5   4
BRANCH  10  11
ATOM     11  C   UNL     1      -0.210  -0.158  24.270  0.00  0.00    +0.019 C 
BRANCH  11  12
ATOM     12  C   UNL     1      -0.767  -0.308  24.859  0.00  0.00    +0.072 C 
BRANCH  12  13
ATOM     13  N   UNL     1      -1.403  -0.811  24.706  0.00  0.00    -0.270 NA
ATOM     14  C   UNL     1      -1.310  -1.627  24.776  0.00  0.00    +0.094 C 
ATOM     15  C   UNL     1      -1.945  -2.130  24.623  0.00  0.00    +0.109 C 
ATOM     16  N   UNL     1      -2.675  -1.816  24.399  0.00  0.00    -0.290 N 
ATOM     17  C   UNL     1      -2.768  -1.000  24.328  0.00  0.00    +0.109 C 
ATOM     18  C   UNL     1      -2.133  -0.497  24.481  0.00  0.00    +0.094 C 
ATOM     19  C   UNL     1      -3.311  -2.319  24.245  0.00  0.00    +0.132 A 
ATOM     20  N   UNL     1      -3.218  -3.135  24.316  0.00  0.00    -0.229 NA
ATOM     21  C   UNL     1      -3.854  -3.638  24.162  0.00  0.00    +0.100 A 
ATOM     22  C   UNL     1      -4.583  -3.324  23.938  0.00  0.00    +0.021 A 
ATOM     23  C   UNL     1      -4.676  -2.507  23.867  0.00  0.00    +0.004 A 
ATOM     24  C   UNL     1      -4.040  -2.005  24.021  0.00  0.00    +0.034 A 
ENDBRANCH  12  13
ENDBRANCH  11  12
ENDBRANCH  10  11
TORSDOF 6
ENDMDL
MODEL 8
REMARK VINA RESULT:      -6.7      3.351      5.004
REMARK  Name = 
REMARK  6 active torsions:
REMARK  status: ('A' for Active; 'I' for Inactive)
REMARK    1  A    between atoms: C_2  and  C_4
REMARK    2  A    between atoms: C_4  and  C_5
REMARK    3  A    between atoms: C_10  and  C_11
REMARK    4  A    between atoms: C_11  and  C_12
REMARK    5  A    between atoms: C_12  and  N_13
REMARK    6  A    between atoms: N_27  and  C_28
REMARK                            x       y       z     vdW  Elec       q    Type
REMARK                         _______ _______ _______ _____ _____    ______ ____
ROOT
ATOM      5  C   UNL     1      -5.430   1.526  25.265  0.00  0.00    +0.015 C 
ATOM      6  C   UNL     1      -5.624   0.775  25.547  0.00  0.00    +0.022 C 
ATOM      7  C   UNL     1      -5.180   0.120  25.316  0.00  0.00    +0.095 C 
ATOM      8  N   UNL     1      -4.541   0.215  24.804  0.00  0.00    -0.263 N 
ATOM      9  C   UNL     1      -4.347   0.965  24.522  0.00  0.00    +0.095 C 
ATOM     10  C   UNL     1      -4.791   1.620  24.753  0.00  0.00    +0.022 C 
ATOM     25  C   UNL     1      -4.096  -0.441  24.573  0.00  0.00    +0.327 C 
ATOM     26  O   UNL     1      -3.457  -0.346  24.061  0.00  0.00    -0.250 OA
ATOM     27  N   UNL     1      -4.291  -1.191  24.855  0.00  0.00    -0.162 NA
ENDROOT
BRANCH  27  28
ATOM     28  C   UNL     1      -3.846  -1.847  24.624  0.00  0.00    +0.075 A 
ATOM     29  C   UNL     1      -4.109  -2.327  24.007  0.00  0.00    +0.019 A 
ATOM     30  C   UNL     1      -3.664  -2.982  23.776  0.00  0.00    +0.031 A 
ATOM     31  C   UNL     1      -2.956  -3.158  24.163  0.00  0.00    +0.140 A 
ATOM     32  F   UNL     1      -2.512  -3.813  23.933  0.00  0.00    -0.204 F 
ATOM     33  C   UNL     1      -2.694  -2.678  24.780  0.00  0.00    +0.031 A 
ATOM     34  C   UNL     1      -3.139  -2.022  25.011  0.00  0.00    +0.019 A 
ENDBRANCH  27  28
BRANCH   5   4
ATOM      4  C   UNL     1      -5.875   2.181  25.496  0.00  0.00    +0.114 C 
BRANCH   4   2
ATOM      1  O   UNL     1      -5.870   2.608  26.860  0.00  0.00    -0.246 OA
ATOM      2  C   UNL     1      -6.229   2.197  26.240  0.00  0.00    +0.365 C 
ATOM      3  O   UNL     1      -6.944   1.804  26.366  0.00  0.00    -0.246 OA
ENDBRANCH   4   2
ENDBRANCH   5   4
BRANCH  10  11
ATOM     11  C   UNL     1      -4.596   2.371  24.471  0.00  0.00    +0.019 C 
BRANCH  11  12
ATOM     12  C   UNL     1      -3.975   2.463  23.935  0.00  0.00    +0.072 C 
BRANCH  12  13
ATOM     13  N   UNL     1      -3.359   2.986  24.104  0.00  0.00    -0.270 NA
ATOM     14  C   UNL     1      -2.576   2.744  24.017  0.00  0.00    +0.094 C 
ATOM     15  C   UNL     1      -1.962   3.267  24.186  0.00  0.00    +0.109 C 
ATOM     16  N   UNL     1      -2.131   4.034  24.442  0.00  0.00    -0.290 N 
ATOM     17  C   UNL     1      -2.914   4.276  24.529  0.00  0.00    +0.109 C 
ATOM     18  C   UNL     1      -3.528   3.753  24.360  0.00  0.00    +0.094 C 
ATOM     19  C   UNL     1      -1.515   4.557  24.611  0.00  0.00    +0.132 A 
ATOM     20  N   UNL     1      -0.732   4.315  24.524  0.00  0.00    -0.229 NA
ATOM     21  C   UNL     1      -0.117   4.838  24.693  0.00  0.00    +0.100 A 
ATOM     22  C   UNL     1      -0.285   5.604  24.948  0.00  0.00    +0.021 A 
ATOM     23  C   UNL     1      -1.070   5.847  25.036  0.00  0.00    +0.004 A 
ATOM     24  C   UNL     1      -1.684   5.323  24.867  0.00  0.00    +0.034 A 
ENDBRANCH  12  13
ENDBRANCH  11  12
ENDBRANCH  10  11
TORSDOF 6
ENDMDL
