REMARK  Name = 
REMARK  4 active torsions:
REMARK  status: ('A' for Active; 'I' for Inactive)
REMARK    1  A    between atoms: N_3  and  C_4
REMARK    2  A    between atoms: C_6  and  C_10
REMARK    3  A    between atoms: N_12  and  C_13
REMARK    4  A    between atoms: N_21  and  C_23
REMARK                            x       y       z     vdW  Elec       q    Type
REMARK                         _______ _______ _______ _____ _____    ______ ____
ROOT
ATOM     13  C   UNL     1      -1.296  -1.150   0.000  0.00  0.00    +0.131 A 
ATOM     14  C   UNL     1      -1.167  -0.335   0.000  0.00  0.00    +0.023 A 
ATOM     15  C   UNL     1      -0.397  -0.039   0.000  0.00  0.00    +0.014 A 
ATOM     16  C   UNL     1       0.244  -0.558   0.000  0.00  0.00    +0.041 A 
ATOM     17  C   UNL     1       1.163  -0.557   0.000  0.00  0.00    +0.054 C 
ATOM     18  C   UNL     1       1.713  -0.121   0.000  0.00  0.00    +0.011 C 
ATOM     19  C   UNL     1       1.582  -0.925   0.000  0.00  0.00    +0.039 C 
ATOM     20  C   UNL     1       1.629  -1.912   0.000  0.00  0.00    +0.074 C 
ATOM     21  N   UNL     1       0.813  -2.091   0.000  0.00  0.00    -0.273 NA
ATOM     22  C   UNL     1       1.225  -1.510   0.000  0.00  0.00    +0.078 C 
ATOM     29  C   UNL     1       0.622  -0.936   0.000  0.00  0.00    +0.110 C 
ATOM     30  N   UNL     1       0.115  -1.373   0.000  0.00  0.00    -0.298 N 
ATOM     31  C   UNL     1      -0.655  -1.669   0.000  0.00  0.00    +0.276 A 
ATOM     32  O   UNL     1      -1.238  -2.252   0.000  0.00  0.00    -0.266 OA
ENDROOT
BRANCH  21  23
ATOM     23  C   UNL     1       0.125  -2.547   0.000  0.00  0.00    +0.063 C 
ATOM     24  C   UNL     1       0.176  -3.370   0.000  0.00  0.00    +0.048 C 
ATOM     25  C   UNL     1      -0.512  -3.826   0.000  0.00  0.00    +0.144 C 
ATOM     26  O   UNL     1      -1.251  -3.458   0.000  0.00  0.00    -0.354 OA
ATOM     27  C   UNL     1      -1.301  -2.635   0.000  0.00  0.00    +0.144 C 
ATOM     28  C   UNL     1      -0.614  -2.179   0.000  0.00  0.00    +0.048 C 
ENDBRANCH  21  23
BRANCH  13  12
ATOM      1  O   UNL     1      -3.478  -1.222   0.000  0.00  0.00    -0.248 OA
ATOM      2  C   UNL     1      -2.707  -0.926   0.000  0.00  0.00    +0.348 C 
ATOM      3  N   UNL     1      -2.578  -0.111   0.000  0.00  0.00    -0.161 NA
ATOM     12  N   UNL     1      -2.066  -1.445   0.000  0.00  0.00    -0.156 NA
BRANCH   3   4
ATOM      4  C   UNL     1      -3.220   0.408   0.000  0.00  0.00    +0.076 A 
ATOM      5  C   UNL     1      -3.990   0.112   0.000  0.00  0.00    +0.027 A 
ATOM      6  C   UNL     1      -4.631   0.631   0.000  0.00  0.00    +0.070 A 
ATOM      7  C   UNL     1      -4.502   1.446   0.000  0.00  0.00    +0.010 A 
ATOM      8  C   UNL     1      -3.732   1.742   0.000  0.00  0.00    +0.002 A 
ATOM      9  C   UNL     1      -3.091   1.223   0.000  0.00  0.00    +0.017 A 
BRANCH   6  10
ATOM     10  C   UNL     1      -5.401   0.335   0.000  0.00  0.00    +0.100 C 
ATOM     11  N   UNL     1      -6.171   0.040   0.000  0.00  0.00    -0.191 NA
ENDBRANCH   6  10
ENDBRANCH   3   4
ENDBRANCH  13  12
TORSDOF 4
