REMARK  Name = 
REMARK  6 active torsions:
REMARK  status: ('A' for Active; 'I' for Inactive)
REMARK    1  A    between atoms: O_2  and  C_3
REMARK    2  A    between atoms: C_3  and  C_4
REMARK    3  A    between atoms: C_4  and  N_5
REMARK    4  A    between atoms: C_11  and  C_13
REMARK    5  A    between atoms: C_24  and  C_25
REMARK    6  A    between atoms: C_25  and  C_26
REMARK                            x       y       z     vdW  Elec       q    Type
REMARK                         _______ _______ _______ _____ _____    ______ ____
ROOT
ATOM     13  C   UNL     1       4.143   1.132   0.000  0.00  0.00    +0.154 C 
ATOM     14  C   UNL     1       3.765   0.399   0.000  0.00  0.00    +0.055 C 
ATOM     15  C   UNL     1       2.956   0.237   0.000  0.00  0.00    +0.000 A 
ATOM     16  C   UNL     1       2.645  -0.527   0.000  0.00  0.00    +0.095 A 
ATOM     17  N   UNL     1       1.822  -0.468   0.000  0.00  0.00    -0.244 NA
ATOM     18  C   UNL     1       1.624   0.333   0.000  0.00  0.00    +0.081 A 
ATOM     19  C   UNL     1       2.325   0.769   0.000  0.00  0.00    +0.013 A 
ATOM     20  C   UNL     1       2.348   1.594   0.000  0.00  0.00    -0.005 A 
ATOM     21  C   UNL     1       1.571   1.982   0.000  0.00  0.00    -0.003 A 
ATOM     22  C   UNL     1       0.870   1.547   0.000  0.00  0.00    +0.001 A 
ATOM     23  C   UNL     1       0.897   0.722   0.000  0.00  0.00    +0.019 A 
ATOM     24  C   UNL     1       3.006   2.090   0.000  0.00  0.00    +0.095 C 
ATOM     29  N   UNL     1       3.805   1.885   0.000  0.00  0.00    -0.207 NA
ENDROOT
BRANCH  13  11
ATOM      5  N   UNL     1       6.146  -1.067   0.000  0.00  0.00    -0.268 NA
ATOM      6  C   UNL     1       5.322  -1.044   0.000  0.00  0.00    +0.094 C 
ATOM      7  C   UNL     1       4.929  -0.319   0.000  0.00  0.00    +0.111 C 
ATOM      8  N   UNL     1       5.361   0.384   0.000  0.00  0.00    -0.276 N 
ATOM      9  C   UNL     1       6.185   0.362   0.000  0.00  0.00    +0.111 C 
ATOM     10  C   UNL     1       6.578  -0.364   0.000  0.00  0.00    +0.094 C 
ATOM     11  C   UNL     1       4.968   1.110   0.000  0.00  0.00    +0.242 C 
ATOM     12  O   UNL     1       5.399   1.813   0.000  0.00  0.00    -0.273 OA
BRANCH   5   4
ATOM      4  C   UNL     1       6.539  -1.792   0.000  0.00  0.00    +0.105 C 
BRANCH   4   3
ATOM      3  C   UNL     1       7.364  -1.815   0.000  0.00  0.00    +0.160 C 
BRANCH   3   2
ATOM      1  C   UNL     1       8.581  -2.562   0.000  0.00  0.00    +0.174 C 
ATOM      2  O   UNL     1       7.757  -2.540   0.000  0.00  0.00    -0.350 OA
ENDBRANCH   3   2
ENDBRANCH   4   3
ENDBRANCH   5   4
ENDBRANCH  13  11
BRANCH  24  25
ATOM     25  C   UNL     1       2.845   2.899   0.000  0.00  0.00    +0.022 C 
BRANCH  25  26
ATOM     26  C   UNL     1       2.063   3.164   0.000  0.00  0.00    +0.002 C 
ATOM     27  C   UNL     1       1.443   2.619   0.000  0.00  0.00    +0.000 C 
ATOM     28  C   UNL     1       1.902   3.973   0.000  0.00  0.00    +0.000 C 
ENDBRANCH  25  26
ENDBRANCH  24  25
TORSDOF 6
