REMARK  Name = 
REMARK  4 active torsions:
REMARK  status: ('A' for Active; 'I' for Inactive)
REMARK    1  A    between atoms: O_2  and  C_3
REMARK    2  A    between atoms: C_4  and  C_9
REMARK    3  A    between atoms: N_17  and  C_18
REMARK    4  A    between atoms: C_18  and  C_19
REMARK                            x       y       z     vdW  Elec       q    Type
REMARK                         _______ _______ _______ _____ _____    ______ ____
ROOT
ATOM      9  C   UNL     1       4.067   2.348   0.000  0.00  0.00    +0.252 C 
ATOM     10  O   UNL     1       4.067   3.173   0.000  0.00  0.00    -0.270 OA
ATOM     11  N   UNL     1       3.352   1.935   0.000  0.00  0.00    -0.272 N 
ATOM     12  C   UNL     1       3.352   1.110   0.000  0.00  0.00    +0.115 C 
ATOM     13  C   UNL     1       2.638   0.698   0.000  0.00  0.00    +0.116 C 
ATOM     14  N   UNL     1       1.923   1.110   0.000  0.00  0.00    -0.261 N 
ATOM     15  C   UNL     1       1.923   1.935   0.000  0.00  0.00    +0.116 C 
ATOM     16  C   UNL     1       1.139   2.190   0.000  0.00  0.00    +0.117 C 
ATOM     17  N   UNL     1       0.654   1.523   0.000  0.00  0.00    -0.257 N 
ATOM     25  C   UNL     1       1.139   0.856   0.000  0.00  0.00    +0.308 C 
ATOM     26  O   UNL     1       0.884   0.071   0.000  0.00  0.00    -0.252 OA
ATOM     27  C   UNL     1       2.638   2.348   0.000  0.00  0.00    +0.115 C 
ENDROOT
BRANCH   9   4
ATOM      3  C   UNL     1       4.781   1.110   0.000  0.00  0.00    +0.143 A 
ATOM      4  C   UNL     1       4.781   1.935   0.000  0.00  0.00    +0.087 A 
ATOM      5  C   UNL     1       5.496   2.348   0.000  0.00  0.00    +0.008 A 
ATOM      6  C   UNL     1       6.210   1.935   0.000  0.00  0.00    +0.000 A 
ATOM      7  C   UNL     1       6.210   1.110   0.000  0.00  0.00    +0.003 A 
ATOM      8  C   UNL     1       5.496   0.698   0.000  0.00  0.00    +0.037 A 
BRANCH   3   2
ATOM      1  C   UNL     1       4.067  -0.127   0.000  0.00  0.00    +0.252 C 
ATOM      2  O   UNL     1       4.067   0.698   0.000  0.00  0.00    -0.471 OA
ENDBRANCH   3   2
ENDBRANCH   9   4
BRANCH  17  18
ATOM     18  C   UNL     1      -0.171   1.523   0.000  0.00  0.00    +0.141 C 
BRANCH  18  19
ATOM     19  C   UNL     1      -0.584   2.237   0.000  0.00  0.00    +0.079 A 
ATOM     20  N   UNL     1      -1.409   2.237   0.000  0.00  0.00    -0.246 NA
ATOM     21  C   UNL     1      -1.821   2.952   0.000  0.00  0.00    +0.099 A 
ATOM     22  C   UNL     1      -1.409   3.666   0.000  0.00  0.00    +0.021 A 
ATOM     23  C   UNL     1      -0.584   3.666   0.000  0.00  0.00    +0.003 A 
ATOM     24  C   UNL     1      -0.171   2.952   0.000  0.00  0.00    +0.016 A 
ENDBRANCH  18  19
ENDBRANCH  17  18
TORSDOF 4
