MODEL 1
REMARK VINA RESULT:     -10.6      0.000      0.000
REMARK  Name = 
REMARK  2 active torsions:
REMARK  status: ('A' for Active; 'I' for Inactive)
REMARK    1  A    between atoms: C_7  and  N_10
REMARK    2  A    between atoms: C_13  and  C_15
REMARK                            x       y       z     vdW  Elec       q    Type
REMARK                         _______ _______ _______ _____ _____    ______ ____
ROOT
ATOM     10  N   UNL     1      -4.195   0.786  24.868  0.00  0.00    -0.273 NA
ATOM     11  C   UNL     1      -4.926   1.151  24.981  0.00  0.00    +0.073 C 
ATOM     12  C   UNL     1      -4.804   1.967  24.995  0.00  0.00    +0.028 C 
ATOM     13  C   UNL     1      -3.998   2.107  24.890  0.00  0.00    +0.095 C 
ATOM     14  C   UNL     1      -3.621   1.377  24.811  0.00  0.00    +0.081 C 
ENDROOT
BRANCH  10   7
ATOM      1  C   UNL     1      -3.799  -2.865  23.966  0.00  0.00    +0.095 C 
ATOM      2  C   UNL     1      -3.657  -2.464  24.674  0.00  0.00    +0.226 C 
ATOM      3  O   UNL     1      -3.380  -2.877  25.332  0.00  0.00    -0.275 OA
ATOM      4  N   UNL     1      -3.791  -1.652  24.722  0.00  0.00    -0.279 N 
ATOM      5  C   UNL     1      -3.649  -1.252  25.429  0.00  0.00    +0.095 C 
ATOM      6  C   UNL     1      -3.784  -0.439  25.477  0.00  0.00    +0.038 C 
ATOM      7  C   UNL     1      -4.060  -0.027  24.819  0.00  0.00    +0.061 C 
ATOM      8  C   UNL     1      -4.203  -0.427  24.111  0.00  0.00    +0.038 C 
ATOM      9  C   UNL     1      -4.068  -1.240  24.063  0.00  0.00    +0.095 C 
ENDBRANCH  10   7
BRANCH  13  15
ATOM     15  C   UNL     1      -3.633   2.846  24.867  0.00  0.00    +0.227 A 
ATOM     16  N   UNL     1      -3.803   3.454  24.338  0.00  0.00    -0.112 NA
ATOM     17  N   UNL     1      -3.308   4.091  24.513  0.00  0.00    -0.112 NA
ATOM     18  C   UNL     1      -2.832   3.875  25.151  0.00  0.00    +0.227 A 
ATOM     19  C   UNL     1      -2.257   4.347  25.507  0.00  0.00    +0.097 C 
ATOM     20  O   UNL     1      -3.033   3.106  25.370  0.00  0.00    -0.423 OA
ENDBRANCH  13  15
TORSDOF 2
ENDMDL
MODEL 2
REMARK VINA RESULT:      -9.8      1.064      4.751
REMARK  Name = 
REMARK  2 active torsions:
REMARK  status: ('A' for Active; 'I' for Inactive)
REMARK    1  A    between atoms: C_7  and  N_10
REMARK    2  A    between atoms: C_13  and  C_15
REMARK                            x       y       z     vdW  Elec       q    Type
REMARK                         _______ _______ _______ _____ _____    ______ ____
ROOT
ATOM     10  N   UNL     1      -3.580   1.567  24.884  0.00  0.00    -0.273 NA
ATOM     11  C   UNL     1      -4.400   1.536  24.962  0.00  0.00    +0.073 C 
ATOM     12  C   UNL     1      -4.639   0.755  24.842  0.00  0.00    +0.028 C 
ATOM     13  C   UNL     1      -3.965   0.303  24.690  0.00  0.00    +0.095 C 
ATOM     14  C   UNL     1      -3.310   0.805  24.716  0.00  0.00    +0.081 C 
ENDROOT
BRANCH  10   7
ATOM      1  C   UNL     1      -0.887   4.216  25.064  0.00  0.00    +0.095 C 
ATOM      2  C   UNL     1      -1.702   4.263  25.190  0.00  0.00    +0.226 C 
ATOM      3  O   UNL     1      -2.046   4.985  25.392  0.00  0.00    -0.275 OA
ATOM      4  N   UNL     1      -2.171   3.589  25.113  0.00  0.00    -0.279 N 
ATOM      5  C   UNL     1      -2.985   3.637  25.239  0.00  0.00    +0.095 C 
ATOM      6  C   UNL     1      -3.454   2.963  25.162  0.00  0.00    +0.038 C 
ATOM      7  C   UNL     1      -3.110   2.241  24.960  0.00  0.00    +0.061 C 
ATOM      8  C   UNL     1      -2.296   2.193  24.835  0.00  0.00    +0.038 C 
ATOM      9  C   UNL     1      -1.826   2.867  24.911  0.00  0.00    +0.095 C 
ENDBRANCH  10   7
BRANCH  13  15
ATOM     15  C   UNL     1      -3.949  -0.507  24.539  0.00  0.00    +0.227 A 
ATOM     16  N   UNL     1      -4.265  -0.883  23.876  0.00  0.00    -0.112 NA
ATOM     17  N   UNL     1      -4.125  -1.693  23.952  0.00  0.00    -0.112 NA
ATOM     18  C   UNL     1      -3.722  -1.817  24.660  0.00  0.00    +0.227 A 
ATOM     19  C   UNL     1      -3.473  -2.546  24.953  0.00  0.00    +0.097 C 
ATOM     20  O   UNL     1      -3.613  -1.085  25.023  0.00  0.00    -0.423 OA
ENDBRANCH  13  15
TORSDOF 2
ENDMDL
MODEL 3
REMARK VINA RESULT:      -9.3      1.560      4.475
REMARK  Name = 
REMARK  2 active torsions:
REMARK  status: ('A' for Active; 'I' for Inactive)
REMARK    1  A    between atoms: C_7  and  N_10
REMARK    2  A    between atoms: C_13  and  C_15
REMARK                            x       y       z     vdW  Elec       q    Type
REMARK                         _______ _______ _______ _____ _____    ______ ____
ROOT
ATOM     10  N   UNL     1      -4.041   0.248  24.690  0.00  0.00    -0.273 NA
ATOM     11  C   UNL     1      -4.449  -0.325  24.260  0.00  0.00    +0.073 C 
ATOM     12  C   UNL     1      -3.961  -0.987  24.189  0.00  0.00    +0.028 C 
ATOM     13  C   UNL     1      -3.250  -0.822  24.575  0.00  0.00    +0.095 C 
ATOM     14  C   UNL     1      -3.300  -0.059  24.885  0.00  0.00    +0.081 C 
ENDROOT
BRANCH  10   7
ATOM      1  C   UNL     1      -4.712   3.912  25.340  0.00  0.00    +0.095 C 
ATOM      2  C   UNL     1      -5.172   3.243  25.491  0.00  0.00    +0.226 C 
ATOM      3  O   UNL     1      -5.913   3.324  25.843  0.00  0.00    -0.275 OA
ATOM      4  N   UNL     1      -4.889   2.495  25.291  0.00  0.00    -0.279 N 
ATOM      5  C   UNL     1      -5.348   1.827  25.442  0.00  0.00    +0.095 C 
ATOM      6  C   UNL     1      -5.065   1.078  25.242  0.00  0.00    +0.038 C 
ATOM      7  C   UNL     1      -4.324   0.997  24.891  0.00  0.00    +0.061 C 
ATOM      8  C   UNL     1      -3.864   1.666  24.739  0.00  0.00    +0.038 C 
ATOM      9  C   UNL     1      -4.147   2.415  24.940  0.00  0.00    +0.095 C 
ENDBRANCH  10   7
BRANCH  13  15
ATOM     15  C   UNL     1      -2.604  -1.330  24.641  0.00  0.00    +0.227 A 
ATOM     16  N   UNL     1      -2.607  -2.139  24.479  0.00  0.00    -0.112 NA
ATOM     17  N   UNL     1      -1.846  -2.428  24.617  0.00  0.00    -0.112 NA
ATOM     18  C   UNL     1      -1.375  -1.798  24.864  0.00  0.00    +0.227 A 
ATOM     19  C   UNL     1      -0.575  -1.840  25.062  0.00  0.00    +0.097 C 
ATOM     20  O   UNL     1      -1.843  -1.120  24.879  0.00  0.00    -0.423 OA
ENDBRANCH  13  15
TORSDOF 2
ENDMDL
MODEL 4
REMARK VINA RESULT:      -9.2      1.561      1.983
REMARK  Name = 
REMARK  2 active torsions:
REMARK  status: ('A' for Active; 'I' for Inactive)
REMARK    1  A    between atoms: C_7  and  N_10
REMARK    2  A    between atoms: C_13  and  C_15
REMARK                            x       y       z     vdW  Elec       q    Type
REMARK                         _______ _______ _______ _____ _____    ______ ____
ROOT
ATOM     10  N   UNL     1      -2.066   1.012  24.978  0.00  0.00    -0.273 NA
ATOM     11  C   UNL     1      -1.249   1.065  25.081  0.00  0.00    +0.073 C 
ATOM     12  C   UNL     1      -1.060   1.855  25.224  0.00  0.00    +0.028 C 
ATOM     13  C   UNL     1      -1.761   2.291  25.211  0.00  0.00    +0.095 C 
ATOM     14  C   UNL     1      -2.382   1.770  25.059  0.00  0.00    +0.081 C 
ENDROOT
BRANCH  10   7
ATOM      1  C   UNL     1      -3.605  -2.436  24.778  0.00  0.00    +0.095 C 
ATOM      2  C   UNL     1      -3.769  -1.745  24.356  0.00  0.00    +0.226 C 
ATOM      3  O   UNL     1      -4.358  -1.745  23.779  0.00  0.00    -0.275 OA
ATOM      4  N   UNL     1      -3.343  -1.056  24.512  0.00  0.00    -0.279 N 
ATOM      5  C   UNL     1      -3.507  -0.367  24.090  0.00  0.00    +0.095 C 
ATOM      6  C   UNL     1      -3.081   0.323  24.246  0.00  0.00    +0.038 C 
ATOM      7  C   UNL     1      -2.491   0.323  24.823  0.00  0.00    +0.061 C 
ATOM      8  C   UNL     1      -2.327  -0.368  25.244  0.00  0.00    +0.038 C 
ATOM      9  C   UNL     1      -2.753  -1.058  25.089  0.00  0.00    +0.095 C 
ENDBRANCH  10   7
BRANCH  13  15
ATOM     15  C   UNL     1      -1.828   3.105  25.329  0.00  0.00    +0.227 A 
ATOM     16  N   UNL     1      -2.373   3.479  25.821  0.00  0.00    -0.112 NA
ATOM     17  N   UNL     1      -2.244   4.293  25.772  0.00  0.00    -0.112 NA
ATOM     18  C   UNL     1      -1.620   4.420  25.248  0.00  0.00    +0.227 A 
ATOM     19  C   UNL     1      -1.309   5.154  25.036  0.00  0.00    +0.097 C 
ATOM     20  O   UNL     1      -1.363   3.686  24.974  0.00  0.00    -0.423 OA
ENDBRANCH  13  15
TORSDOF 2
ENDMDL
MODEL 5
REMARK VINA RESULT:      -8.7      2.037      2.451
REMARK  Name = 
REMARK  2 active torsions:
REMARK  status: ('A' for Active; 'I' for Inactive)
REMARK    1  A    between atoms: C_7  and  N_10
REMARK    2  A    between atoms: C_13  and  C_15
REMARK                            x       y       z     vdW  Elec       q    Type
REMARK                         _______ _______ _______ _____ _____    ______ ____
ROOT
ATOM     10  N   UNL     1      -3.554   0.316  24.831  0.00  0.00    -0.273 NA
ATOM     11  C   UNL     1      -4.243  -0.006  24.512  0.00  0.00    +0.073 C 
ATOM     12  C   UNL     1      -4.857   0.531  24.635  0.00  0.00    +0.028 C 
ATOM     13  C   UNL     1      -4.548   1.185  25.031  0.00  0.00    +0.095 C 
ATOM     14  C   UNL     1      -3.742   1.052  25.152  0.00  0.00    +0.081 C 
ENDROOT
BRANCH  10   7
ATOM      1  C   UNL     1      -0.416  -1.738  25.318  0.00  0.00    +0.095 C 
ATOM      2  C   UNL     1      -0.570  -1.093  24.825  0.00  0.00    +0.226 C 
ATOM      3  O   UNL     1       0.023  -0.802  24.332  0.00  0.00    -0.275 OA
ATOM      4  N   UNL     1      -1.316  -0.741  24.826  0.00  0.00    -0.279 N 
ATOM      5  C   UNL     1      -1.469  -0.097  24.335  0.00  0.00    +0.095 C 
ATOM      6  C   UNL     1      -2.215   0.255  24.336  0.00  0.00    +0.038 C 
ATOM      7  C   UNL     1      -2.808  -0.037  24.829  0.00  0.00    +0.061 C 
ATOM      8  C   UNL     1      -2.655  -0.681  25.322  0.00  0.00    +0.038 C 
ATOM      9  C   UNL     1      -1.909  -1.033  25.321  0.00  0.00    +0.095 C 
ENDBRANCH  10   7
BRANCH  13  15
ATOM     15  C   UNL     1      -4.969   1.855  25.265  0.00  0.00    +0.227 A 
ATOM     16  N   UNL     1      -5.696   1.858  25.653  0.00  0.00    -0.112 NA
ATOM     17  N   UNL     1      -5.914   2.644  25.780  0.00  0.00    -0.112 NA
ATOM     18  C   UNL     1      -5.320   3.126  25.470  0.00  0.00    +0.227 A 
ATOM     19  C   UNL     1      -5.313   3.950  25.479  0.00  0.00    +0.097 C 
ATOM     20  O   UNL     1      -4.736   2.638  25.153  0.00  0.00    -0.423 OA
ENDBRANCH  13  15
TORSDOF 2
ENDMDL
MODEL 6
REMARK VINA RESULT:      -8.7      2.419      4.264
REMARK  Name = 
REMARK  2 active torsions:
REMARK  status: ('A' for Active; 'I' for Inactive)
REMARK    1  A    between atoms: C_7  and  N_10
REMARK    2  A    between atoms: C_13  and  C_15
REMARK                            x       y       z     vdW  Elec       q    Type
REMARK                         _______ _______ _______ _____ _____    ______ ____
ROOT
ATOM     10  N   UNL     1      -2.943   1.882  24.102  0.00  0.00    -0.273 NA
ATOM     11  C   UNL     1      -2.693   2.079  23.341  0.00  0.00    +0.073 C 
ATOM     12  C   UNL     1      -1.998   1.662  23.184  0.00  0.00    +0.028 C 
ATOM     13  C   UNL     1      -1.818   1.208  23.848  0.00  0.00    +0.095 C 
ATOM     14  C   UNL     1      -2.402   1.343  24.416  0.00  0.00    +0.081 C 
ENDROOT
BRANCH  10   7
ATOM      1  C   UNL     1      -6.229   2.525  25.858  0.00  0.00    +0.095 C 
ATOM      2  C   UNL     1      -5.630   3.044  25.624  0.00  0.00    +0.226 C 
ATOM      3  O   UNL     1      -5.705   3.852  25.771  0.00  0.00    -0.275 OA
ATOM      4  N   UNL     1      -4.958   2.753  25.244  0.00  0.00    -0.279 N 
ATOM      5  C   UNL     1      -4.361   3.271  25.010  0.00  0.00    +0.095 C 
ATOM      6  C   UNL     1      -3.689   2.981  24.629  0.00  0.00    +0.038 C 
ATOM      7  C   UNL     1      -3.615   2.173  24.482  0.00  0.00    +0.061 C 
ATOM      8  C   UNL     1      -4.213   1.654  24.716  0.00  0.00    +0.038 C 
ATOM      9  C   UNL     1      -4.885   1.945  25.097  0.00  0.00    +0.095 C 
ENDBRANCH  10   7
BRANCH  13  15
ATOM     15  C   UNL     1      -1.169   0.706  23.931  0.00  0.00    +0.227 A 
ATOM     16  N   UNL     1      -0.392   0.881  23.722  0.00  0.00    -0.112 NA
ATOM     17  N   UNL     1       0.075   0.224  23.899  0.00  0.00    -0.112 NA
ATOM     18  C   UNL     1      -0.416  -0.358  24.218  0.00  0.00    +0.227 A 
ATOM     19  C   UNL     1      -0.177  -1.105  24.473  0.00  0.00    +0.097 C 
ATOM     20  O   UNL     1      -1.184  -0.060  24.238  0.00  0.00    -0.423 OA
ENDBRANCH  13  15
TORSDOF 2
ENDMDL
