MODEL 1
REMARK VINA RESULT:     -11.1      0.000      0.000
REMARK  Name = 
REMARK  5 active torsions:
REMARK  status: ('A' for Active; 'I' for Inactive)
REMARK    1  A    between atoms: N_2  and  C_4
REMARK    2  A    between atoms: C_7  and  C_8
REMARK    3  A    between atoms: C_8  and  N_9
REMARK    4  A    between atoms: C_14  and  C_15
REMARK    5  A    between atoms: C_17  and  C_20
REMARK                            x       y       z     vdW  Elec       q    Type
REMARK                         _______ _______ _______ _____ _____    ______ ____
ROOT
ATOM      9  N   UNL     1      -4.348   1.561  24.925  0.00  0.00    -0.260 NA
ATOM     10  C   UNL     1      -5.069   1.241  25.170  0.00  0.00    +0.106 C 
ATOM     11  C   UNL     1      -5.581   1.865  25.337  0.00  0.00    +0.170 C 
ATOM     12  O   UNL     1      -6.360   1.796  25.600  0.00  0.00    -0.222 OA
ATOM     13  C   UNL     1      -5.178   2.570  25.196  0.00  0.00    +0.060 C 
ATOM     14  C   UNL     1      -4.416   2.382  24.941  0.00  0.00    +0.140 C 
ENDROOT
BRANCH  14  15
ATOM     15  C   UNL     1      -3.825   2.922  24.738  0.00  0.00    +0.251 A 
ATOM     16  N   UNL     1      -3.238   3.209  25.240  0.00  0.00    -0.194 NA
ATOM     17  C   UNL     1      -2.769   3.733  24.809  0.00  0.00    +0.180 A 
ATOM     18  N   UNL     1      -3.067   3.770  24.040  0.00  0.00    -0.061 NA
ATOM     19  O   UNL     1      -3.720   3.269  23.997  0.00  0.00    -0.336 OA
BRANCH  17  20
ATOM     20  C   UNL     1      -2.116   4.148  25.096  0.00  0.00    +0.062 C 
ATOM     21  C   UNL     1      -1.769   4.857  25.337  0.00  0.00    +0.008 C 
ATOM     22  C   UNL     1      -1.331   4.158  25.354  0.00  0.00    +0.008 C 
ENDBRANCH  17  20
ENDBRANCH  14  15
BRANCH   9   8
ATOM      8  C   UNL     1      -3.679   1.134  24.703  0.00  0.00    +0.100 C 
BRANCH   8   7
ATOM      4  C   UNL     1      -3.780  -1.334  24.544  0.00  0.00    +0.048 A 
ATOM      5  C   UNL     1      -3.585  -0.975  25.261  0.00  0.00    +0.014 A 
ATOM      6  C   UNL     1      -3.551  -0.152  25.313  0.00  0.00    -0.002 A 
ATOM      7  C   UNL     1      -3.712   0.311  24.649  0.00  0.00    -0.006 A 
ATOM     23  C   UNL     1      -3.907  -0.049  23.934  0.00  0.00    -0.002 A 
ATOM     24  C   UNL     1      -3.941  -0.872  23.880  0.00  0.00    +0.014 A 
BRANCH   4   2
ATOM      1  C   UNL     1      -3.418  -2.622  25.048  0.00  0.00    +0.112 C 
ATOM      2  N   UNL     1      -3.813  -2.157  24.492  0.00  0.00    -0.304 N 
ATOM      3  C   UNL     1      -4.241  -2.515  23.884  0.00  0.00    +0.112 C 
ENDBRANCH   4   2
ENDBRANCH   8   7
ENDBRANCH   9   8
TORSDOF 5
ENDMDL
MODEL 2
REMARK VINA RESULT:     -10.2      1.216      4.613
REMARK  Name = 
REMARK  5 active torsions:
REMARK  status: ('A' for Active; 'I' for Inactive)
REMARK    1  A    between atoms: N_2  and  C_4
REMARK    2  A    between atoms: C_7  and  C_8
REMARK    3  A    between atoms: C_8  and  N_9
REMARK    4  A    between atoms: C_14  and  C_15
REMARK    5  A    between atoms: C_17  and  C_20
REMARK                            x       y       z     vdW  Elec       q    Type
REMARK                         _______ _______ _______ _____ _____    ______ ____
ROOT
ATOM      9  N   UNL     1      -3.890   1.517  24.845  0.00  0.00    -0.260 NA
ATOM     10  C   UNL     1      -4.346   2.203  24.803  0.00  0.00    +0.106 C 
ATOM     11  C   UNL     1      -5.136   1.991  24.901  0.00  0.00    +0.170 C 
ATOM     12  O   UNL     1      -5.781   2.506  24.897  0.00  0.00    -0.222 OA
ATOM     13  C   UNL     1      -5.170   1.173  25.003  0.00  0.00    +0.060 C 
ATOM     14  C   UNL     1      -4.399   0.880  24.969  0.00  0.00    +0.140 C 
ENDROOT
BRANCH  14  15
ATOM     15  C   UNL     1      -4.177   0.089  25.045  0.00  0.00    +0.251 A 
ATOM     16  N   UNL     1      -4.183  -0.476  24.444  0.00  0.00    -0.194 NA
ATOM     17  C   UNL     1      -3.920  -1.190  24.762  0.00  0.00    +0.180 A 
ATOM     18  N   UNL     1      -3.752  -1.066  25.561  0.00  0.00    -0.061 NA
ATOM     19  O   UNL     1      -3.911  -0.276  25.735  0.00  0.00    -0.336 OA
BRANCH  17  20
ATOM     20  C   UNL     1      -3.840  -1.903  24.355  0.00  0.00    +0.062 C 
ATOM     21  C   UNL     1      -4.123  -2.447  23.803  0.00  0.00    +0.008 C 
ATOM     22  C   UNL     1      -3.416  -2.594  24.201  0.00  0.00    +0.008 C 
ENDBRANCH  17  20
ENDBRANCH  14  15
BRANCH   9   8
ATOM      8  C   UNL     1      -3.069   1.475  24.776  0.00  0.00    +0.100 C 
BRANCH   8   7
ATOM      4  C   UNL     1      -1.707   3.537  24.908  0.00  0.00    +0.048 A 
ATOM      5  C   UNL     1      -1.926   3.142  25.599  0.00  0.00    +0.014 A 
ATOM      6  C   UNL     1      -2.380   2.454  25.554  0.00  0.00    -0.002 A 
ATOM      7  C   UNL     1      -2.615   2.162  24.820  0.00  0.00    -0.006 A 
ATOM     23  C   UNL     1      -2.396   2.557  24.130  0.00  0.00    -0.002 A 
ATOM     24  C   UNL     1      -1.942   3.245  24.174  0.00  0.00    +0.014 A 
BRANCH   4   2
ATOM      1  C   UNL     1      -1.601   4.933  25.194  0.00  0.00    +0.112 C 
ATOM      2  N   UNL     1      -1.253   4.224  24.953  0.00  0.00    -0.304 N 
ATOM      3  C   UNL     1      -0.452   4.203  24.758  0.00  0.00    +0.112 C 
ENDBRANCH   4   2
ENDBRANCH   8   7
ENDBRANCH   9   8
TORSDOF 5
ENDMDL
MODEL 3
REMARK VINA RESULT:     -10.1      2.320      3.156
REMARK  Name = 
REMARK  5 active torsions:
REMARK  status: ('A' for Active; 'I' for Inactive)
REMARK    1  A    between atoms: N_2  and  C_4
REMARK    2  A    between atoms: C_7  and  C_8
REMARK    3  A    between atoms: C_8  and  N_9
REMARK    4  A    between atoms: C_14  and  C_15
REMARK    5  A    between atoms: C_17  and  C_20
REMARK                            x       y       z     vdW  Elec       q    Type
REMARK                         _______ _______ _______ _____ _____    ______ ____
ROOT
ATOM      9  N   UNL     1      -1.041   0.789  24.597  0.00  0.00    -0.260 NA
ATOM     10  C   UNL     1      -0.700   0.213  24.113  0.00  0.00    +0.106 C 
ATOM     11  C   UNL     1       0.009   0.514  23.820  0.00  0.00    +0.170 C 
ATOM     12  O   UNL     1       0.530   0.122  23.314  0.00  0.00    -0.222 OA
ATOM     13  C   UNL     1       0.107   1.275  24.122  0.00  0.00    +0.060 C 
ATOM     14  C   UNL     1      -0.542   1.445  24.602  0.00  0.00    +0.140 C 
ENDROOT
BRANCH  14  15
ATOM     15  C   UNL     1      -0.669   2.149  25.014  0.00  0.00    +0.251 A 
ATOM     16  N   UNL     1      -0.944   2.856  24.693  0.00  0.00    -0.194 NA
ATOM     17  C   UNL     1      -0.989   3.412  25.300  0.00  0.00    +0.180 A 
ATOM     18  N   UNL     1      -0.741   3.048  25.998  0.00  0.00    -0.061 NA
ATOM     19  O   UNL     1      -0.543   2.267  25.821  0.00  0.00    -0.336 OA
BRANCH  17  20
ATOM     20  C   UNL     1      -1.237   4.195  25.224  0.00  0.00    +0.062 C 
ATOM     21  C   UNL     1      -1.817   4.774  25.322  0.00  0.00    +0.008 C 
ATOM     22  C   UNL     1      -1.087   4.974  24.994  0.00  0.00    +0.008 C 
ENDBRANCH  17  20
ENDBRANCH  14  15
BRANCH   9   8
ATOM      8  C   UNL     1      -1.755   0.720  25.003  0.00  0.00    +0.100 C 
BRANCH   8   7
ATOM      4  C   UNL     1      -3.207  -1.250  24.632  0.00  0.00    +0.048 A 
ATOM      5  C   UNL     1      -3.309  -0.570  24.175  0.00  0.00    +0.014 A 
ATOM      6  C   UNL     1      -2.825   0.086  24.299  0.00  0.00    -0.002 A 
ATOM      7  C   UNL     1      -2.239   0.063  24.879  0.00  0.00    -0.006 A 
ATOM     23  C   UNL     1      -2.138  -0.616  25.336  0.00  0.00    -0.002 A 
ATOM     24  C   UNL     1      -2.621  -1.273  25.212  0.00  0.00    +0.014 A 
BRANCH   4   2
ATOM      1  C   UNL     1      -4.328  -1.856  23.985  0.00  0.00    +0.112 C 
ATOM      2  N   UNL     1      -3.691  -1.906  24.508  0.00  0.00    -0.304 N 
ATOM      3  C   UNL     1      -3.539  -2.613  24.905  0.00  0.00    +0.112 C 
ENDBRANCH   4   2
ENDBRANCH   8   7
ENDBRANCH   9   8
TORSDOF 5
ENDMDL
MODEL 4
REMARK VINA RESULT:      -9.7      2.606      5.574
REMARK  Name = 
REMARK  5 active torsions:
REMARK  status: ('A' for Active; 'I' for Inactive)
REMARK    1  A    between atoms: N_2  and  C_4
REMARK    2  A    between atoms: C_7  and  C_8
REMARK    3  A    between atoms: C_8  and  N_9
REMARK    4  A    between atoms: C_14  and  C_15
REMARK    5  A    between atoms: C_17  and  C_20
REMARK                            x       y       z     vdW  Elec       q    Type
REMARK                         _______ _______ _______ _____ _____    ______ ____
ROOT
ATOM      9  N   UNL     1      -0.804   0.621  24.652  0.00  0.00    -0.260 NA
ATOM     10  C   UNL     1      -0.177   0.968  24.242  0.00  0.00    +0.106 C 
ATOM     11  C   UNL     1       0.181   0.385  23.782  0.00  0.00    +0.170 C 
ATOM     12  O   UNL     1       0.830   0.491  23.284  0.00  0.00    -0.222 OA
ATOM     13  C   UNL     1      -0.224  -0.322  23.908  0.00  0.00    +0.060 C 
ATOM     14  C   UNL     1      -0.832  -0.177  24.446  0.00  0.00    +0.140 C 
ENDROOT
BRANCH  14  15
ATOM     15  C   UNL     1      -1.374  -0.732  24.727  0.00  0.00    +0.251 A 
ATOM     16  N   UNL     1      -2.043  -1.002  24.328  0.00  0.00    -0.194 NA
ATOM     17  C   UNL     1      -2.424  -1.551  24.811  0.00  0.00    +0.180 A 
ATOM     18  N   UNL     1      -1.990  -1.620  25.510  0.00  0.00    -0.061 NA
ATOM     19  O   UNL     1      -1.341  -1.114  25.457  0.00  0.00    -0.336 OA
BRANCH  17  20
ATOM     20  C   UNL     1      -3.118  -1.959  24.629  0.00  0.00    +0.062 C 
ATOM     21  C   UNL     1      -3.556  -2.658  24.626  0.00  0.00    +0.008 C 
ATOM     22  C   UNL     1      -3.881  -1.967  24.315  0.00  0.00    +0.008 C 
ENDBRANCH  17  20
ENDBRANCH  14  15
BRANCH   9   8
ATOM      8  C   UNL     1      -1.312   1.004  25.177  0.00  0.00    +0.100 C 
BRANCH   8   7
ATOM      4  C   UNL     1      -1.416   3.477  25.217  0.00  0.00    +0.048 A 
ATOM      5  C   UNL     1      -1.894   3.052  24.696  0.00  0.00    +0.014 A 
ATOM      6  C   UNL     1      -1.859   2.228  24.683  0.00  0.00    -0.002 A 
ATOM      7  C   UNL     1      -1.346   1.829  25.190  0.00  0.00    -0.006 A 
ATOM     23  C   UNL     1      -0.868   2.253  25.711  0.00  0.00    -0.002 A 
ATOM     24  C   UNL     1      -0.902   3.078  25.724  0.00  0.00    +0.014 A 
BRANCH   4   2
ATOM      1  C   UNL     1      -2.116   4.681  25.537  0.00  0.00    +0.112 C 
ATOM      2  N   UNL     1      -1.451   4.301  25.230  0.00  0.00    -0.304 N 
ATOM      3  C   UNL     1      -0.821   4.746  24.936  0.00  0.00    +0.112 C 
ENDBRANCH   4   2
ENDBRANCH   8   7
ENDBRANCH   9   8
TORSDOF 5
ENDMDL
MODEL 5
REMARK VINA RESULT:      -9.4      1.254      1.865
REMARK  Name = 
REMARK  5 active torsions:
REMARK  status: ('A' for Active; 'I' for Inactive)
REMARK    1  A    between atoms: N_2  and  C_4
REMARK    2  A    between atoms: C_7  and  C_8
REMARK    3  A    between atoms: C_8  and  N_9
REMARK    4  A    between atoms: C_14  and  C_15
REMARK    5  A    between atoms: C_17  and  C_20
REMARK                            x       y       z     vdW  Elec       q    Type
REMARK                         _______ _______ _______ _____ _____    ______ ____
ROOT
ATOM      9  N   UNL     1      -3.382   1.381  23.806  0.00  0.00    -0.260 NA
ATOM     10  C   UNL     1      -3.067   1.031  23.128  0.00  0.00    +0.106 C 
ATOM     11  C   UNL     1      -2.772   1.631  22.645  0.00  0.00    +0.170 C 
ATOM     12  O   UNL     1      -2.409   1.528  21.911  0.00  0.00    -0.222 OA
ATOM     13  C   UNL     1      -2.905   2.351  23.023  0.00  0.00    +0.060 C 
ATOM     14  C   UNL     1      -3.282   2.197  23.741  0.00  0.00    +0.140 C 
ENDROOT
BRANCH  14  15
ATOM     15  C   UNL     1      -3.517   2.761  24.296  0.00  0.00    +0.251 A 
ATOM     16  N   UNL     1      -3.045   3.081  24.891  0.00  0.00    -0.194 NA
ATOM     17  C   UNL     1      -3.502   3.620  25.316  0.00  0.00    +0.180 A 
ATOM     18  N   UNL     1      -4.257   3.634  24.983  0.00  0.00    -0.061 NA
ATOM     19  O   UNL     1      -4.266   3.102  24.352  0.00  0.00    -0.336 OA
BRANCH  17  20
ATOM     20  C   UNL     1      -3.249   4.068  25.961  0.00  0.00    +0.062 C 
ATOM     21  C   UNL     1      -2.730   4.619  26.289  0.00  0.00    +0.008 C 
ATOM     22  C   UNL     1      -3.330   4.294  26.751  0.00  0.00    +0.008 C 
ENDBRANCH  17  20
ENDBRANCH  14  15
BRANCH   9   8
ATOM      8  C   UNL     1      -3.735   0.985  24.437  0.00  0.00    +0.100 C 
BRANCH   8   7
ATOM      4  C   UNL     1      -3.645  -1.486  24.554  0.00  0.00    +0.048 A 
ATOM      5  C   UNL     1      -3.048  -1.034  24.902  0.00  0.00    +0.014 A 
ATOM      6  C   UNL     1      -3.079  -0.211  24.863  0.00  0.00    -0.002 A 
ATOM      7  C   UNL     1      -3.705   0.161  24.476  0.00  0.00    -0.006 A 
ATOM     23  C   UNL     1      -4.301  -0.291  24.128  0.00  0.00    -0.002 A 
ATOM     24  C   UNL     1      -4.271  -1.114  24.167  0.00  0.00    +0.014 A 
BRANCH   4   2
ATOM      1  C   UNL     1      -3.322  -2.679  25.271  0.00  0.00    +0.112 C 
ATOM      2  N   UNL     1      -3.614  -2.309  24.594  0.00  0.00    -0.304 N 
ATOM      3  C   UNL     1      -3.876  -2.763  23.956  0.00  0.00    +0.112 C 
ENDBRANCH   4   2
ENDBRANCH   8   7
ENDBRANCH   9   8
TORSDOF 5
ENDMDL
MODEL 6
REMARK VINA RESULT:      -9.1      1.967      3.058
REMARK  Name = 
REMARK  5 active torsions:
REMARK  status: ('A' for Active; 'I' for Inactive)
REMARK    1  A    between atoms: N_2  and  C_4
REMARK    2  A    between atoms: C_7  and  C_8
REMARK    3  A    between atoms: C_8  and  N_9
REMARK    4  A    between atoms: C_14  and  C_15
REMARK    5  A    between atoms: C_17  and  C_20
REMARK                            x       y       z     vdW  Elec       q    Type
REMARK                         _______ _______ _______ _____ _____    ______ ____
ROOT
ATOM      9  N   UNL     1      -1.641   2.031  25.142  0.00  0.00    -0.260 NA
ATOM     10  C   UNL     1      -0.886   1.970  25.471  0.00  0.00    +0.106 C 
ATOM     11  C   UNL     1      -0.717   2.682  25.853  0.00  0.00    +0.170 C 
ATOM     12  O   UNL     1      -0.020   2.861  26.257  0.00  0.00    -0.222 OA
ATOM     13  C   UNL     1      -1.365   3.182  25.759  0.00  0.00    +0.060 C 
ATOM     14  C   UNL     1      -1.936   2.780  25.320  0.00  0.00    +0.140 C 
ENDROOT
BRANCH  14  15
ATOM     15  C   UNL     1      -2.674   3.076  25.097  0.00  0.00    +0.251 A 
ATOM     16  N   UNL     1      -3.374   3.007  25.528  0.00  0.00    -0.194 NA
ATOM     17  C   UNL     1      -3.973   3.380  25.102  0.00  0.00    +0.180 A 
ATOM     18  N   UNL     1      -3.644   3.681  24.408  0.00  0.00    -0.061 NA
ATOM     19  O   UNL     1      -2.841   3.492  24.405  0.00  0.00    -0.336 OA
BRANCH  17  20
ATOM     20  C   UNL     1      -4.764   3.443  25.331  0.00  0.00    +0.062 C 
ATOM     21  C   UNL     1      -5.487   3.088  25.506  0.00  0.00    +0.008 C 
ATOM     22  C   UNL     1      -5.410   3.908  25.550  0.00  0.00    +0.008 C 
ENDBRANCH  17  20
ENDBRANCH  14  15
BRANCH   9   8
ATOM      8  C   UNL     1      -2.030   1.446  24.710  0.00  0.00    +0.100 C 
BRANCH   8   7
ATOM      4  C   UNL     1      -1.299  -0.913  24.882  0.00  0.00    +0.048 A 
ATOM      5  C   UNL     1      -1.871  -0.619  25.400  0.00  0.00    +0.014 A 
ATOM      6  C   UNL     1      -2.114   0.167  25.342  0.00  0.00    -0.002 A 
ATOM      7  C   UNL     1      -1.786   0.660  24.767  0.00  0.00    -0.006 A 
ATOM     23  C   UNL     1      -1.215   0.366  24.250  0.00  0.00    -0.002 A 
ATOM     24  C   UNL     1      -0.971  -0.420  24.307  0.00  0.00    +0.014 A 
BRANCH   4   2
ATOM      1  C   UNL     1      -1.524  -2.299  24.621  0.00  0.00    +0.112 C 
ATOM      2  N   UNL     1      -1.056  -1.699  24.940  0.00  0.00    -0.304 N 
ATOM      3  C   UNL     1      -0.346  -1.885  25.316  0.00  0.00    +0.112 C 
ENDBRANCH   4   2
ENDBRANCH   8   7
ENDBRANCH   9   8
TORSDOF 5
ENDMDL
MODEL 7
REMARK VINA RESULT:      -8.8      2.348      4.371
REMARK  Name = 
REMARK  5 active torsions:
REMARK  status: ('A' for Active; 'I' for Inactive)
REMARK    1  A    between atoms: N_2  and  C_4
REMARK    2  A    between atoms: C_7  and  C_8
REMARK    3  A    between atoms: C_8  and  N_9
REMARK    4  A    between atoms: C_14  and  C_15
REMARK    5  A    between atoms: C_17  and  C_20
REMARK                            x       y       z     vdW  Elec       q    Type
REMARK                         _______ _______ _______ _____ _____    ______ ____
ROOT
ATOM      9  N   UNL     1      -1.748   2.074  24.629  0.00  0.00    -0.260 NA
ATOM     10  C   UNL     1      -1.717   2.841  24.931  0.00  0.00    +0.106 C 
ATOM     11  C   UNL     1      -0.971   2.953  25.265  0.00  0.00    +0.170 C 
ATOM     12  O   UNL     1      -0.702   3.642  25.631  0.00  0.00    -0.222 OA
ATOM     13  C   UNL     1      -0.542   2.256  25.170  0.00  0.00    +0.060 C 
ATOM     14  C   UNL     1      -1.022   1.712  24.776  0.00  0.00    +0.140 C 
ENDROOT
BRANCH  14  15
ATOM     15  C   UNL     1      -0.812   0.942  24.567  0.00  0.00    +0.251 A 
ATOM     16  N   UNL     1      -0.950   0.264  25.015  0.00  0.00    -0.194 NA
ATOM     17  C   UNL     1      -0.651  -0.382  24.599  0.00  0.00    +0.180 A 
ATOM     18  N   UNL     1      -0.328  -0.103  23.892  0.00  0.00    -0.061 NA
ATOM     19  O   UNL     1      -0.428   0.716  23.873  0.00  0.00    -0.336 OA
BRANCH  17  20
ATOM     20  C   UNL     1      -0.670  -1.169  24.845  0.00  0.00    +0.062 C 
ATOM     21  C   UNL     1      -1.054  -1.899  24.876  0.00  0.00    +0.008 C 
ATOM     22  C   UNL     1      -0.320  -1.804  25.240  0.00  0.00    +0.008 C 
ENDBRANCH  17  20
ENDBRANCH  14  15
BRANCH   9   8
ATOM      8  C   UNL     1      -2.393   1.729  24.247  0.00  0.00    +0.100 C 
BRANCH   8   7
ATOM      4  C   UNL     1      -4.698   2.368  24.883  0.00  0.00    +0.048 A 
ATOM      5  C   UNL     1      -4.327   1.734  25.259  0.00  0.00    +0.014 A 
ATOM      6  C   UNL     1      -3.558   1.521  25.046  0.00  0.00    -0.002 A 
ATOM      7  C   UNL     1      -3.161   1.943  24.459  0.00  0.00    -0.006 A 
ATOM     23  C   UNL     1      -3.532   2.576  24.084  0.00  0.00    -0.002 A 
ATOM     24  C   UNL     1      -4.300   2.789  24.295  0.00  0.00    +0.014 A 
BRANCH   4   2
ATOM      1  C   UNL     1      -6.096   2.078  24.920  0.00  0.00    +0.112 C 
ATOM      2  N   UNL     1      -5.466   2.581  25.096  0.00  0.00    -0.304 N 
ATOM      3  C   UNL     1      -5.604   3.296  25.483  0.00  0.00    +0.112 C 
ENDBRANCH   4   2
ENDBRANCH   8   7
ENDBRANCH   9   8
TORSDOF 5
ENDMDL
