MODEL 1
REMARK VINA RESULT:     -11.4      0.000      0.000
REMARK  Name = 
REMARK  2 active torsions:
REMARK  status: ('A' for Active; 'I' for Inactive)
REMARK    1  A    between atoms: C_2  and  C_3
REMARK    2  A    between atoms: N_15  and  C_16
REMARK                            x       y       z     vdW  Elec       q    Type
REMARK                         _______ _______ _______ _____ _____    ______ ____
ROOT
ATOM      1  O   UNL     1      -1.325  -0.847  26.132  0.00  0.00    -0.275 OA
ATOM      2  C   UNL     1      -1.862  -0.718  25.519  0.00  0.00    +0.225 C 
ATOM      9  N   UNL     1      -1.981   0.045  25.228  0.00  0.00    -0.276 N 
ATOM     10  C   UNL     1      -2.518   0.174  24.614  0.00  0.00    +0.115 C 
ATOM     11  C   UNL     1      -2.637   0.936  24.324  0.00  0.00    +0.116 C 
ATOM     12  N   UNL     1      -2.220   1.571  24.646  0.00  0.00    -0.261 N 
ATOM     13  C   UNL     1      -1.683   1.442  25.259  0.00  0.00    +0.116 C 
ATOM     14  C   UNL     1      -1.353   2.169  25.466  0.00  0.00    +0.116 C 
ATOM     15  N   UNL     1      -1.686   2.747  24.982  0.00  0.00    -0.264 N 
ATOM     22  C   UNL     1      -2.221   2.377  24.475  0.00  0.00    +0.307 C 
ATOM     23  O   UNL     1      -2.679   2.749  23.897  0.00  0.00    -0.252 OA
ATOM     24  C   UNL     1      -1.563   0.679  25.550  0.00  0.00    +0.115 C 
ENDROOT
BRANCH   2   3
ATOM      3  C   UNL     1      -2.279  -1.352  25.196  0.00  0.00    +0.082 C 
ATOM      4  C   UNL     1      -1.932  -1.819  24.610  0.00  0.00    +0.041 C 
ATOM      5  C   UNL     1      -2.350  -2.453  24.287  0.00  0.00    +0.143 C 
ATOM      6  O   UNL     1      -3.114  -2.620  24.549  0.00  0.00    -0.354 OA
ATOM      7  C   UNL     1      -3.461  -2.153  25.134  0.00  0.00    +0.143 C 
ATOM      8  C   UNL     1      -3.044  -1.519  25.457  0.00  0.00    +0.041 C 
ENDBRANCH   2   3
BRANCH  15  16
ATOM     16  C   UNL     1      -1.514   3.554  25.000  0.00  0.00    +0.077 C 
ATOM     17  C   UNL     1      -0.811   3.834  24.668  0.00  0.00    +0.020 C 
ATOM     18  C   UNL     1      -0.639   4.640  24.687  0.00  0.00    +0.002 C 
ATOM     19  C   UNL     1      -1.170   5.167  25.037  0.00  0.00    +0.000 C 
ATOM     20  C   UNL     1      -1.871   4.888  25.368  0.00  0.00    +0.002 C 
ATOM     21  C   UNL     1      -2.043   4.081  25.349  0.00  0.00    +0.020 C 
ENDBRANCH  15  16
TORSDOF 2
ENDMDL
MODEL 2
REMARK VINA RESULT:     -11.4      1.144      4.968
REMARK  Name = 
REMARK  2 active torsions:
REMARK  status: ('A' for Active; 'I' for Inactive)
REMARK    1  A    between atoms: C_2  and  C_3
REMARK    2  A    between atoms: N_15  and  C_16
REMARK                            x       y       z     vdW  Elec       q    Type
REMARK                         _______ _______ _______ _____ _____    ______ ____
ROOT
ATOM      1  O   UNL     1      -0.464   2.611  26.254  0.00  0.00    -0.275 OA
ATOM      2  C   UNL     1      -1.032   2.794  25.684  0.00  0.00    +0.225 C 
ATOM      9  N   UNL     1      -1.491   2.194  25.350  0.00  0.00    -0.276 N 
ATOM     10  C   UNL     1      -2.059   2.377  24.780  0.00  0.00    +0.115 C 
ATOM     11  C   UNL     1      -2.517   1.778  24.447  0.00  0.00    +0.116 C 
ATOM     12  N   UNL     1      -2.408   0.995  24.684  0.00  0.00    -0.261 N 
ATOM     13  C   UNL     1      -1.840   0.812  25.253  0.00  0.00    +0.116 C 
ATOM     14  C   UNL     1      -1.856  -0.003  25.377  0.00  0.00    +0.116 C 
ATOM     15  N   UNL     1      -2.434  -0.324  24.883  0.00  0.00    -0.264 N 
ATOM     22  C   UNL     1      -2.774   0.293  24.455  0.00  0.00    +0.307 C 
ATOM     23  O   UNL     1      -3.377   0.221  23.896  0.00  0.00    -0.252 OA
ATOM     24  C   UNL     1      -1.381   1.412  25.587  0.00  0.00    +0.115 C 
ENDROOT
BRANCH   2   3
ATOM      3  C   UNL     1      -1.142   3.577  25.447  0.00  0.00    +0.082 C 
ATOM      4  C   UNL     1      -0.613   3.925  24.918  0.00  0.00    +0.041 C 
ATOM      5  C   UNL     1      -0.722   4.708  24.681  0.00  0.00    +0.143 C 
ATOM      6  O   UNL     1      -1.361   5.142  24.972  0.00  0.00    -0.354 OA
ATOM      7  C   UNL     1      -1.889   4.793  25.500  0.00  0.00    +0.143 C 
ATOM      8  C   UNL     1      -1.780   4.011  25.738  0.00  0.00    +0.041 C 
ENDBRANCH   2   3
BRANCH  15  16
ATOM     16  C   UNL     1      -2.635  -1.122  24.827  0.00  0.00    +0.077 C 
ATOM     17  C   UNL     1      -3.337  -1.396  25.166  0.00  0.00    +0.020 C 
ATOM     18  C   UNL     1      -3.539  -2.194  25.110  0.00  0.00    +0.002 C 
ATOM     19  C   UNL     1      -3.038  -2.718  24.715  0.00  0.00    +0.000 C 
ATOM     20  C   UNL     1      -2.338  -2.446  24.377  0.00  0.00    +0.002 C 
ATOM     21  C   UNL     1      -2.136  -1.648  24.433  0.00  0.00    +0.020 C 
ENDBRANCH  15  16
TORSDOF 2
ENDMDL
