MODEL 1
REMARK VINA RESULT:     -10.5      0.000      0.000
REMARK  Name = 
REMARK  10 active torsions:
REMARK  status: ('A' for Active; 'I' for Inactive)
REMARK    1  A    between atoms: S_2  and  C_3
REMARK    2  A    between atoms: C_7  and  N_8
REMARK    3  A    between atoms: N_11  and  C_12
REMARK    4  A    between atoms: C_16  and  C_17
REMARK    5  A    between atoms: N_19  and  C_20
REMARK    6  A    between atoms: C_20  and  C_21
REMARK    7  A    between atoms: C_20  and  C_28
REMARK    8  A    between atoms: C_21  and  C_22
REMARK    9  A    between atoms: C_31  and  C_33
REMARK   10  A    between atoms: C_33  and  C_34
REMARK                            x       y       z     vdW  Elec       q    Type
REMARK                         _______ _______ _______ _____ _____    ______ ____
ROOT
ATOM     12  C   UNL     1      -0.913   1.110  23.948  0.00  0.00    +0.126 C 
ATOM     13  C   UNL     1      -0.921   1.774  23.458  0.00  0.00    +0.045 C 
ATOM     14  C   UNL     1      -1.601   2.210  23.631  0.00  0.00    +0.096 C 
ATOM     15  N   UNL     1      -2.012   1.815  24.228  0.00  0.00    -0.272 N 
ATOM     16  C   UNL     1      -1.587   1.135  24.424  0.00  0.00    +0.174 C 
ATOM     31  C   UNL     1      -2.723   2.057  24.568  0.00  0.00    +0.226 C 
ATOM     32  O   UNL     1      -3.071   1.603  25.163  0.00  0.00    -0.275 OA
ENDROOT
BRANCH  12  11
ATOM      8  N   UNL     1       0.886  -0.022  23.451  0.00  0.00    -0.161 NA
ATOM      9  C   UNL     1       0.306   0.565  23.439  0.00  0.00    +0.344 C 
ATOM     10  O   UNL     1       0.364   1.192  22.906  0.00  0.00    -0.249 OA
ATOM     11  N   UNL     1      -0.333   0.524  23.959  0.00  0.00    -0.186 NA
BRANCH   8   7
ATOM      3  C   UNL     1       2.863   0.429  22.644  0.00  0.00    +0.027 A 
ATOM      4  C   UNL     1       2.802   0.103  21.888  0.00  0.00    +0.006 A 
ATOM      5  C   UNL     1       2.101  -0.265  21.654  0.00  0.00    +0.002 A 
ATOM      6  C   UNL     1       1.463  -0.306  22.175  0.00  0.00    +0.017 A 
ATOM      7  C   UNL     1       1.524   0.020  22.930  0.00  0.00    +0.075 A 
ATOM     38  C   UNL     1       2.224   0.388  23.164  0.00  0.00    +0.023 A 
BRANCH   3   2
ATOM      1  C   UNL     1       4.276   0.382  22.853  0.00  0.00    +0.074 C 
ATOM      2  S   UNL     1       3.563   0.797  22.879  0.00  0.00    -0.113 S 
ENDBRANCH   3   2
ENDBRANCH   8   7
ENDBRANCH  12  11
BRANCH  16  17
ATOM     17  C   UNL     1      -1.799   0.579  24.994  0.00  0.00    +0.262 C 
ATOM     18  O   UNL     1      -1.758   0.772  25.794  0.00  0.00    -0.271 OA
ATOM     19  N   UNL     1      -2.051  -0.172  24.764  0.00  0.00    -0.196 NA
BRANCH  19  20
ATOM     20  C   UNL     1      -2.263  -0.730  25.334  0.00  0.00    +0.179 C 
BRANCH  20  28
ATOM     28  C   UNL     1      -1.680  -1.095  25.790  0.00  0.00    +0.281 C 
ATOM     29  N   UNL     1      -1.663  -0.980  26.606  0.00  0.00    -0.086 NA
ATOM     30  O   UNL     1      -1.114  -1.575  25.429  0.00  0.00    -0.270 OA
ENDBRANCH  20  28
BRANCH  20  21
ATOM     21  C   UNL     1      -3.056  -0.922  25.448  0.00  0.00    +0.057 C 
BRANCH  21  22
ATOM     22  C   UNL     1      -3.435  -1.439  24.928  0.00  0.00    -0.020 A 
ATOM     23  C   UNL     1      -3.946  -1.143  24.352  0.00  0.00    -0.004 A 
ATOM     24  C   UNL     1      -4.325  -1.659  23.832  0.00  0.00    -0.000 A 
ATOM     25  C   UNL     1      -4.193  -2.472  23.888  0.00  0.00    -0.000 A 
ATOM     26  C   UNL     1      -3.681  -2.768  24.464  0.00  0.00    -0.000 A 
ATOM     27  C   UNL     1      -3.302  -2.251  24.984  0.00  0.00    -0.004 A 
ENDBRANCH  21  22
ENDBRANCH  20  21
ENDBRANCH  19  20
ENDBRANCH  16  17
BRANCH  31  33
ATOM     33  C   UNL     1      -3.086   2.753  24.315  0.00  0.00    +0.085 C 
BRANCH  33  34
ATOM     34  C   UNL     1      -3.805   2.988  24.645  0.00  0.00    +0.009 C 
ATOM     35  C   UNL     1      -3.399   3.427  25.214  0.00  0.00    +0.000 C 
ATOM     36  C   UNL     1      -4.209   2.548  24.076  0.00  0.00    +0.000 C 
ATOM     37  C   UNL     1      -4.523   3.223  24.976  0.00  0.00    +0.000 C 
ENDBRANCH  33  34
ENDBRANCH  31  33
TORSDOF 10
ENDMDL
MODEL 2
REMARK VINA RESULT:      -9.6      1.059      3.271
REMARK  Name = 
REMARK  10 active torsions:
REMARK  status: ('A' for Active; 'I' for Inactive)
REMARK    1  A    between atoms: S_2  and  C_3
REMARK    2  A    between atoms: C_7  and  N_8
REMARK    3  A    between atoms: N_11  and  C_12
REMARK    4  A    between atoms: C_16  and  C_17
REMARK    5  A    between atoms: N_19  and  C_20
REMARK    6  A    between atoms: C_20  and  C_21
REMARK    7  A    between atoms: C_20  and  C_28
REMARK    8  A    between atoms: C_21  and  C_22
REMARK    9  A    between atoms: C_31  and  C_33
REMARK   10  A    between atoms: C_33  and  C_34
REMARK                            x       y       z     vdW  Elec       q    Type
REMARK                         _______ _______ _______ _____ _____    ______ ____
ROOT
ATOM     12  C   UNL     1      -0.168   0.117  24.085  0.00  0.00    +0.126 C 
ATOM     13  C   UNL     1      -0.207  -0.676  23.858  0.00  0.00    +0.045 C 
ATOM     14  C   UNL     1      -0.880  -1.006  24.203  0.00  0.00    +0.096 C 
ATOM     15  N   UNL     1      -1.257  -0.417  24.641  0.00  0.00    -0.272 N 
ATOM     16  C   UNL     1      -0.818   0.277  24.569  0.00  0.00    +0.174 C 
ATOM     31  C   UNL     1      -1.953  -0.508  25.076  0.00  0.00    +0.226 C 
ATOM     32  O   UNL     1      -2.267   0.133  25.489  0.00  0.00    -0.275 OA
ENDROOT
BRANCH  12  11
ATOM      8  N   UNL     1       1.679   0.931  23.255  0.00  0.00    -0.161 NA
ATOM      9  C   UNL     1       1.094   0.393  23.474  0.00  0.00    +0.344 C 
ATOM     10  O   UNL     1       1.186  -0.409  23.302  0.00  0.00    -0.249 OA
ATOM     11  N   UNL     1       0.417   0.655  23.866  0.00  0.00    -0.186 NA
BRANCH   8   7
ATOM      3  C   UNL     1       3.780   0.580  22.777  0.00  0.00    +0.027 A 
ATOM      4  C   UNL     1       3.710   0.141  22.082  0.00  0.00    +0.006 A 
ATOM      5  C   UNL     1       2.964  -0.034  21.778  0.00  0.00    +0.002 A 
ATOM      6  C   UNL     1       2.287   0.230  22.169  0.00  0.00    +0.017 A 
ATOM      7  C   UNL     1       2.356   0.668  22.864  0.00  0.00    +0.075 A 
ATOM     38  C   UNL     1       3.103   0.843  23.168  0.00  0.00    +0.023 A 
BRANCH   3   2
ATOM      1  C   UNL     1       5.050   0.145  23.267  0.00  0.00    +0.074 C 
ATOM      2  S   UNL     1       4.527   0.755  23.082  0.00  0.00    -0.113 S 
ENDBRANCH   3   2
ENDBRANCH   8   7
ENDBRANCH  12  11
BRANCH  16  17
ATOM     17  C   UNL     1      -0.995   1.002  24.918  0.00  0.00    +0.262 C 
ATOM     18  O   UNL     1      -0.835   1.125  25.717  0.00  0.00    -0.271 OA
ATOM     19  N   UNL     1      -1.333   1.605  24.467  0.00  0.00    -0.196 NA
BRANCH  19  20
ATOM     20  C   UNL     1      -1.511   2.331  24.816  0.00  0.00    +0.179 C 
BRANCH  20  28
ATOM     28  C   UNL     1      -0.949   2.936  24.818  0.00  0.00    +0.281 C 
ATOM     29  N   UNL     1      -0.682   3.249  25.533  0.00  0.00    -0.086 NA
ATOM     30  O   UNL     1      -0.654   3.228  24.104  0.00  0.00    -0.270 OA
ENDBRANCH  20  28
BRANCH  20  21
ATOM     21  C   UNL     1      -2.248   2.453  25.162  0.00  0.00    +0.057 C 
BRANCH  21  22
ATOM     22  C   UNL     1      -2.861   2.789  24.722  0.00  0.00    -0.020 A 
ATOM     23  C   UNL     1      -3.052   2.482  23.980  0.00  0.00    -0.004 A 
ATOM     24  C   UNL     1      -3.664   2.818  23.541  0.00  0.00    -0.000 A 
ATOM     25  C   UNL     1      -4.085   3.461  23.842  0.00  0.00    -0.000 A 
ATOM     26  C   UNL     1      -3.893   3.767  24.584  0.00  0.00    -0.000 A 
ATOM     27  C   UNL     1      -3.281   3.431  25.024  0.00  0.00    -0.004 A 
ENDBRANCH  21  22
ENDBRANCH  20  21
ENDBRANCH  19  20
ENDBRANCH  16  17
BRANCH  31  33
ATOM     33  C   UNL     1      -2.334  -1.239  25.098  0.00  0.00    +0.085 C 
BRANCH  33  34
ATOM     34  C   UNL     1      -3.097  -1.298  25.407  0.00  0.00    +0.009 C 
ATOM     35  C   UNL     1      -3.410  -1.208  24.649  0.00  0.00    +0.000 C 
ATOM     36  C   UNL     1      -2.783  -1.387  26.165  0.00  0.00    +0.000 C 
ATOM     37  C   UNL     1      -3.860  -1.356  25.715  0.00  0.00    +0.000 C 
ENDBRANCH  33  34
ENDBRANCH  31  33
TORSDOF 10
ENDMDL
MODEL 3
REMARK VINA RESULT:      -8.6      2.787      4.815
REMARK  Name = 
REMARK  10 active torsions:
REMARK  status: ('A' for Active; 'I' for Inactive)
REMARK    1  A    between atoms: S_2  and  C_3
REMARK    2  A    between atoms: C_7  and  N_8
REMARK    3  A    between atoms: N_11  and  C_12
REMARK    4  A    between atoms: C_16  and  C_17
REMARK    5  A    between atoms: N_19  and  C_20
REMARK    6  A    between atoms: C_20  and  C_21
REMARK    7  A    between atoms: C_20  and  C_28
REMARK    8  A    between atoms: C_21  and  C_22
REMARK    9  A    between atoms: C_31  and  C_33
REMARK   10  A    between atoms: C_33  and  C_34
REMARK                            x       y       z     vdW  Elec       q    Type
REMARK                         _______ _______ _______ _____ _____    ______ ____
ROOT
ATOM     12  C   UNL     1      -2.405   1.596  24.344  0.00  0.00    +0.126 C 
ATOM     13  C   UNL     1      -1.599   1.419  24.351  0.00  0.00    +0.045 C 
ATOM     14  C   UNL     1      -1.184   2.128  24.431  0.00  0.00    +0.096 C 
ATOM     15  N   UNL     1      -1.734   2.742  24.473  0.00  0.00    -0.272 N 
ATOM     16  C   UNL     1      -2.489   2.414  24.419  0.00  0.00    +0.174 C 
ATOM     31  C   UNL     1      -1.558   3.545  24.555  0.00  0.00    +0.226 C 
ATOM     32  O   UNL     1      -2.168   4.098  24.589  0.00  0.00    -0.275 OA
ENDROOT
BRANCH  12  11
ATOM      8  N   UNL     1      -3.560  -0.247  24.532  0.00  0.00    -0.161 NA
ATOM      9  C   UNL     1      -2.945   0.299  24.602  0.00  0.00    +0.344 C 
ATOM     10  O   UNL     1      -2.253   0.091  25.002  0.00  0.00    -0.249 OA
ATOM     11  N   UNL     1      -3.020   1.051  24.273  0.00  0.00    -0.186 NA
BRANCH   8   7
ATOM      3  C   UNL     1      -3.384  -2.416  24.699  0.00  0.00    +0.027 A 
ATOM      4  C   UNL     1      -3.330  -2.505  25.518  0.00  0.00    +0.006 A 
ATOM      5  C   UNL     1      -3.352  -1.842  26.008  0.00  0.00    +0.002 A 
ATOM      6  C   UNL     1      -3.429  -1.089  25.678  0.00  0.00    +0.017 A 
ATOM      7  C   UNL     1      -3.483  -0.999  24.861  0.00  0.00    +0.075 A 
ATOM     38  C   UNL     1      -3.461  -1.663  24.371  0.00  0.00    +0.023 A 
BRANCH   3   2
ATOM      1  C   UNL     1      -4.019  -3.274  23.749  0.00  0.00    +0.074 C 
ATOM      2  S   UNL     1      -3.362  -3.079  24.210  0.00  0.00    -0.113 S 
ENDBRANCH   3   2
ENDBRANCH   8   7
ENDBRANCH  12  11
BRANCH  16  17
ATOM     17  C   UNL     1      -3.201   2.830  24.438  0.00  0.00    +0.262 C 
ATOM     18  O   UNL     1      -3.463   3.227  23.765  0.00  0.00    -0.271 OA
ATOM     19  N   UNL     1      -3.650   2.847  25.129  0.00  0.00    -0.196 NA
BRANCH  19  20
ATOM     20  C   UNL     1      -4.362   3.262  25.148  0.00  0.00    +0.179 C 
BRANCH  20  28
ATOM     28  C   UNL     1      -4.410   3.981  25.553  0.00  0.00    +0.281 C 
ATOM     29  N   UNL     1      -4.777   4.629  25.198  0.00  0.00    -0.086 NA
ATOM     30  O   UNL     1      -4.091   4.050  26.310  0.00  0.00    -0.270 OA
ENDBRANCH  20  28
BRANCH  20  21
ATOM     21  C   UNL     1      -5.026   2.961  24.764  0.00  0.00    +0.057 C 
BRANCH  21  22
ATOM     22  C   UNL     1      -5.546   2.463  25.168  0.00  0.00    -0.020 A 
ATOM     23  C   UNL     1      -5.553   2.455  25.993  0.00  0.00    -0.004 A 
ATOM     24  C   UNL     1      -6.072   1.957  26.396  0.00  0.00    -0.000 A 
ATOM     25  C   UNL     1      -6.586   1.467  25.975  0.00  0.00    -0.000 A 
ATOM     26  C   UNL     1      -6.579   1.476  25.150  0.00  0.00    -0.000 A 
ATOM     27  C   UNL     1      -6.059   1.974  24.746  0.00  0.00    -0.004 A 
ENDBRANCH  21  22
ENDBRANCH  20  21
ENDBRANCH  19  20
ENDBRANCH  16  17
BRANCH  31  33
ATOM     33  C   UNL     1      -0.773   3.793  24.602  0.00  0.00    +0.085 C 
BRANCH  33  34
ATOM     34  C   UNL     1      -0.598   4.596  24.678  0.00  0.00    +0.009 C 
ATOM     35  C   UNL     1      -0.755   4.553  25.486  0.00  0.00    +0.000 C 
ATOM     36  C   UNL     1      -0.440   4.637  23.869  0.00  0.00    +0.000 C 
ATOM     37  C   UNL     1      -0.422   5.398  24.754  0.00  0.00    +0.000 C 
ENDBRANCH  33  34
ENDBRANCH  31  33
TORSDOF 10
ENDMDL
MODEL 4
REMARK VINA RESULT:      -8.3      1.870      4.886
REMARK  Name = 
REMARK  10 active torsions:
REMARK  status: ('A' for Active; 'I' for Inactive)
REMARK    1  A    between atoms: S_2  and  C_3
REMARK    2  A    between atoms: C_7  and  N_8
REMARK    3  A    between atoms: N_11  and  C_12
REMARK    4  A    between atoms: C_16  and  C_17
REMARK    5  A    between atoms: N_19  and  C_20
REMARK    6  A    between atoms: C_20  and  C_21
REMARK    7  A    between atoms: C_20  and  C_28
REMARK    8  A    between atoms: C_21  and  C_22
REMARK    9  A    between atoms: C_31  and  C_33
REMARK   10  A    between atoms: C_33  and  C_34
REMARK                            x       y       z     vdW  Elec       q    Type
REMARK                         _______ _______ _______ _____ _____    ______ ____
ROOT
ATOM     12  C   UNL     1      -1.226   1.387  24.651  0.00  0.00    +0.126 C 
ATOM     13  C   UNL     1      -0.899   2.002  24.208  0.00  0.00    +0.045 C 
ATOM     14  C   UNL     1      -0.285   1.689  23.754  0.00  0.00    +0.096 C 
ATOM     15  N   UNL     1      -0.233   0.882  23.915  0.00  0.00    -0.272 N 
ATOM     16  C   UNL     1      -0.814   0.694  24.470  0.00  0.00    +0.174 C 
ATOM     31  C   UNL     1       0.306   0.355  23.581  0.00  0.00    +0.226 C 
ATOM     32  O   UNL     1       0.292  -0.441  23.797  0.00  0.00    -0.275 OA
ENDROOT
BRANCH  12  11
ATOM      8  N   UNL     1      -3.114   2.020  25.544  0.00  0.00    -0.161 NA
ATOM      9  C   UNL     1      -2.486   1.955  25.013  0.00  0.00    +0.344 C 
ATOM     10  O   UNL     1      -2.490   2.392  24.313  0.00  0.00    -0.249 OA
ATOM     11  N   UNL     1      -1.854   1.452  25.182  0.00  0.00    -0.186 NA
BRANCH   8   7
ATOM      3  C   UNL     1      -5.113   2.710  25.004  0.00  0.00    +0.027 A 
ATOM      4  C   UNL     1      -5.010   3.528  25.036  0.00  0.00    +0.006 A 
ATOM      5  C   UNL     1      -4.275   3.844  25.238  0.00  0.00    +0.002 A 
ATOM      6  C   UNL     1      -3.643   3.341  25.407  0.00  0.00    +0.017 A 
ATOM      7  C   UNL     1      -3.746   2.523  25.375  0.00  0.00    +0.075 A 
ATOM     38  C   UNL     1      -4.481   2.208  25.173  0.00  0.00    +0.023 A 
BRANCH   3   2
ATOM      1  C   UNL     1      -6.250   1.910  25.336  0.00  0.00    +0.074 C 
ATOM      2  S   UNL     1      -5.848   2.395  24.802  0.00  0.00    -0.113 S 
ENDBRANCH   3   2
ENDBRANCH   8   7
ENDBRANCH  12  11
BRANCH  16  17
ATOM     17  C   UNL     1      -0.959  -0.053  24.788  0.00  0.00    +0.262 C 
ATOM     18  O   UNL     1      -0.560  -0.296  25.467  0.00  0.00    -0.271 OA
ATOM     19  N   UNL     1      -1.503  -0.557  24.426  0.00  0.00    -0.196 NA
BRANCH  19  20
ATOM     20  C   UNL     1      -1.648  -1.304  24.743  0.00  0.00    +0.179 C 
BRANCH  20  28
ATOM     28  C   UNL     1      -1.095  -1.909  24.641  0.00  0.00    +0.281 C 
ATOM     29  N   UNL     1      -0.678  -2.200  25.290  0.00  0.00    -0.086 NA
ATOM     30  O   UNL     1      -0.962  -2.223  23.890  0.00  0.00    -0.270 OA
ENDBRANCH  20  28
BRANCH  20  21
ATOM     21  C   UNL     1      -2.343  -1.447  25.161  0.00  0.00    +0.057 C 
BRANCH  21  22
ATOM     22  C   UNL     1      -3.018  -1.709  24.764  0.00  0.00    -0.020 A 
ATOM     23  C   UNL     1      -3.199  -2.514  24.746  0.00  0.00    -0.004 A 
ATOM     24  C   UNL     1      -3.872  -2.776  24.349  0.00  0.00    -0.000 A 
ATOM     25  C   UNL     1      -4.366  -2.234  23.970  0.00  0.00    -0.000 A 
ATOM     26  C   UNL     1      -4.185  -1.429  23.989  0.00  0.00    -0.000 A 
ATOM     27  C   UNL     1      -3.510  -1.166  24.386  0.00  0.00    -0.004 A 
ENDBRANCH  21  22
ENDBRANCH  20  21
ENDBRANCH  19  20
ENDBRANCH  16  17
BRANCH  31  33
ATOM     33  C   UNL     1       0.858   0.623  23.030  0.00  0.00    +0.085 C 
BRANCH  33  34
ATOM     34  C   UNL     1       1.455   0.118  22.764  0.00  0.00    +0.009 C 
ATOM     35  C   UNL     1       0.945  -0.178  22.187  0.00  0.00    +0.000 C 
ATOM     36  C   UNL     1       1.964   0.415  23.342  0.00  0.00    +0.000 C 
ATOM     37  C   UNL     1       2.050  -0.386  22.497  0.00  0.00    +0.000 C 
ENDBRANCH  33  34
ENDBRANCH  31  33
TORSDOF 10
ENDMDL
MODEL 5
REMARK VINA RESULT:      -8.2      2.424      3.922
REMARK  Name = 
REMARK  10 active torsions:
REMARK  status: ('A' for Active; 'I' for Inactive)
REMARK    1  A    between atoms: S_2  and  C_3
REMARK    2  A    between atoms: C_7  and  N_8
REMARK    3  A    between atoms: N_11  and  C_12
REMARK    4  A    between atoms: C_16  and  C_17
REMARK    5  A    between atoms: N_19  and  C_20
REMARK    6  A    between atoms: C_20  and  C_21
REMARK    7  A    between atoms: C_20  and  C_28
REMARK    8  A    between atoms: C_21  and  C_22
REMARK    9  A    between atoms: C_31  and  C_33
REMARK   10  A    between atoms: C_33  and  C_34
REMARK                            x       y       z     vdW  Elec       q    Type
REMARK                         _______ _______ _______ _____ _____    ______ ____
ROOT
ATOM     12  C   UNL     1      -0.633   1.672  24.370  0.00  0.00    +0.126 C 
ATOM     13  C   UNL     1      -0.126   1.889  24.984  0.00  0.00    +0.045 C 
ATOM     14  C   UNL     1      -0.296   2.669  25.189  0.00  0.00    +0.096 C 
ATOM     15  N   UNL     1      -0.907   2.934  24.703  0.00  0.00    -0.272 N 
ATOM     16  C   UNL     1      -1.116   2.318  24.196  0.00  0.00    +0.174 C 
ATOM     31  C   UNL     1      -1.250   3.685  24.720  0.00  0.00    +0.226 C 
ATOM     32  O   UNL     1      -1.859   3.872  24.197  0.00  0.00    -0.275 OA
ENDROOT
BRANCH  12  11
ATOM      8  N   UNL     1      -0.835  -0.479  24.056  0.00  0.00    -0.161 NA
ATOM      9  C   UNL     1      -0.815   0.255  24.431  0.00  0.00    +0.344 C 
ATOM     10  O   UNL     1      -0.957   0.309  25.242  0.00  0.00    -0.249 OA
ATOM     11  N   UNL     1      -0.653   0.937  23.995  0.00  0.00    -0.186 NA
BRANCH   8   7
ATOM      3  C   UNL     1      -1.878  -2.235  24.828  0.00  0.00    +0.027 A 
ATOM      4  C   UNL     1      -1.322  -2.522  25.366  0.00  0.00    +0.006 A 
ATOM      5  C   UNL     1      -0.604  -2.129  25.467  0.00  0.00    +0.002 A 
ATOM      6  C   UNL     1      -0.442  -1.448  25.031  0.00  0.00    +0.017 A 
ATOM      7  C   UNL     1      -0.997  -1.160  24.493  0.00  0.00    +0.075 A 
ATOM     38  C   UNL     1      -1.715  -1.554  24.392  0.00  0.00    +0.023 A 
BRANCH   3   2
ATOM      1  C   UNL     1      -3.248  -2.422  25.189  0.00  0.00    +0.074 C 
ATOM      2  S   UNL     1      -2.596  -2.628  24.726  0.00  0.00    -0.113 S 
ENDBRANCH   3   2
ENDBRANCH   8   7
ENDBRANCH  12  11
BRANCH  16  17
ATOM     17  C   UNL     1      -1.703   2.343  23.618  0.00  0.00    +0.262 C 
ATOM     18  O   UNL     1      -1.548   2.692  22.887  0.00  0.00    -0.271 OA
ATOM     19  N   UNL     1      -2.446   2.018  23.770  0.00  0.00    -0.196 NA
BRANCH  19  20
ATOM     20  C   UNL     1      -3.034   2.043  23.192  0.00  0.00    +0.179 C 
BRANCH  20  28
ATOM     28  C   UNL     1      -2.885   1.737  22.440  0.00  0.00    +0.281 C 
ATOM     29  N   UNL     1      -2.786   2.248  21.800  0.00  0.00    -0.086 NA
ATOM     30  O   UNL     1      -2.835   0.921  22.328  0.00  0.00    -0.270 OA
ENDBRANCH  20  28
BRANCH  20  21
ATOM     21  C   UNL     1      -3.769   2.372  23.365  0.00  0.00    +0.057 C 
BRANCH  21  22
ATOM     22  C   UNL     1      -4.214   2.081  23.997  0.00  0.00    -0.020 A 
ATOM     23  C   UNL     1      -4.267   1.267  24.123  0.00  0.00    -0.004 A 
ATOM     24  C   UNL     1      -4.711   0.977  24.754  0.00  0.00    -0.000 A 
ATOM     25  C   UNL     1      -5.102   1.499  25.260  0.00  0.00    -0.000 A 
ATOM     26  C   UNL     1      -5.048   2.312  25.133  0.00  0.00    -0.000 A 
ATOM     27  C   UNL     1      -4.604   2.604  24.502  0.00  0.00    -0.004 A 
ENDBRANCH  21  22
ENDBRANCH  20  21
ENDBRANCH  19  20
ENDBRANCH  16  17
BRANCH  31  33
ATOM     33  C   UNL     1      -0.983   4.248  25.260  0.00  0.00    +0.085 C 
BRANCH  33  34
ATOM     34  C   UNL     1      -1.302   5.009  25.255  0.00  0.00    +0.009 C 
ATOM     35  C   UNL     1      -0.678   5.267  24.781  0.00  0.00    +0.000 C 
ATOM     36  C   UNL     1      -1.926   4.750  25.730  0.00  0.00    +0.000 C 
ATOM     37  C   UNL     1      -1.621   5.770  25.250  0.00  0.00    +0.000 C 
ENDBRANCH  33  34
ENDBRANCH  31  33
TORSDOF 10
ENDMDL
MODEL 6
REMARK VINA RESULT:      -8.0      2.653      4.642
REMARK  Name = 
REMARK  10 active torsions:
REMARK  status: ('A' for Active; 'I' for Inactive)
REMARK    1  A    between atoms: S_2  and  C_3
REMARK    2  A    between atoms: C_7  and  N_8
REMARK    3  A    between atoms: N_11  and  C_12
REMARK    4  A    between atoms: C_16  and  C_17
REMARK    5  A    between atoms: N_19  and  C_20
REMARK    6  A    between atoms: C_20  and  C_21
REMARK    7  A    between atoms: C_20  and  C_28
REMARK    8  A    between atoms: C_21  and  C_22
REMARK    9  A    between atoms: C_31  and  C_33
REMARK   10  A    between atoms: C_33  and  C_34
REMARK                            x       y       z     vdW  Elec       q    Type
REMARK                         _______ _______ _______ _____ _____    ______ ____
ROOT
ATOM     12  C   UNL     1      -4.373   0.909  24.400  0.00  0.00    +0.126 C 
ATOM     13  C   UNL     1      -4.979   0.787  24.946  0.00  0.00    +0.045 C 
ATOM     14  C   UNL     1      -5.178   1.518  25.273  0.00  0.00    +0.096 C 
ATOM     15  N   UNL     1      -4.695   2.091  24.929  0.00  0.00    -0.272 N 
ATOM     16  C   UNL     1      -4.197   1.715  24.389  0.00  0.00    +0.174 C 
ATOM     31  C   UNL     1      -4.707   2.899  25.095  0.00  0.00    +0.226 C 
ATOM     32  O   UNL     1      -4.189   3.409  24.705  0.00  0.00    -0.275 OA
ENDROOT
BRANCH  12  11
ATOM      8  N   UNL     1      -3.451  -0.984  23.825  0.00  0.00    -0.161 NA
ATOM      9  C   UNL     1      -3.817  -0.402  24.280  0.00  0.00    +0.344 C 
ATOM     10  O   UNL     1      -3.993  -0.549  25.073  0.00  0.00    -0.249 OA
ATOM     11  N   UNL     1      -4.007   0.327  23.944  0.00  0.00    -0.186 NA
BRANCH   8   7
ATOM      3  C   UNL     1      -2.298  -2.592  24.747  0.00  0.00    +0.027 A 
ATOM      4  C   UNL     1      -2.881  -3.170  24.836  0.00  0.00    +0.006 A 
ATOM      5  C   UNL     1      -3.653  -3.019  24.589  0.00  0.00    +0.002 A 
ATOM      6  C   UNL     1      -3.843  -2.290  24.251  0.00  0.00    +0.017 A 
ATOM      7  C   UNL     1      -3.261  -1.713  24.162  0.00  0.00    +0.075 A 
ATOM     38  C   UNL     1      -2.489  -1.864  24.410  0.00  0.00    +0.023 A 
BRANCH   3   2
ATOM      1  C   UNL     1      -0.973  -2.132  25.015  0.00  0.00    +0.074 C 
ATOM      2  S   UNL     1      -1.526  -2.743  24.995  0.00  0.00    -0.113 S 
ENDBRANCH   3   2
ENDBRANCH   8   7
ENDBRANCH  12  11
BRANCH  16  17
ATOM     17  C   UNL     1      -3.625   2.080  23.921  0.00  0.00    +0.262 C 
ATOM     18  O   UNL     1      -3.852   2.556  23.287  0.00  0.00    -0.271 OA
ATOM     19  N   UNL     1      -2.824   1.969  24.087  0.00  0.00    -0.196 NA
BRANCH  19  20
ATOM     20  C   UNL     1      -2.251   2.334  23.619  0.00  0.00    +0.179 C 
BRANCH  20  28
ATOM     28  C   UNL     1      -2.128   2.079  22.843  0.00  0.00    +0.281 C 
ATOM     29  N   UNL     1      -2.374   2.548  22.211  0.00  0.00    -0.086 NA
ATOM     30  O   UNL     1      -1.760   1.354  22.701  0.00  0.00    -0.270 OA
ENDBRANCH  20  28
BRANCH  20  21
ATOM     21  C   UNL     1      -1.801   2.953  23.925  0.00  0.00    +0.057 C 
BRANCH  21  22
ATOM     22  C   UNL     1      -1.245   2.806  24.517  0.00  0.00    -0.020 A 
ATOM     23  C   UNL     1      -0.712   2.181  24.436  0.00  0.00    -0.004 A 
ATOM     24  C   UNL     1      -0.156   2.034  25.027  0.00  0.00    -0.000 A 
ATOM     25  C   UNL     1      -0.133   2.511  25.700  0.00  0.00    -0.000 A 
ATOM     26  C   UNL     1      -0.666   3.136  25.781  0.00  0.00    -0.000 A 
ATOM     27  C   UNL     1      -1.222   3.283  25.189  0.00  0.00    -0.004 A 
ENDBRANCH  21  22
ENDBRANCH  20  21
ENDBRANCH  19  20
ENDBRANCH  16  17
BRANCH  31  33
ATOM     33  C   UNL     1      -5.238   3.198  25.651  0.00  0.00    +0.085 C 
BRANCH  33  34
ATOM     34  C   UNL     1      -5.298   4.012  25.769  0.00  0.00    +0.009 C 
ATOM     35  C   UNL     1      -4.612   3.995  26.227  0.00  0.00    +0.000 C 
ATOM     36  C   UNL     1      -5.984   4.028  25.311  0.00  0.00    +0.000 C 
ATOM     37  C   UNL     1      -5.357   4.826  25.888  0.00  0.00    +0.000 C 
ENDBRANCH  33  34
ENDBRANCH  31  33
TORSDOF 10
ENDMDL
