MODEL 1
REMARK VINA RESULT:      -9.9      0.000      0.000
REMARK  Name = 
REMARK  7 active torsions:
REMARK  status: ('A' for Active; 'I' for Inactive)
REMARK    1  A    between atoms: O_2  and  C_3
REMARK    2  A    between atoms: C_3  and  C_4
REMARK    3  A    between atoms: C_9  and  C_11
REMARK    4  A    between atoms: C_11  and  C_12
REMARK    5  A    between atoms: C_14  and  C_15
REMARK    6  A    between atoms: C_15  and  N_16
REMARK    7  A    between atoms: N_19  and  C_20
REMARK                            x       y       z     vdW  Elec       q    Type
REMARK                         _______ _______ _______ _____ _____    ______ ____
ROOT
ATOM     12  C   UNL     1      -4.669   1.333  24.905  0.00  0.00    +0.157 C 
ATOM     13  O   UNL     1      -4.021   1.832  25.014  0.00  0.00    -0.351 OA
ATOM     14  C   UNL     1      -4.307   2.572  25.242  0.00  0.00    +0.170 C 
ATOM     23  C   UNL     1      -5.130   2.529  25.273  0.00  0.00    +0.213 C 
ATOM     24  O   UNL     1      -5.640   3.145  25.476  0.00  0.00    -0.218 OA
ATOM     25  C   UNL     1      -5.354   1.763  25.064  0.00  0.00    +0.212 C 
ATOM     26  O   UNL     1      -6.127   1.478  25.022  0.00  0.00    -0.218 OA
ENDROOT
BRANCH  12  11
ATOM     11  C   UNL     1      -4.637   0.540  24.675  0.00  0.00    +0.117 C 
BRANCH  11   9
ATOM      4  C   UNL     1      -3.257  -1.183  24.633  0.00  0.00    +0.105 C 
ATOM      5  C   UNL     1      -3.433  -1.894  24.251  0.00  0.00    +0.024 C 
ATOM      6  C   UNL     1      -4.183  -1.824  23.913  0.00  0.00    +0.023 C 
ATOM      7  C   UNL     1      -4.470  -1.070  24.086  0.00  0.00    +0.093 C 
ATOM      8  N   UNL     1      -3.899  -0.675  24.531  0.00  0.00    -0.279 N 
ATOM      9  C   UNL     1      -3.959   0.095  24.822  0.00  0.00    +0.228 C 
ATOM     10  O   UNL     1      -3.340   0.419  25.260  0.00  0.00    -0.275 OA
BRANCH   4   3
ATOM      3  C   UNL     1      -2.564  -1.013  25.044  0.00  0.00    +0.162 C 
BRANCH   3   2
ATOM      1  C   UNL     1      -1.207  -1.331  25.360  0.00  0.00    +0.174 C 
ATOM      2  O   UNL     1      -1.931  -1.540  25.023  0.00  0.00    -0.349 OA
ENDBRANCH   3   2
ENDBRANCH   4   3
ENDBRANCH  11   9
ENDBRANCH  12  11
BRANCH  14  15
ATOM     15  C   UNL     1      -3.848   3.237  25.409  0.00  0.00    +0.149 C 
BRANCH  15  16
ATOM     16  N   UNL     1      -3.213   3.434  24.922  0.00  0.00    -0.185 NA
ATOM     17  C   UNL     1      -2.593   3.890  25.217  0.00  0.00    +0.339 C 
ATOM     18  O   UNL     1      -2.607   4.149  26.000  0.00  0.00    -0.249 OA
ATOM     19  N   UNL     1      -1.957   4.088  24.729  0.00  0.00    -0.189 NA
BRANCH  19  20
ATOM     20  C   UNL     1      -1.337   4.544  25.024  0.00  0.00    +0.097 C 
ATOM     21  C   UNL     1      -1.412   5.364  25.070  0.00  0.00    +0.023 C 
ATOM     22  C   UNL     1      -0.639   4.179  25.272  0.00  0.00    +0.023 C 
ENDBRANCH  19  20
ENDBRANCH  15  16
ENDBRANCH  14  15
TORSDOF 7
ENDMDL
MODEL 2
REMARK VINA RESULT:      -9.6      1.044      4.599
REMARK  Name = 
REMARK  7 active torsions:
REMARK  status: ('A' for Active; 'I' for Inactive)
REMARK    1  A    between atoms: O_2  and  C_3
REMARK    2  A    between atoms: C_3  and  C_4
REMARK    3  A    between atoms: C_9  and  C_11
REMARK    4  A    between atoms: C_11  and  C_12
REMARK    5  A    between atoms: C_14  and  C_15
REMARK    6  A    between atoms: C_15  and  N_16
REMARK    7  A    between atoms: N_19  and  C_20
REMARK                            x       y       z     vdW  Elec       q    Type
REMARK                         _______ _______ _______ _____ _____    ______ ____
ROOT
ATOM     12  C   UNL     1      -4.039   2.616  25.047  0.00  0.00    +0.157 C 
ATOM     13  O   UNL     1      -3.813   1.865  24.792  0.00  0.00    -0.351 OA
ATOM     14  C   UNL     1      -4.492   1.397  24.746  0.00  0.00    +0.170 C 
ATOM     23  C   UNL     1      -5.136   1.861  24.973  0.00  0.00    +0.213 C 
ATOM     24  O   UNL     1      -5.922   1.613  25.008  0.00  0.00    -0.218 OA
ATOM     25  C   UNL     1      -4.856   2.614  25.159  0.00  0.00    +0.212 C 
ATOM     26  O   UNL     1      -5.312   3.252  25.413  0.00  0.00    -0.218 OA
ENDROOT
BRANCH  12  11
ATOM     11  C   UNL     1      -3.535   3.258  25.170  0.00  0.00    +0.117 C 
BRANCH  11   9
ATOM      4  C   UNL     1      -1.391   3.697  25.462  0.00  0.00    +0.105 C 
ATOM      5  C   UNL     1      -1.054   4.435  25.306  0.00  0.00    +0.024 C 
ATOM      6  C   UNL     1      -1.652   4.936  25.037  0.00  0.00    +0.023 C 
ATOM      7  C   UNL     1      -2.358   4.508  25.026  0.00  0.00    +0.093 C 
ATOM      8  N   UNL     1      -2.196   3.743  25.289  0.00  0.00    -0.279 N 
ATOM      9  C   UNL     1      -2.744   3.131  25.365  0.00  0.00    +0.228 C 
ATOM     10  O   UNL     1      -2.500   2.391  25.636  0.00  0.00    -0.275 OA
BRANCH   4   3
ATOM      3  C   UNL     1      -0.991   3.033  25.742  0.00  0.00    +0.162 C 
BRANCH   3   2
ATOM      1  C   UNL     1       0.223   2.396  26.147  0.00  0.00    +0.174 C 
ATOM      2  O   UNL     1      -0.176   3.059  25.860  0.00  0.00    -0.349 OA
ENDBRANCH   3   2
ENDBRANCH   4   3
ENDBRANCH  11   9
ENDBRANCH  12  11
BRANCH  14  15
ATOM     15  C   UNL     1      -4.520   0.606  24.514  0.00  0.00    +0.149 C 
BRANCH  15  16
ATOM     16  N   UNL     1      -4.131   0.031  24.958  0.00  0.00    -0.185 NA
ATOM     17  C   UNL     1      -3.909  -0.681  24.607  0.00  0.00    +0.339 C 
ATOM     18  O   UNL     1      -4.076  -0.818  23.811  0.00  0.00    -0.249 OA
ATOM     19  N   UNL     1      -3.519  -1.257  25.052  0.00  0.00    -0.189 NA
BRANCH  19  20
ATOM     20  C   UNL     1      -3.297  -1.969  24.701  0.00  0.00    +0.097 C 
ATOM     21  C   UNL     1      -3.869  -2.529  24.504  0.00  0.00    +0.023 C 
ATOM     22  C   UNL     1      -2.501  -2.122  24.546  0.00  0.00    +0.023 C 
ENDBRANCH  19  20
ENDBRANCH  15  16
ENDBRANCH  14  15
TORSDOF 7
ENDMDL
MODEL 3
REMARK VINA RESULT:      -9.3      1.782      5.646
REMARK  Name = 
REMARK  7 active torsions:
REMARK  status: ('A' for Active; 'I' for Inactive)
REMARK    1  A    between atoms: O_2  and  C_3
REMARK    2  A    between atoms: C_3  and  C_4
REMARK    3  A    between atoms: C_9  and  C_11
REMARK    4  A    between atoms: C_11  and  C_12
REMARK    5  A    between atoms: C_14  and  C_15
REMARK    6  A    between atoms: C_15  and  N_16
REMARK    7  A    between atoms: N_19  and  C_20
REMARK                            x       y       z     vdW  Elec       q    Type
REMARK                         _______ _______ _______ _____ _____    ______ ____
ROOT
ATOM     12  C   UNL     1      -0.588   1.555  24.747  0.00  0.00    +0.157 C 
ATOM     13  O   UNL     1      -1.105   0.931  24.902  0.00  0.00    -0.351 OA
ATOM     14  C   UNL     1      -0.825   0.264  24.505  0.00  0.00    +0.170 C 
ATOM     23  C   UNL     1      -0.135   0.476  24.105  0.00  0.00    +0.213 C 
ATOM     24  O   UNL     1       0.327  -0.023  23.638  0.00  0.00    -0.218 OA
ATOM     25  C   UNL     1       0.011   1.274  24.255  0.00  0.00    +0.212 C 
ATOM     26  O   UNL     1       0.646   1.714  23.964  0.00  0.00    -0.218 OA
ENDROOT
BRANCH  12  11
ATOM     11  C   UNL     1      -0.658   2.326  25.034  0.00  0.00    +0.117 C 
BRANCH  11   9
ATOM      4  C   UNL     1      -2.205   3.877  25.311  0.00  0.00    +0.105 C 
ATOM      5  C   UNL     1      -2.041   4.686  25.302  0.00  0.00    +0.024 C 
ATOM      6  C   UNL     1      -1.230   4.781  25.175  0.00  0.00    +0.023 C 
ATOM      7  C   UNL     1      -0.894   4.030  25.106  0.00  0.00    +0.093 C 
ATOM      8  N   UNL     1      -1.496   3.473  25.191  0.00  0.00    -0.279 N 
ATOM      9  C   UNL     1      -1.404   2.653  25.159  0.00  0.00    +0.228 C 
ATOM     10  O   UNL     1      -2.060   2.161  25.253  0.00  0.00    -0.275 OA
BRANCH   4   3
ATOM      3  C   UNL     1      -2.946   3.535  25.422  0.00  0.00    +0.162 C 
BRANCH   3   2
ATOM      1  C   UNL     1      -4.345   3.667  25.685  0.00  0.00    +0.174 C 
ATOM      2  O   UNL     1      -3.603   4.010  25.568  0.00  0.00    -0.349 OA
ENDBRANCH   3   2
ENDBRANCH   4   3
ENDBRANCH  11   9
ENDBRANCH  12  11
BRANCH  14  15
ATOM     15  C   UNL     1      -1.174  -0.484  24.508  0.00  0.00    +0.149 C 
BRANCH  15  16
ATOM     16  N   UNL     1      -1.982  -0.561  24.652  0.00  0.00    -0.185 NA
ATOM     17  C   UNL     1      -2.345  -1.298  24.579  0.00  0.00    +0.339 C 
ATOM     18  O   UNL     1      -1.900  -1.958  24.362  0.00  0.00    -0.249 OA
ATOM     19  N   UNL     1      -3.154  -1.376  24.723  0.00  0.00    -0.189 NA
BRANCH  19  20
ATOM     20  C   UNL     1      -3.517  -2.113  24.650  0.00  0.00    +0.097 C 
ATOM     21  C   UNL     1      -3.417  -2.683  25.238  0.00  0.00    +0.023 C 
ATOM     22  C   UNL     1      -3.981  -2.280  23.989  0.00  0.00    +0.023 C 
ENDBRANCH  19  20
ENDBRANCH  15  16
ENDBRANCH  14  15
TORSDOF 7
ENDMDL
MODEL 4
REMARK VINA RESULT:      -8.5      1.887      3.772
REMARK  Name = 
REMARK  7 active torsions:
REMARK  status: ('A' for Active; 'I' for Inactive)
REMARK    1  A    between atoms: O_2  and  C_3
REMARK    2  A    between atoms: C_3  and  C_4
REMARK    3  A    between atoms: C_9  and  C_11
REMARK    4  A    between atoms: C_11  and  C_12
REMARK    5  A    between atoms: C_14  and  C_15
REMARK    6  A    between atoms: C_15  and  N_16
REMARK    7  A    between atoms: N_19  and  C_20
REMARK                            x       y       z     vdW  Elec       q    Type
REMARK                         _______ _______ _______ _____ _____    ______ ____
ROOT
ATOM     12  C   UNL     1      -1.136   2.549  24.831  0.00  0.00    +0.157 C 
ATOM     13  O   UNL     1      -1.943   2.400  24.753  0.00  0.00    -0.351 OA
ATOM     14  C   UNL     1      -2.352   3.060  25.034  0.00  0.00    +0.170 C 
ATOM     23  C   UNL     1      -1.796   3.615  25.287  0.00  0.00    +0.213 C 
ATOM     24  O   UNL     1      -1.964   4.356  25.609  0.00  0.00    -0.218 OA
ATOM     25  C   UNL     1      -1.044   3.299  25.162  0.00  0.00    +0.212 C 
ATOM     26  O   UNL     1      -0.328   3.669  25.335  0.00  0.00    -0.218 OA
ENDROOT
BRANCH  12  11
ATOM     11  C   UNL     1      -0.525   2.036  24.617  0.00  0.00    +0.117 C 
BRANCH  11   9
ATOM      4  C   UNL     1      -0.263  -0.130  24.279  0.00  0.00    +0.105 C 
ATOM      5  C   UNL     1       0.192  -0.440  23.663  0.00  0.00    +0.024 C 
ATOM      6  C   UNL     1       0.504   0.192  23.233  0.00  0.00    +0.023 C 
ATOM      7  C   UNL     1       0.242   0.892  23.584  0.00  0.00    +0.093 C 
ATOM      8  N   UNL     1      -0.231   0.693  24.229  0.00  0.00    -0.279 N 
ATOM      9  C   UNL     1      -0.607   1.225  24.736  0.00  0.00    +0.228 C 
ATOM     10  O   UNL     1      -1.066   0.943  25.361  0.00  0.00    -0.275 OA
BRANCH   4   3
ATOM      3  C   UNL     1      -0.676  -0.566  24.843  0.00  0.00    +0.162 C 
BRANCH   3   2
ATOM      1  C   UNL     1      -1.158  -1.827  25.313  0.00  0.00    +0.174 C 
ATOM      2  O   UNL     1      -0.657  -1.390  24.824  0.00  0.00    -0.349 OA
ENDBRANCH   3   2
ENDBRANCH   4   3
ENDBRANCH  11   9
ENDBRANCH  12  11
BRANCH  14  15
ATOM     15  C   UNL     1      -3.172   3.147  25.059  0.00  0.00    +0.149 C 
BRANCH  15  16
ATOM     16  N   UNL     1      -3.654   2.491  25.189  0.00  0.00    -0.185 NA
ATOM     17  C   UNL     1      -4.472   2.582  25.234  0.00  0.00    +0.339 C 
ATOM     18  O   UNL     1      -4.808   3.331  25.150  0.00  0.00    -0.249 OA
ATOM     19  N   UNL     1      -4.954   1.926  25.364  0.00  0.00    -0.189 NA
BRANCH  19  20
ATOM     20  C   UNL     1      -5.772   2.017  25.409  0.00  0.00    +0.097 C 
ATOM     21  C   UNL     1      -6.240   1.888  24.742  0.00  0.00    +0.023 C 
ATOM     22  C   UNL     1      -6.124   2.237  26.123  0.00  0.00    +0.023 C 
ENDBRANCH  19  20
ENDBRANCH  15  16
ENDBRANCH  14  15
TORSDOF 7
ENDMDL
MODEL 5
REMARK VINA RESULT:      -8.5      1.969      3.509
REMARK  Name = 
REMARK  7 active torsions:
REMARK  status: ('A' for Active; 'I' for Inactive)
REMARK    1  A    between atoms: O_2  and  C_3
REMARK    2  A    between atoms: C_3  and  C_4
REMARK    3  A    between atoms: C_9  and  C_11
REMARK    4  A    between atoms: C_11  and  C_12
REMARK    5  A    between atoms: C_14  and  C_15
REMARK    6  A    between atoms: C_15  and  N_16
REMARK    7  A    between atoms: N_19  and  C_20
REMARK                            x       y       z     vdW  Elec       q    Type
REMARK                         _______ _______ _______ _____ _____    ______ ____
ROOT
ATOM     12  C   UNL     1      -0.498   0.013  24.356  0.00  0.00    +0.157 C 
ATOM     13  O   UNL     1      -0.704   0.708  24.749  0.00  0.00    -0.351 OA
ATOM     14  C   UNL     1      -0.166   1.294  24.529  0.00  0.00    +0.170 C 
ATOM     23  C   UNL     1       0.371   0.960  24.000  0.00  0.00    +0.213 C 
ATOM     24  O   UNL     1       1.003   1.351  23.641  0.00  0.00    -0.218 OA
ATOM     25  C   UNL     1       0.166   0.169  23.892  0.00  0.00    +0.212 C 
ATOM     26  O   UNL     1       0.557  -0.372  23.407  0.00  0.00    -0.218 OA
ENDROOT
BRANCH  12  11
ATOM     11  C   UNL     1      -0.889  -0.712  24.415  0.00  0.00    +0.117 C 
BRANCH  11   9
ATOM      4  C   UNL     1      -2.921  -1.570  24.512  0.00  0.00    +0.105 C 
ATOM      5  C   UNL     1      -3.068  -2.373  24.630  0.00  0.00    +0.024 C 
ATOM      6  C   UNL     1      -2.341  -2.758  24.700  0.00  0.00    +0.023 C 
ATOM      7  C   UNL     1      -1.745  -2.192  24.624  0.00  0.00    +0.093 C 
ATOM      8  N   UNL     1      -2.104  -1.458  24.508  0.00  0.00    -0.279 N 
ATOM      9  C   UNL     1      -1.713  -0.739  24.406  0.00  0.00    +0.228 C 
ATOM     10  O   UNL     1      -2.147  -0.046  24.295  0.00  0.00    -0.275 OA
BRANCH   4   3
ATOM      3  C   UNL     1      -3.491  -0.983  24.414  0.00  0.00    +0.162 C 
BRANCH   3   2
ATOM      1  C   UNL     1      -4.864  -0.591  24.336  0.00  0.00    +0.174 C 
ATOM      2  O   UNL     1      -4.291  -1.182  24.394  0.00  0.00    -0.349 OA
ENDBRANCH   3   2
ENDBRANCH   4   3
ENDBRANCH  11   9
ENDBRANCH  12  11
BRANCH  14  15
ATOM     15  C   UNL     1      -0.167   2.076  24.793  0.00  0.00    +0.149 C 
BRANCH  15  16
ATOM     16  N   UNL     1      -0.770   2.589  24.563  0.00  0.00    -0.185 NA
ATOM     17  C   UNL     1      -0.919   3.273  24.998  0.00  0.00    +0.339 C 
ATOM     18  O   UNL     1      -0.463   3.444  25.665  0.00  0.00    -0.249 OA
ATOM     19  N   UNL     1      -1.522   3.786  24.768  0.00  0.00    -0.189 NA
BRANCH  19  20
ATOM     20  C   UNL     1      -1.671   4.471  25.204  0.00  0.00    +0.097 C 
ATOM     21  C   UNL     1      -1.243   5.159  25.050  0.00  0.00    +0.023 C 
ATOM     22  C   UNL     1      -2.247   4.467  25.794  0.00  0.00    +0.023 C 
ENDBRANCH  19  20
ENDBRANCH  15  16
ENDBRANCH  14  15
TORSDOF 7
ENDMDL
MODEL 6
REMARK VINA RESULT:      -8.4      1.936      4.248
REMARK  Name = 
REMARK  7 active torsions:
REMARK  status: ('A' for Active; 'I' for Inactive)
REMARK    1  A    between atoms: O_2  and  C_3
REMARK    2  A    between atoms: C_3  and  C_4
REMARK    3  A    between atoms: C_9  and  C_11
REMARK    4  A    between atoms: C_11  and  C_12
REMARK    5  A    between atoms: C_14  and  C_15
REMARK    6  A    between atoms: C_15  and  N_16
REMARK    7  A    between atoms: N_19  and  C_20
REMARK                            x       y       z     vdW  Elec       q    Type
REMARK                         _______ _______ _______ _____ _____    ______ ____
ROOT
ATOM     12  C   UNL     1      -2.081  -0.831  24.754  0.00  0.00    +0.157 C 
ATOM     13  O   UNL     1      -2.677  -0.269  24.852  0.00  0.00    -0.351 OA
ATOM     14  C   UNL     1      -3.395  -0.671  24.927  0.00  0.00    +0.170 C 
ATOM     23  C   UNL     1      -3.240  -1.480  24.875  0.00  0.00    +0.213 C 
ATOM     24  O   UNL     1      -3.800  -2.084  24.922  0.00  0.00    -0.218 OA
ATOM     25  C   UNL     1      -2.428  -1.579  24.768  0.00  0.00    +0.212 C 
ATOM     26  O   UNL     1      -2.033  -2.298  24.689  0.00  0.00    -0.218 OA
ENDROOT
BRANCH  12  11
ATOM     11  C   UNL     1      -1.276  -0.672  24.658  0.00  0.00    +0.117 C 
BRANCH  11   9
ATOM      4  C   UNL     1      -0.047   1.162  24.701  0.00  0.00    +0.105 C 
ATOM      5  C   UNL     1       0.459   1.382  24.087  0.00  0.00    +0.024 C 
ATOM      6  C   UNL     1       0.409   0.808  23.497  0.00  0.00    +0.023 C 
ATOM      7  C   UNL     1      -0.129   0.233  23.746  0.00  0.00    +0.093 C 
ATOM      8  N   UNL     1      -0.410   0.452  24.490  0.00  0.00    -0.279 N 
ATOM      9  C   UNL     1      -0.959   0.034  24.943  0.00  0.00    +0.228 C 
ATOM     10  O   UNL     1      -1.189   0.323  25.680  0.00  0.00    -0.275 OA
BRANCH   4   3
ATOM      3  C   UNL     1      -0.168   1.579  25.402  0.00  0.00    +0.162 C 
BRANCH   3   2
ATOM      1  C   UNL     1       0.107   2.707  26.235  0.00  0.00    +0.174 C 
ATOM      2  O   UNL     1       0.244   2.279  25.543  0.00  0.00    -0.349 OA
ENDBRANCH   3   2
ENDBRANCH   4   3
ENDBRANCH  11   9
ENDBRANCH  12  11
BRANCH  14  15
ATOM     15  C   UNL     1      -4.135  -0.324  25.035  0.00  0.00    +0.149 C 
BRANCH  15  16
ATOM     16  N   UNL     1      -4.297   0.414  24.705  0.00  0.00    -0.185 NA
ATOM     17  C   UNL     1      -4.866   0.903  25.047  0.00  0.00    +0.339 C 
ATOM     18  O   UNL     1      -5.272   0.655  25.721  0.00  0.00    -0.249 OA
ATOM     19  N   UNL     1      -5.028   1.642  24.717  0.00  0.00    -0.189 NA
BRANCH  19  20
ATOM     20  C   UNL     1      -5.596   2.131  25.059  0.00  0.00    +0.097 C 
ATOM     21  C   UNL     1      -6.398   1.991  24.924  0.00  0.00    +0.023 C 
ATOM     22  C   UNL     1      -5.363   2.762  25.537  0.00  0.00    +0.023 C 
ENDBRANCH  19  20
ENDBRANCH  15  16
ENDBRANCH  14  15
TORSDOF 7
ENDMDL
