MODEL 1
REMARK VINA RESULT:     -13.2      0.000      0.000
REMARK  Name = 
REMARK  7 active torsions:
REMARK  status: ('A' for Active; 'I' for Inactive)
REMARK    1  A    between atoms: C_2  and  C_5
REMARK    2  A    between atoms: C_14  and  C_16
REMARK    3  A    between atoms: C_24  and  C_25
REMARK    4  A    between atoms: C_25  and  C_26
REMARK    5  A    between atoms: N_28  and  C_29
REMARK    6  A    between atoms: C_29  and  C_30
REMARK    7  A    between atoms: C_30  and  N_31
REMARK                            x       y       z     vdW  Elec       q    Type
REMARK                         _______ _______ _______ _____ _____    ______ ____
ROOT
ATOM      5  C   UNL     1      -4.972   2.256  25.104  0.00  0.00    +0.246 C 
ATOM      6  O   UNL     1      -5.483   1.699  24.773  0.00  0.00    -0.273 OA
ATOM      7  N   UNL     1      -4.198   2.042  25.294  0.00  0.00    -0.154 NA
ATOM      8  C   UNL     1      -3.935   1.273  25.153  0.00  0.00    +0.185 A 
ATOM      9  N   UNL     1      -3.182   0.981  25.313  0.00  0.00    -0.227 NA
ATOM     10  C   UNL     1      -3.162   0.188  25.087  0.00  0.00    +0.063 A 
ATOM     11  C   UNL     1      -3.903  -0.010  24.786  0.00  0.00    +0.023 A 
ATOM     12  C   UNL     1      -4.047  -0.775  24.515  0.00  0.00    +0.034 C 
ATOM     13  C   UNL     1      -3.448  -1.343  24.543  0.00  0.00    +0.010 C 
ATOM     14  C   UNL     1      -3.593  -2.108  24.271  0.00  0.00    +0.059 C 
ATOM     15  C   UNL     1      -4.330  -1.765  24.131  0.00  0.00    +0.005 C 
ATOM     18  C   UNL     1      -2.995  -2.676  24.299  0.00  0.00    +0.154 C 
ATOM     19  O   UNL     1      -3.139  -3.442  24.027  0.00  0.00    -0.223 OA
ATOM     20  C   UNL     1      -2.252  -2.478  24.600  0.00  0.00    +0.033 C 
ATOM     21  C   UNL     1      -2.109  -1.712  24.872  0.00  0.00    +0.003 C 
ATOM     22  C   UNL     1      -2.707  -1.145  24.843  0.00  0.00    +0.006 C 
ATOM     23  C   UNL     1      -1.965  -0.947  25.144  0.00  0.00    +0.000 C 
ATOM     24  C   UNL     1      -2.563  -0.380  25.115  0.00  0.00    +0.050 C 
ATOM     37  S   UNL     1      -4.382   0.661  24.828  0.00  0.00    -0.054 S 
ENDROOT
BRANCH   5   2
ATOM      1  C   UNL     1      -5.498   3.794  25.386  0.00  0.00    +0.009 C 
ATOM      2  C   UNL     1      -5.234   3.025  25.244  0.00  0.00    +0.071 C 
ATOM      3  C   UNL     1      -5.792   2.736  25.780  0.00  0.00    +0.009 C 
ATOM      4  C   UNL     1      -4.678   3.314  24.709  0.00  0.00    +0.009 C 
ENDBRANCH   5   2
BRANCH  14  16
ATOM     16  C   UNL     1      -3.993  -2.754  23.950  0.00  0.00    +0.184 C 
ATOM     17  O   UNL     1      -4.712  -2.643  23.560  0.00  0.00    -0.220 OA
ENDBRANCH  14  16
BRANCH  24  25
ATOM     25  C   UNL     1      -1.820  -0.181  25.416  0.00  0.00    +0.093 C 
BRANCH  25  26
ATOM     26  C   UNL     1      -1.354   0.378  25.029  0.00  0.00    +0.242 C 
ATOM     27  O   UNL     1      -1.232   0.321  24.214  0.00  0.00    -0.273 OA
ATOM     28  N   UNL     1      -1.009   0.995  25.455  0.00  0.00    -0.204 NA
BRANCH  28  29
ATOM     29  C   UNL     1      -0.543   1.554  25.069  0.00  0.00    +0.132 C 
BRANCH  29  30
ATOM     30  C   UNL     1      -0.263   2.213  25.478  0.00  0.00    +0.096 C 
BRANCH  30  31
ATOM     31  N   UNL     1      -0.421   2.972  25.198  0.00  0.00    -0.267 NA
ATOM     32  C   UNL     1      -0.874   3.493  25.649  0.00  0.00    +0.105 C 
ATOM     33  C   UNL     1      -1.032   4.252  25.368  0.00  0.00    +0.159 C 
ATOM     34  O   UNL     1      -0.737   4.491  24.635  0.00  0.00    -0.351 OA
ATOM     35  C   UNL     1      -0.284   3.970  24.184  0.00  0.00    +0.159 C 
ATOM     36  C   UNL     1      -0.125   3.210  24.464  0.00  0.00    +0.105 C 
ENDBRANCH  30  31
ENDBRANCH  29  30
ENDBRANCH  28  29
ENDBRANCH  25  26
ENDBRANCH  24  25
TORSDOF 7
ENDMDL
MODEL 2
REMARK VINA RESULT:     -12.9      2.021      4.427
REMARK  Name = 
REMARK  7 active torsions:
REMARK  status: ('A' for Active; 'I' for Inactive)
REMARK    1  A    between atoms: C_2  and  C_5
REMARK    2  A    between atoms: C_14  and  C_16
REMARK    3  A    between atoms: C_24  and  C_25
REMARK    4  A    between atoms: C_25  and  C_26
REMARK    5  A    between atoms: N_28  and  C_29
REMARK    6  A    between atoms: C_29  and  C_30
REMARK    7  A    between atoms: C_30  and  N_31
REMARK                            x       y       z     vdW  Elec       q    Type
REMARK                         _______ _______ _______ _____ _____    ______ ____
ROOT
ATOM      5  C   UNL     1      -3.816  -1.488  24.400  0.00  0.00    +0.246 C 
ATOM      6  O   UNL     1      -4.524  -1.066  24.445  0.00  0.00    -0.273 OA
ATOM      7  N   UNL     1      -3.096  -1.094  24.476  0.00  0.00    -0.154 NA
ATOM      8  C   UNL     1      -3.082  -0.278  24.597  0.00  0.00    +0.185 A 
ATOM      9  N   UNL     1      -2.408   0.189  24.683  0.00  0.00    -0.227 NA
ATOM     10  C   UNL     1      -2.650   0.970  24.792  0.00  0.00    +0.063 A 
ATOM     11  C   UNL     1      -3.474   0.986  24.773  0.00  0.00    +0.023 A 
ATOM     12  C   UNL     1      -3.875   1.700  24.869  0.00  0.00    +0.034 C 
ATOM     13  C   UNL     1      -3.450   2.400  24.982  0.00  0.00    +0.010 C 
ATOM     14  C   UNL     1      -3.852   3.114  25.078  0.00  0.00    +0.059 C 
ATOM     15  C   UNL     1      -4.492   2.602  24.986  0.00  0.00    +0.005 C 
ATOM     18  C   UNL     1      -3.428   3.813  25.191  0.00  0.00    +0.154 C 
ATOM     19  O   UNL     1      -3.829   4.528  25.287  0.00  0.00    -0.223 OA
ATOM     20  C   UNL     1      -2.603   3.797  25.210  0.00  0.00    +0.033 C 
ATOM     21  C   UNL     1      -2.203   3.082  25.115  0.00  0.00    +0.003 C 
ATOM     22  C   UNL     1      -2.626   2.383  25.001  0.00  0.00    +0.006 C 
ATOM     23  C   UNL     1      -1.802   2.367  25.019  0.00  0.00    +0.000 C 
ATOM     24  C   UNL     1      -2.226   1.669  24.906  0.00  0.00    +0.050 C 
ATOM     37  S   UNL     1      -3.741   0.215  24.653  0.00  0.00    -0.054 S 
ENDROOT
BRANCH   5   2
ATOM      1  C   UNL     1      -3.843  -3.120  24.160  0.00  0.00    +0.009 C 
ATOM      2  C   UNL     1      -3.830  -2.304  24.280  0.00  0.00    +0.071 C 
ATOM      3  C   UNL     1      -3.426  -2.415  24.991  0.00  0.00    +0.009 C 
ATOM      4  C   UNL     1      -4.233  -2.192  23.569  0.00  0.00    +0.009 C 
ENDBRANCH   5   2
BRANCH  14  16
ATOM     16  C   UNL     1      -4.475   3.651  25.141  0.00  0.00    +0.184 C 
ATOM     17  O   UNL     1      -5.223   3.390  25.371  0.00  0.00    -0.220 OA
ENDBRANCH  14  16
BRANCH  24  25
ATOM     25  C   UNL     1      -1.401   1.652  24.924  0.00  0.00    +0.093 C 
BRANCH  25  26
ATOM     26  C   UNL     1      -0.977   1.453  24.246  0.00  0.00    +0.242 C 
ATOM     27  O   UNL     1      -1.231   1.720  23.507  0.00  0.00    -0.273 OA
ATOM     28  N   UNL     1      -0.298   0.988  24.304  0.00  0.00    -0.204 NA
BRANCH  28  29
ATOM     29  C   UNL     1       0.126   0.789  23.626  0.00  0.00    +0.132 C 
BRANCH  29  30
ATOM     30  C   UNL     1       0.646   0.148  23.637  0.00  0.00    +0.096 C 
BRANCH  30  31
ATOM     31  N   UNL     1       1.245   0.093  23.073  0.00  0.00    -0.267 NA
ATOM     32  C   UNL     1       1.108  -0.304  22.362  0.00  0.00    +0.105 C 
ATOM     33  C   UNL     1       1.707  -0.359  21.798  0.00  0.00    +0.159 C 
ATOM     34  O   UNL     1       2.444  -0.017  21.944  0.00  0.00    -0.351 OA
ATOM     35  C   UNL     1       2.582   0.379  22.654  0.00  0.00    +0.159 C 
ATOM     36  C   UNL     1       1.982   0.435  23.219  0.00  0.00    +0.105 C 
ENDBRANCH  30  31
ENDBRANCH  29  30
ENDBRANCH  28  29
ENDBRANCH  25  26
ENDBRANCH  24  25
TORSDOF 7
ENDMDL
MODEL 3
REMARK VINA RESULT:     -12.0      1.146      3.288
REMARK  Name = 
REMARK  7 active torsions:
REMARK  status: ('A' for Active; 'I' for Inactive)
REMARK    1  A    between atoms: C_2  and  C_5
REMARK    2  A    between atoms: C_14  and  C_16
REMARK    3  A    between atoms: C_24  and  C_25
REMARK    4  A    between atoms: C_25  and  C_26
REMARK    5  A    between atoms: N_28  and  C_29
REMARK    6  A    between atoms: C_29  and  C_30
REMARK    7  A    between atoms: C_30  and  N_31
REMARK                            x       y       z     vdW  Elec       q    Type
REMARK                         _______ _______ _______ _____ _____    ______ ____
ROOT
ATOM      5  C   UNL     1      -0.594   1.583  25.297  0.00  0.00    +0.246 C 
ATOM      6  O   UNL     1      -0.245   0.842  25.390  0.00  0.00    -0.273 OA
ATOM      7  N   UNL     1      -1.379   1.642  25.052  0.00  0.00    -0.154 NA
ATOM      8  C   UNL     1      -1.816   0.959  24.899  0.00  0.00    +0.185 A 
ATOM      9  N   UNL     1      -2.601   0.931  24.651  0.00  0.00    -0.227 NA
ATOM     10  C   UNL     1      -2.814   0.139  24.566  0.00  0.00    +0.063 A 
ATOM     11  C   UNL     1      -2.160  -0.323  24.761  0.00  0.00    +0.023 A 
ATOM     12  C   UNL     1      -2.210  -1.145  24.726  0.00  0.00    +0.034 C 
ATOM     13  C   UNL     1      -2.917  -1.506  24.495  0.00  0.00    +0.010 C 
ATOM     14  C   UNL     1      -2.967  -2.329  24.460  0.00  0.00    +0.059 C 
ATOM     15  C   UNL     1      -2.185  -2.244  24.708  0.00  0.00    +0.005 C 
ATOM     18  C   UNL     1      -3.672  -2.689  24.230  0.00  0.00    +0.154 C 
ATOM     19  O   UNL     1      -3.723  -3.513  24.195  0.00  0.00    -0.223 OA
ATOM     20  C   UNL     1      -4.328  -2.227  24.035  0.00  0.00    +0.033 C 
ATOM     21  C   UNL     1      -4.276  -1.404  24.070  0.00  0.00    +0.003 C 
ATOM     22  C   UNL     1      -3.571  -1.044  24.300  0.00  0.00    +0.006 C 
ATOM     23  C   UNL     1      -4.225  -0.582  24.105  0.00  0.00    +0.000 C 
ATOM     24  C   UNL     1      -3.520  -0.222  24.335  0.00  0.00    +0.050 C 
ATOM     37  S   UNL     1      -1.543   0.184  24.967  0.00  0.00    -0.054 S 
ENDROOT
BRANCH   5   2
ATOM      1  C   UNL     1       0.281   2.949  25.603  0.00  0.00    +0.009 C 
ATOM      2  C   UNL     1      -0.157   2.266  25.451  0.00  0.00    +0.071 C 
ATOM      3  C   UNL     1       0.211   2.195  24.715  0.00  0.00    +0.009 C 
ATOM      4  C   UNL     1      -0.524   2.337  26.185  0.00  0.00    +0.009 C 
ENDBRANCH   5   2
BRANCH  14  16
ATOM     16  C   UNL     1      -2.746  -3.122  24.511  0.00  0.00    +0.184 C 
ATOM     17  O   UNL     1      -1.949  -3.325  24.578  0.00  0.00    -0.220 OA
ENDBRANCH  14  16
BRANCH  24  25
ATOM     25  C   UNL     1      -4.175   0.241  24.140  0.00  0.00    +0.093 C 
BRANCH  25  26
ATOM     26  C   UNL     1      -4.511   0.740  24.704  0.00  0.00    +0.242 C 
ATOM     27  O   UNL     1      -4.688   0.452  25.457  0.00  0.00    -0.273 OA
ATOM     28  N   UNL     1      -4.670   1.528  24.516  0.00  0.00    -0.204 NA
BRANCH  28  29
ATOM     29  C   UNL     1      -5.006   2.027  25.080  0.00  0.00    +0.132 C 
BRANCH  29  30
ATOM     30  C   UNL     1      -5.107   2.829  24.914  0.00  0.00    +0.096 C 
BRANCH  30  31
ATOM     31  N   UNL     1      -4.575   3.383  25.215  0.00  0.00    -0.267 NA
ATOM     32  C   UNL     1      -4.503   3.487  26.030  0.00  0.00    +0.105 C 
ATOM     33  C   UNL     1      -3.972   4.040  26.330  0.00  0.00    +0.159 C 
ATOM     34  O   UNL     1      -3.511   4.492  25.815  0.00  0.00    -0.351 OA
ATOM     35  C   UNL     1      -3.582   4.388  25.000  0.00  0.00    +0.159 C 
ATOM     36  C   UNL     1      -4.114   3.834  24.699  0.00  0.00    +0.105 C 
ENDBRANCH  30  31
ENDBRANCH  29  30
ENDBRANCH  28  29
ENDBRANCH  25  26
ENDBRANCH  24  25
TORSDOF 7
ENDMDL
MODEL 4
REMARK VINA RESULT:     -12.0      1.373      4.177
REMARK  Name = 
REMARK  7 active torsions:
REMARK  status: ('A' for Active; 'I' for Inactive)
REMARK    1  A    between atoms: C_2  and  C_5
REMARK    2  A    between atoms: C_14  and  C_16
REMARK    3  A    between atoms: C_24  and  C_25
REMARK    4  A    between atoms: C_25  and  C_26
REMARK    5  A    between atoms: N_28  and  C_29
REMARK    6  A    between atoms: C_29  and  C_30
REMARK    7  A    between atoms: C_30  and  N_31
REMARK                            x       y       z     vdW  Elec       q    Type
REMARK                         _______ _______ _______ _____ _____    ______ ____
ROOT
ATOM      5  C   UNL     1      -3.788  -1.569  24.520  0.00  0.00    +0.246 C 
ATOM      6  O   UNL     1      -4.314  -1.435  25.141  0.00  0.00    -0.273 OA
ATOM      7  N   UNL     1      -3.525  -0.938  24.060  0.00  0.00    -0.154 NA
ATOM      8  C   UNL     1      -3.787  -0.172  24.220  0.00  0.00    +0.185 A 
ATOM      9  N   UNL     1      -3.573   0.510  23.809  0.00  0.00    -0.227 NA
ATOM     10  C   UNL     1      -3.964   1.149  24.155  0.00  0.00    +0.063 A 
ATOM     11  C   UNL     1      -4.419   0.862  24.779  0.00  0.00    +0.023 A 
ATOM     12  C   UNL     1      -4.875   1.381  25.230  0.00  0.00    +0.034 C 
ATOM     13  C   UNL     1      -4.874   2.188  25.056  0.00  0.00    +0.010 C 
ATOM     14  C   UNL     1      -5.330   2.707  25.508  0.00  0.00    +0.059 C 
ATOM     15  C   UNL     1      -5.510   1.995  25.883  0.00  0.00    +0.005 C 
ATOM     18  C   UNL     1      -5.330   3.513  25.335  0.00  0.00    +0.154 C 
ATOM     19  O   UNL     1      -5.786   4.033  25.786  0.00  0.00    -0.223 OA
ATOM     20  C   UNL     1      -4.874   3.801  24.710  0.00  0.00    +0.033 C 
ATOM     21  C   UNL     1      -4.419   3.282  24.259  0.00  0.00    +0.003 C 
ATOM     22  C   UNL     1      -4.419   2.475  24.432  0.00  0.00    +0.006 C 
ATOM     23  C   UNL     1      -3.963   2.762  23.808  0.00  0.00    +0.000 C 
ATOM     24  C   UNL     1      -3.964   1.957  23.981  0.00  0.00    +0.050 C 
ATOM     37  S   UNL     1      -4.310   0.045  24.819  0.00  0.00    -0.054 S 
ENDROOT
BRANCH   5   2
ATOM      1  C   UNL     1      -3.262  -3.100  24.201  0.00  0.00    +0.009 C 
ATOM      2  C   UNL     1      -3.525  -2.335  24.360  0.00  0.00    +0.071 C 
ATOM      3  C   UNL     1      -2.896  -2.228  24.884  0.00  0.00    +0.009 C 
ATOM      4  C   UNL     1      -4.153  -2.441  23.837  0.00  0.00    +0.009 C 
ENDBRANCH   5   2
BRANCH  14  16
ATOM     16  C   UNL     1      -5.848   2.978  26.090  0.00  0.00    +0.184 C 
ATOM     17  O   UNL     1      -6.153   2.454  26.649  0.00  0.00    -0.220 OA
ENDBRANCH  14  16
BRANCH  24  25
ATOM     25  C   UNL     1      -3.508   2.244  23.356  0.00  0.00    +0.093 C 
BRANCH  25  26
ATOM     26  C   UNL     1      -2.691   2.128  23.353  0.00  0.00    +0.242 C 
ATOM     27  O   UNL     1      -2.360   1.535  22.883  0.00  0.00    -0.273 OA
ATOM     28  N   UNL     1      -2.205   2.604  23.820  0.00  0.00    -0.204 NA
BRANCH  28  29
ATOM     29  C   UNL     1      -1.389   2.489  23.817  0.00  0.00    +0.132 C 
BRANCH  29  30
ATOM     30  C   UNL     1      -0.895   3.020  24.211  0.00  0.00    +0.096 C 
BRANCH  30  31
ATOM     31  N   UNL     1      -0.414   2.757  24.827  0.00  0.00    -0.267 NA
ATOM     32  C   UNL     1       0.184   2.207  24.679  0.00  0.00    +0.105 C 
ATOM     33  C   UNL     1       0.665   1.945  25.295  0.00  0.00    +0.159 C 
ATOM     34  O   UNL     1       0.548   2.232  26.061  0.00  0.00    -0.351 OA
ATOM     35  C   UNL     1      -0.049   2.781  26.209  0.00  0.00    +0.159 C 
ATOM     36  C   UNL     1      -0.530   3.044  25.593  0.00  0.00    +0.105 C 
ENDBRANCH  30  31
ENDBRANCH  29  30
ENDBRANCH  28  29
ENDBRANCH  25  26
ENDBRANCH  24  25
TORSDOF 7
ENDMDL
MODEL 5
REMARK VINA RESULT:     -11.3      2.262      2.917
REMARK  Name = 
REMARK  7 active torsions:
REMARK  status: ('A' for Active; 'I' for Inactive)
REMARK    1  A    between atoms: C_2  and  C_5
REMARK    2  A    between atoms: C_14  and  C_16
REMARK    3  A    between atoms: C_24  and  C_25
REMARK    4  A    between atoms: C_25  and  C_26
REMARK    5  A    between atoms: N_28  and  C_29
REMARK    6  A    between atoms: C_29  and  C_30
REMARK    7  A    between atoms: C_30  and  N_31
REMARK                            x       y       z     vdW  Elec       q    Type
REMARK                         _______ _______ _______ _____ _____    ______ ____
ROOT
ATOM      5  C   UNL     1      -2.246   2.996  25.195  0.00  0.00    +0.246 C 
ATOM      6  O   UNL     1      -3.032   2.746  25.173  0.00  0.00    -0.273 OA
ATOM      7  N   UNL     1      -1.637   2.449  25.104  0.00  0.00    -0.154 NA
ATOM      8  C   UNL     1      -1.811   1.651  24.990  0.00  0.00    +0.185 A 
ATOM      9  N   UNL     1      -1.263   1.044  24.890  0.00  0.00    -0.227 NA
ATOM     10  C   UNL     1      -1.678   0.338  24.794  0.00  0.00    +0.063 A 
ATOM     11  C   UNL     1      -2.484   0.509  24.834  0.00  0.00    +0.023 A 
ATOM     12  C   UNL     1      -3.038  -0.096  24.755  0.00  0.00    +0.034 C 
ATOM     13  C   UNL     1      -2.787  -0.874  24.636  0.00  0.00    +0.010 C 
ATOM     14  C   UNL     1      -3.342  -1.479  24.557  0.00  0.00    +0.059 C 
ATOM     15  C   UNL     1      -3.847  -0.835  24.661  0.00  0.00    +0.005 C 
ATOM     18  C   UNL     1      -3.091  -2.256  24.438  0.00  0.00    +0.154 C 
ATOM     19  O   UNL     1      -3.646  -2.862  24.359  0.00  0.00    -0.223 OA
ATOM     20  C   UNL     1      -2.284  -2.427  24.398  0.00  0.00    +0.033 C 
ATOM     21  C   UNL     1      -1.730  -1.822  24.477  0.00  0.00    +0.003 C 
ATOM     22  C   UNL     1      -1.981  -1.045  24.596  0.00  0.00    +0.006 C 
ATOM     23  C   UNL     1      -1.176  -1.216  24.556  0.00  0.00    +0.000 C 
ATOM     24  C   UNL     1      -1.427  -0.440  24.675  0.00  0.00    +0.050 C 
ATOM     37  S   UNL     1      -2.566   1.321  24.955  0.00  0.00    -0.054 S 
ENDROOT
BRANCH   5   2
ATOM      1  C   UNL     1      -1.899   4.593  25.425  0.00  0.00    +0.009 C 
ATOM      2  C   UNL     1      -2.072   3.795  25.310  0.00  0.00    +0.071 C 
ATOM      3  C   UNL     1      -2.692   3.852  25.852  0.00  0.00    +0.009 C 
ATOM      4  C   UNL     1      -1.453   3.738  24.768  0.00  0.00    +0.009 C 
ENDBRANCH   5   2
BRANCH  14  16
ATOM     16  C   UNL     1      -4.072  -1.861  24.514  0.00  0.00    +0.184 C 
ATOM     17  O   UNL     1      -4.726  -1.467  24.201  0.00  0.00    -0.220 OA
ENDBRANCH  14  16
BRANCH  24  25
ATOM     25  C   UNL     1      -0.620  -0.611  24.635  0.00  0.00    +0.093 C 
BRANCH  25  26
ATOM     26  C   UNL     1      -0.186  -0.401  23.966  0.00  0.00    +0.242 C 
ATOM     27  O   UNL     1      -0.547  -0.400  23.223  0.00  0.00    -0.273 OA
ATOM     28  N   UNL     1       0.609  -0.191  24.038  0.00  0.00    -0.204 NA
BRANCH  28  29
ATOM     29  C   UNL     1       1.043   0.019  23.370  0.00  0.00    +0.132 C 
BRANCH  29  30
ATOM     30  C   UNL     1       1.660   0.563  23.432  0.00  0.00    +0.096 C 
BRANCH  30  31
ATOM     31  N   UNL     1       2.316   0.501  22.935  0.00  0.00    -0.267 NA
ATOM     32  C   UNL     1       2.276   0.039  22.253  0.00  0.00    +0.105 C 
ATOM     33  C   UNL     1       2.931  -0.023  21.757  0.00  0.00    +0.159 C 
ATOM     34  O   UNL     1       3.628   0.379  21.943  0.00  0.00    -0.351 OA
ATOM     35  C   UNL     1       3.669   0.841  22.624  0.00  0.00    +0.159 C 
ATOM     36  C   UNL     1       3.013   0.903  23.121  0.00  0.00    +0.105 C 
ENDBRANCH  30  31
ENDBRANCH  29  30
ENDBRANCH  28  29
ENDBRANCH  25  26
ENDBRANCH  24  25
TORSDOF 7
ENDMDL
MODEL 6
REMARK VINA RESULT:     -11.2      1.191      4.915
REMARK  Name = 
REMARK  7 active torsions:
REMARK  status: ('A' for Active; 'I' for Inactive)
REMARK    1  A    between atoms: C_2  and  C_5
REMARK    2  A    between atoms: C_14  and  C_16
REMARK    3  A    between atoms: C_24  and  C_25
REMARK    4  A    between atoms: C_25  and  C_26
REMARK    5  A    between atoms: N_28  and  C_29
REMARK    6  A    between atoms: C_29  and  C_30
REMARK    7  A    between atoms: C_30  and  N_31
REMARK                            x       y       z     vdW  Elec       q    Type
REMARK                         _______ _______ _______ _____ _____    ______ ____
ROOT
ATOM      5  C   UNL     1      -5.287   2.352  25.275  0.00  0.00    +0.246 C 
ATOM      6  O   UNL     1      -5.262   3.158  25.101  0.00  0.00    -0.273 OA
ATOM      7  N   UNL     1      -4.587   1.934  25.399  0.00  0.00    -0.154 NA
ATOM      8  C   UNL     1      -3.860   2.322  25.349  0.00  0.00    +0.185 A 
ATOM      9  N   UNL     1      -3.119   1.979  25.458  0.00  0.00    -0.227 NA
ATOM     10  C   UNL     1      -2.549   2.566  25.357  0.00  0.00    +0.063 A 
ATOM     11  C   UNL     1      -2.938   3.272  25.185  0.00  0.00    +0.023 A 
ATOM     12  C   UNL     1      -2.504   3.961  25.055  0.00  0.00    +0.034 C 
ATOM     13  C   UNL     1      -1.680   3.944  25.097  0.00  0.00    +0.010 C 
ATOM     14  C   UNL     1      -1.246   4.634  24.967  0.00  0.00    +0.059 C 
ATOM     15  C   UNL     1      -2.011   4.926  24.868  0.00  0.00    +0.005 C 
ATOM     18  C   UNL     1      -0.422   4.617  25.010  0.00  0.00    +0.154 C 
ATOM     19  O   UNL     1       0.013   5.307  24.880  0.00  0.00    -0.223 OA
ATOM     20  C   UNL     1      -0.032   3.910  25.182  0.00  0.00    +0.033 C 
ATOM     21  C   UNL     1      -0.467   3.221  25.311  0.00  0.00    +0.003 C 
ATOM     22  C   UNL     1      -1.290   3.238  25.269  0.00  0.00    +0.006 C 
ATOM     23  C   UNL     1      -0.901   2.532  25.441  0.00  0.00    +0.000 C 
ATOM     24  C   UNL     1      -1.724   2.549  25.399  0.00  0.00    +0.050 C 
ATOM     37  S   UNL     1      -3.749   3.121  25.180  0.00  0.00    -0.054 S 
ENDROOT
BRANCH   5   2
ATOM      1  C   UNL     1      -6.740   1.576  25.375  0.00  0.00    +0.009 C 
ATOM      2  C   UNL     1      -6.014   1.964  25.326  0.00  0.00    +0.071 C 
ATOM      3  C   UNL     1      -5.894   1.643  24.575  0.00  0.00    +0.009 C 
ATOM      4  C   UNL     1      -6.134   2.285  26.076  0.00  0.00    +0.009 C 
ENDBRANCH   5   2
BRANCH  14  16
ATOM     16  C   UNL     1      -1.078   5.424  24.803  0.00  0.00    +0.184 C 
ATOM     17  O   UNL     1      -1.643   6.007  24.953  0.00  0.00    -0.220 OA
ENDBRANCH  14  16
BRANCH  24  25
ATOM     25  C   UNL     1      -1.335   1.842  25.571  0.00  0.00    +0.093 C 
BRANCH  25  26
ATOM     26  C   UNL     1      -1.434   1.186  25.081  0.00  0.00    +0.242 C 
ATOM     27  O   UNL     1      -1.437   1.281  24.261  0.00  0.00    -0.273 OA
ATOM     28  N   UNL     1      -1.531   0.436  25.410  0.00  0.00    -0.204 NA
BRANCH  28  29
ATOM     29  C   UNL     1      -1.630  -0.220  24.920  0.00  0.00    +0.132 C 
BRANCH  29  30
ATOM     30  C   UNL     1      -1.579  -0.982  25.234  0.00  0.00    +0.096 C 
BRANCH  30  31
ATOM     31  N   UNL     1      -2.072  -1.579  24.950  0.00  0.00    -0.267 NA
ATOM     32  C   UNL     1      -2.876  -1.573  25.136  0.00  0.00    +0.105 C 
ATOM     33  C   UNL     1      -3.369  -2.170  24.852  0.00  0.00    +0.159 C 
ATOM     34  O   UNL     1      -3.057  -2.775  24.383  0.00  0.00    -0.351 OA
ATOM     35  C   UNL     1      -2.254  -2.780  24.198  0.00  0.00    +0.159 C 
ATOM     36  C   UNL     1      -1.760  -2.183  24.481  0.00  0.00    +0.105 C 
ENDBRANCH  30  31
ENDBRANCH  29  30
ENDBRANCH  28  29
ENDBRANCH  25  26
ENDBRANCH  24  25
TORSDOF 7
ENDMDL
