REMARK  Name = 
REMARK  9 active torsions:
REMARK  status: ('A' for Active; 'I' for Inactive)
REMARK    1  A    between atoms: O_2  and  C_3
REMARK    2  A    between atoms: C_4  and  O_5
REMARK    3  A    between atoms: C_7  and  O_8
REMARK    4  A    between atoms: C_10  and  C_11
REMARK    5  A    between atoms: C_11  and  N_12
REMARK    6  A    between atoms: C_17  and  C_18
REMARK    7  A    between atoms: C_20  and  C_21
REMARK    8  A    between atoms: C_21  and  S_22
REMARK    9  A    between atoms: S_22  and  C_25
REMARK                            x       y       z     vdW  Elec       q    Type
REMARK                         _______ _______ _______ _____ _____    ______ ____
ROOT
ATOM     12  N   UNL     1       2.943  -4.160   0.000  0.00  0.00    -0.260 NA
ATOM     13  C   UNL     1       3.611  -4.645   0.000  0.00  0.00    +0.106 C 
ATOM     14  C   UNL     1       3.356  -5.430   0.000  0.00  0.00    +0.170 C 
ATOM     15  O   UNL     1       3.841  -6.097   0.000  0.00  0.00    -0.222 OA
ATOM     16  C   UNL     1       2.531  -5.430   0.000  0.00  0.00    +0.060 C 
ATOM     17  C   UNL     1       2.276  -4.645   0.000  0.00  0.00    +0.140 C 
ENDROOT
BRANCH  17  18
ATOM     18  C   UNL     1       1.491  -4.390   0.000  0.00  0.00    +0.251 A 
ATOM     19  N   UNL     1       0.824  -4.875   0.000  0.00  0.00    -0.192 NA
ATOM     20  C   UNL     1       0.156  -4.390   0.000  0.00  0.00    +0.205 A 
ATOM     32  N   UNL     1       0.411  -3.605   0.000  0.00  0.00    -0.059 NA
ATOM     33  O   UNL     1       1.236  -3.605   0.000  0.00  0.00    -0.336 OA
BRANCH  20  21
ATOM     21  C   UNL     1      -0.628  -4.645   0.000  0.00  0.00    +0.224 C 
BRANCH  21  22
ATOM     22  S   UNL     1      -1.242  -4.093   0.000  0.00  0.00    +0.016 S 
ATOM     23  O   UNL     1      -0.690  -3.480   0.000  0.00  0.00    -0.168 OA
ATOM     24  O   UNL     1      -1.794  -4.706   0.000  0.00  0.00    -0.168 OA
BRANCH  22  25
ATOM     25  C   UNL     1      -1.855  -3.541   0.000  0.00  0.00    +0.106 A 
ATOM     26  C   UNL     1      -2.639  -3.796   0.000  0.00  0.00    +0.021 A 
ATOM     27  C   UNL     1      -3.252  -3.244   0.000  0.00  0.00    +0.031 A 
ATOM     28  C   UNL     1      -3.081  -2.437   0.000  0.00  0.00    +0.140 A 
ATOM     29  F   UNL     1      -3.694  -1.885   0.000  0.00  0.00    -0.204 F 
ATOM     30  C   UNL     1      -2.296  -2.182   0.000  0.00  0.00    +0.031 A 
ATOM     31  C   UNL     1      -1.683  -2.734   0.000  0.00  0.00    +0.021 A 
ENDBRANCH  22  25
ENDBRANCH  21  22
ENDBRANCH  20  21
ENDBRANCH  17  18
BRANCH  12  11
ATOM     11  C   UNL     1       2.943  -3.335   0.000  0.00  0.00    +0.103 C 
BRANCH  11  10
ATOM      3  C   UNL     1       5.087  -2.098   0.000  0.00  0.00    +0.175 A 
ATOM      4  C   UNL     1       5.087  -2.922   0.000  0.00  0.00    +0.206 A 
ATOM      7  C   UNL     1       4.372  -3.335   0.000  0.00  0.00    +0.173 A 
ATOM     10  C   UNL     1       3.658  -2.922   0.000  0.00  0.00    +0.031 A 
ATOM     34  C   UNL     1       3.658  -2.098   0.000  0.00  0.00    +0.003 A 
ATOM     35  C   UNL     1       4.372  -1.685   0.000  0.00  0.00    +0.040 A 
BRANCH   3   2
ATOM      1  C   UNL     1       5.801  -0.860   0.000  0.00  0.00    +0.253 C 
ATOM      2  O   UNL     1       5.801  -1.685   0.000  0.00  0.00    -0.468 OA
ENDBRANCH   3   2
BRANCH   4   5
ATOM      5  O   UNL     1       5.801  -3.335   0.000  0.00  0.00    -0.465 OA
ATOM      6  C   UNL     1       5.801  -4.160   0.000  0.00  0.00    +0.253 C 
ENDBRANCH   4   5
BRANCH   7   8
ATOM      8  O   UNL     1       4.372  -4.160   0.000  0.00  0.00    -0.469 OA
ATOM      9  C   UNL     1       5.087  -4.572   0.000  0.00  0.00    +0.253 C 
ENDBRANCH   7   8
ENDBRANCH  11  10
ENDBRANCH  12  11
TORSDOF 9
