MODEL 1
REMARK VINA RESULT:     -11.3      0.000      0.000
REMARK  Name = 
REMARK  9 active torsions:
REMARK  status: ('A' for Active; 'I' for Inactive)
REMARK    1  A    between atoms: O_2  and  C_3
REMARK    2  A    between atoms: C_3  and  C_4
REMARK    3  A    between atoms: C_4  and  N_5
REMARK    4  A    between atoms: N_5  and  C_6
REMARK    5  A    between atoms: C_7  and  C_12
REMARK    6  A    between atoms: C_15  and  C_17
REMARK    7  A    between atoms: N_21  and  C_22
REMARK    8  A    between atoms: C_22  and  C_23
REMARK    9  A    between atoms: C_26  and  N_27
REMARK                            x       y       z     vdW  Elec       q    Type
REMARK                         _______ _______ _______ _____ _____    ______ ____
ROOT
ATOM     12  C   UNL     1      -2.894   3.548  24.565  0.00  0.00    +0.206 A 
ATOM     13  N   UNL     1      -3.256   3.543  23.823  0.00  0.00    -0.056 NA
ATOM     14  O   UNL     1      -3.924   3.061  23.869  0.00  0.00    -0.336 OA
ATOM     15  C   UNL     1      -3.975   2.767  24.638  0.00  0.00    +0.251 A 
ATOM     16  N   UNL     1      -3.338   3.068  25.068  0.00  0.00    -0.190 NA
ENDROOT
BRANCH  12   7
ATOM      6  C   UNL     1      -1.470   3.606  24.666  0.00  0.00    +0.151 A 
ATOM      7  C   UNL     1      -2.208   3.959  24.767  0.00  0.00    +0.072 A 
ATOM      8  C   UNL     1      -2.261   4.725  25.069  0.00  0.00    +0.008 A 
ATOM      9  C   UNL     1      -1.576   5.137  25.271  0.00  0.00    +0.021 A 
ATOM     10  C   UNL     1      -0.836   4.783  25.170  0.00  0.00    +0.100 A 
ATOM     11  N   UNL     1      -0.785   4.017  24.868  0.00  0.00    -0.228 NA
BRANCH   6   5
ATOM      5  N   UNL     1      -1.417   2.840  24.363  0.00  0.00    -0.218 NA
BRANCH   5   4
ATOM      4  C   UNL     1      -0.696   2.440  24.376  0.00  0.00    +0.146 C 
BRANCH   4   3
ATOM      3  C   UNL     1      -0.609   1.733  23.960  0.00  0.00    +0.166 C 
BRANCH   3   2
ATOM      1  C   UNL     1      -0.158   0.379  23.905  0.00  0.00    +0.174 C 
ATOM      2  O   UNL     1      -0.292   1.070  24.334  0.00  0.00    -0.349 OA
ENDBRANCH   3   2
ENDBRANCH   4   3
ENDBRANCH   5   4
ENDBRANCH   6   5
ENDBRANCH  12   7
BRANCH  15  17
ATOM     17  C   UNL     1      -4.559   2.262  24.927  0.00  0.00    +0.138 C 
ATOM     18  C   UNL     1      -5.236   2.490  25.340  0.00  0.00    +0.027 C 
ATOM     19  C   UNL     1      -5.665   1.809  25.523  0.00  0.00    +0.019 C 
ATOM     20  C   UNL     1      -5.253   1.160  25.222  0.00  0.00    +0.073 C 
ATOM     21  N   UNL     1      -4.569   1.440  24.854  0.00  0.00    -0.263 NA
BRANCH  21  22
ATOM     22  C   UNL     1      -3.997   0.979  24.479  0.00  0.00    +0.099 C 
BRANCH  22  23
ATOM     23  C   UNL     1      -3.972   0.166  24.610  0.00  0.00    -0.006 A 
ATOM     24  C   UNL     1      -3.623  -0.131  25.296  0.00  0.00    -0.002 A 
ATOM     25  C   UNL     1      -3.598  -0.946  25.427  0.00  0.00    +0.016 A 
ATOM     26  C   UNL     1      -3.921  -1.463  24.872  0.00  0.00    +0.073 A 
ATOM     31  C   UNL     1      -4.270  -1.166  24.186  0.00  0.00    +0.016 A 
ATOM     32  C   UNL     1      -4.295  -0.352  24.055  0.00  0.00    -0.002 A 
BRANCH  26  27
ATOM     27  N   UNL     1      -3.896  -2.277  25.003  0.00  0.00    -0.179 NA
ATOM     28  C   UNL     1      -3.237  -2.713  24.763  0.00  0.00    +0.246 C 
ATOM     29  C   UNL     1      -2.605  -2.335  24.393  0.00  0.00    +0.097 C 
ATOM     30  O   UNL     1      -3.213  -3.527  24.895  0.00  0.00    -0.273 OA
ENDBRANCH  26  27
ENDBRANCH  22  23
ENDBRANCH  21  22
ENDBRANCH  15  17
TORSDOF 9
ENDMDL
MODEL 2
REMARK VINA RESULT:     -10.6      1.251      2.977
REMARK  Name = 
REMARK  9 active torsions:
REMARK  status: ('A' for Active; 'I' for Inactive)
REMARK    1  A    between atoms: O_2  and  C_3
REMARK    2  A    between atoms: C_3  and  C_4
REMARK    3  A    between atoms: C_4  and  N_5
REMARK    4  A    between atoms: N_5  and  C_6
REMARK    5  A    between atoms: C_7  and  C_12
REMARK    6  A    between atoms: C_15  and  C_17
REMARK    7  A    between atoms: N_21  and  C_22
REMARK    8  A    between atoms: C_22  and  C_23
REMARK    9  A    between atoms: C_26  and  N_27
REMARK                            x       y       z     vdW  Elec       q    Type
REMARK                         _______ _______ _______ _____ _____    ______ ____
ROOT
ATOM     12  C   UNL     1      -1.057   3.076  25.430  0.00  0.00    +0.206 A 
ATOM     13  N   UNL     1      -0.899   2.741  26.168  0.00  0.00    -0.056 NA
ATOM     14  O   UNL     1      -0.767   1.933  26.057  0.00  0.00    -0.336 OA
ATOM     15  C   UNL     1      -0.843   1.771  25.252  0.00  0.00    +0.251 A 
ATOM     16  N   UNL     1      -1.023   2.477  24.865  0.00  0.00    -0.190 NA
ENDROOT
BRANCH  12   7
ATOM      6  C   UNL     1      -1.993   4.153  25.354  0.00  0.00    +0.151 A 
ATOM      7  C   UNL     1      -1.221   3.872  25.285  0.00  0.00    +0.072 A 
ATOM      8  C   UNL     1      -0.612   4.385  25.070  0.00  0.00    +0.008 A 
ATOM      9  C   UNL     1      -0.775   5.181  24.924  0.00  0.00    +0.021 A 
ATOM     10  C   UNL     1      -1.548   5.463  24.994  0.00  0.00    +0.100 A 
ATOM     11  N   UNL     1      -2.156   4.948  25.208  0.00  0.00    -0.228 NA
BRANCH   6   5
ATOM      5  N   UNL     1      -2.602   3.640  25.569  0.00  0.00    -0.218 NA
BRANCH   5   4
ATOM      4  C   UNL     1      -3.388   3.874  25.487  0.00  0.00    +0.146 C 
BRANCH   4   3
ATOM      3  C   UNL     1      -3.992   3.415  25.809  0.00  0.00    +0.166 C 
BRANCH   3   2
ATOM      1  C   UNL     1      -5.315   2.884  25.712  0.00  0.00    +0.174 C 
ATOM      2  O   UNL     1      -4.654   3.226  25.356  0.00  0.00    -0.349 OA
ENDBRANCH   3   2
ENDBRANCH   4   3
ENDBRANCH   5   4
ENDBRANCH   6   5
ENDBRANCH  12   7
BRANCH  15  17
ATOM     17  C   UNL     1      -0.756   1.032  24.896  0.00  0.00    +0.138 C 
ATOM     18  C   UNL     1      -0.089   0.766  24.488  0.00  0.00    +0.027 C 
ATOM     19  C   UNL     1      -0.240  -0.001  24.226  0.00  0.00    +0.019 C 
ATOM     20  C   UNL     1      -1.000  -0.210  24.471  0.00  0.00    +0.073 C 
ATOM     21  N   UNL     1      -1.319   0.428  24.886  0.00  0.00    -0.263 NA
BRANCH  21  22
ATOM     22  C   UNL     1      -2.068   0.458  25.229  0.00  0.00    +0.099 C 
BRANCH  22  23
ATOM     23  C   UNL     1      -2.662  -0.050  24.968  0.00  0.00    -0.006 A 
ATOM     24  C   UNL     1      -2.877  -0.703  25.423  0.00  0.00    -0.002 A 
ATOM     25  C   UNL     1      -3.472  -1.212  25.161  0.00  0.00    +0.016 A 
ATOM     26  C   UNL     1      -3.852  -1.066  24.443  0.00  0.00    +0.073 A 
ATOM     31  C   UNL     1      -3.637  -0.413  23.988  0.00  0.00    +0.016 A 
ATOM     32  C   UNL     1      -3.042   0.095  24.249  0.00  0.00    -0.002 A 
BRANCH  26  27
ATOM     27  N   UNL     1      -4.447  -1.575  24.181  0.00  0.00    -0.179 NA
ATOM     28  C   UNL     1      -4.258  -2.344  23.946  0.00  0.00    +0.246 C 
ATOM     29  C   UNL     1      -3.476  -2.603  23.973  0.00  0.00    +0.097 C 
ATOM     30  O   UNL     1      -4.854  -2.851  23.685  0.00  0.00    -0.273 OA
ENDBRANCH  26  27
ENDBRANCH  22  23
ENDBRANCH  21  22
ENDBRANCH  15  17
TORSDOF 9
ENDMDL
MODEL 3
REMARK VINA RESULT:     -10.5      1.422      5.777
REMARK  Name = 
REMARK  9 active torsions:
REMARK  status: ('A' for Active; 'I' for Inactive)
REMARK    1  A    between atoms: O_2  and  C_3
REMARK    2  A    between atoms: C_3  and  C_4
REMARK    3  A    between atoms: C_4  and  N_5
REMARK    4  A    between atoms: N_5  and  C_6
REMARK    5  A    between atoms: C_7  and  C_12
REMARK    6  A    between atoms: C_15  and  C_17
REMARK    7  A    between atoms: N_21  and  C_22
REMARK    8  A    between atoms: C_22  and  C_23
REMARK    9  A    between atoms: C_26  and  N_27
REMARK                            x       y       z     vdW  Elec       q    Type
REMARK                         _______ _______ _______ _____ _____    ______ ____
ROOT
ATOM     12  C   UNL     1      -2.217  -1.299  24.763  0.00  0.00    +0.206 A 
ATOM     13  N   UNL     1      -1.868  -1.286  25.511  0.00  0.00    -0.056 NA
ATOM     14  O   UNL     1      -1.190  -0.818  25.468  0.00  0.00    -0.336 OA
ATOM     15  C   UNL     1      -1.119  -0.543  24.693  0.00  0.00    +0.251 A 
ATOM     16  N   UNL     1      -1.754  -0.840  24.258  0.00  0.00    -0.190 NA
ENDROOT
BRANCH  12   7
ATOM      6  C   UNL     1      -3.627  -1.299  24.536  0.00  0.00    +0.151 A 
ATOM      7  C   UNL     1      -2.908  -1.701  24.557  0.00  0.00    +0.072 A 
ATOM      8  C   UNL     1      -2.877  -2.504  24.373  0.00  0.00    +0.008 A 
ATOM      9  C   UNL     1      -3.568  -2.906  24.167  0.00  0.00    +0.021 A 
ATOM     10  C   UNL     1      -4.289  -2.504  24.146  0.00  0.00    +0.100 A 
ATOM     11  N   UNL     1      -4.318  -1.701  24.331  0.00  0.00    -0.228 NA
BRANCH   6   5
ATOM      5  N   UNL     1      -3.658  -0.495  24.721  0.00  0.00    -0.218 NA
BRANCH   5   4
ATOM      4  C   UNL     1      -4.356  -0.072  24.607  0.00  0.00    +0.146 C 
BRANCH   4   3
ATOM      3  C   UNL     1      -4.471   0.646  24.997  0.00  0.00    +0.166 C 
BRANCH   3   2
ATOM      1  C   UNL     1      -4.945   1.993  24.965  0.00  0.00    +0.174 C 
ATOM      2  O   UNL     1      -4.687   1.318  24.569  0.00  0.00    -0.349 OA
ENDBRANCH   3   2
ENDBRANCH   4   3
ENDBRANCH   5   4
ENDBRANCH   6   5
ENDBRANCH  12   7
BRANCH  15  17
ATOM     17  C   UNL     1      -0.519  -0.056  24.405  0.00  0.00    +0.138 C 
ATOM     18  C   UNL     1       0.077  -0.280  23.880  0.00  0.00    +0.027 C 
ATOM     19  C   UNL     1       0.555   0.377  23.740  0.00  0.00    +0.019 C 
ATOM     20  C   UNL     1       0.254   1.009  24.178  0.00  0.00    +0.073 C 
ATOM     21  N   UNL     1      -0.410   0.741  24.589  0.00  0.00    -0.263 NA
BRANCH  21  22
ATOM     22  C   UNL     1      -0.881   1.191  25.094  0.00  0.00    +0.099 C 
BRANCH  22  23
ATOM     23  C   UNL     1      -0.862   2.014  25.053  0.00  0.00    -0.006 A 
ATOM     24  C   UNL     1      -0.440   2.446  25.615  0.00  0.00    -0.002 A 
ATOM     25  C   UNL     1      -0.420   3.270  25.574  0.00  0.00    +0.016 A 
ATOM     26  C   UNL     1      -0.823   3.662  24.970  0.00  0.00    +0.073 A 
ATOM     31  C   UNL     1      -1.245   3.230  24.408  0.00  0.00    +0.016 A 
ATOM     32  C   UNL     1      -1.265   2.407  24.449  0.00  0.00    -0.002 A 
BRANCH  26  27
ATOM     27  N   UNL     1      -0.803   4.486  24.929  0.00  0.00    -0.179 NA
ATOM     28  C   UNL     1      -1.448   4.928  25.195  0.00  0.00    +0.246 C 
ATOM     29  C   UNL     1      -2.111   4.546  25.501  0.00  0.00    +0.097 C 
ATOM     30  O   UNL     1      -1.427   5.751  25.153  0.00  0.00    -0.273 OA
ENDBRANCH  26  27
ENDBRANCH  22  23
ENDBRANCH  21  22
ENDBRANCH  15  17
TORSDOF 9
ENDMDL
MODEL 4
REMARK VINA RESULT:     -10.4      1.369      4.868
REMARK  Name = 
REMARK  9 active torsions:
REMARK  status: ('A' for Active; 'I' for Inactive)
REMARK    1  A    between atoms: O_2  and  C_3
REMARK    2  A    between atoms: C_3  and  C_4
REMARK    3  A    between atoms: C_4  and  N_5
REMARK    4  A    between atoms: N_5  and  C_6
REMARK    5  A    between atoms: C_7  and  C_12
REMARK    6  A    between atoms: C_15  and  C_17
REMARK    7  A    between atoms: N_21  and  C_22
REMARK    8  A    between atoms: C_22  and  C_23
REMARK    9  A    between atoms: C_26  and  N_27
REMARK                            x       y       z     vdW  Elec       q    Type
REMARK                         _______ _______ _______ _____ _____    ______ ____
ROOT
ATOM     12  C   UNL     1      -3.760  -0.795  24.342  0.00  0.00    +0.206 A 
ATOM     13  N   UNL     1      -3.925  -0.481  23.597  0.00  0.00    -0.056 NA
ATOM     14  O   UNL     1      -4.274   0.259  23.704  0.00  0.00    -0.336 OA
ATOM     15  C   UNL     1      -4.326   0.402  24.515  0.00  0.00    +0.251 A 
ATOM     16  N   UNL     1      -4.008  -0.250  24.909  0.00  0.00    -0.190 NA
ENDROOT
BRANCH  12   7
ATOM      6  C   UNL     1      -2.592  -1.581  24.584  0.00  0.00    +0.151 A 
ATOM      7  C   UNL     1      -3.410  -1.527  24.493  0.00  0.00    +0.072 A 
ATOM      8  C   UNL     1      -3.878  -2.203  24.554  0.00  0.00    +0.008 A 
ATOM      9  C   UNL     1      -3.528  -2.935  24.705  0.00  0.00    +0.021 A 
ATOM     10  C   UNL     1      -2.709  -2.990  24.795  0.00  0.00    +0.100 A 
ATOM     11  N   UNL     1      -2.242  -2.312  24.735  0.00  0.00    -0.228 NA
BRANCH   6   5
ATOM      5  N   UNL     1      -2.124  -0.904  24.523  0.00  0.00    -0.218 NA
BRANCH   5   4
ATOM      4  C   UNL     1      -1.302  -0.971  24.503  0.00  0.00    +0.146 C 
BRANCH   4   3
ATOM      3  C   UNL     1      -0.833  -0.294  24.531  0.00  0.00    +0.166 C 
BRANCH   3   2
ATOM      1  C   UNL     1       0.057   0.567  23.817  0.00  0.00    +0.174 C 
ATOM      2  O   UNL     1      -0.225  -0.190  23.982  0.00  0.00    -0.349 OA
ENDBRANCH   3   2
ENDBRANCH   4   3
ENDBRANCH   5   4
ENDBRANCH   6   5
ENDBRANCH  12   7
BRANCH  15  17
ATOM     17  C   UNL     1      -4.639   1.077  24.869  0.00  0.00    +0.138 C 
ATOM     18  C   UNL     1      -5.335   1.114  25.312  0.00  0.00    +0.027 C 
ATOM     19  C   UNL     1      -5.439   1.893  25.560  0.00  0.00    +0.019 C 
ATOM     20  C   UNL     1      -4.807   2.339  25.271  0.00  0.00    +0.073 C 
ATOM     21  N   UNL     1      -4.313   1.834  24.845  0.00  0.00    -0.263 NA
BRANCH  21  22
ATOM     22  C   UNL     1      -3.615   2.050  24.461  0.00  0.00    +0.099 C 
BRANCH  22  23
ATOM     23  C   UNL     1      -3.226   2.745  24.672  0.00  0.00    -0.006 A 
ATOM     24  C   UNL     1      -2.675   2.739  25.286  0.00  0.00    -0.002 A 
ATOM     25  C   UNL     1      -2.285   3.435  25.498  0.00  0.00    +0.016 A 
ATOM     26  C   UNL     1      -2.446   4.136  25.095  0.00  0.00    +0.073 A 
ATOM     31  C   UNL     1      -2.996   4.142  24.481  0.00  0.00    +0.016 A 
ATOM     32  C   UNL     1      -3.386   3.447  24.269  0.00  0.00    -0.002 A 
BRANCH  26  27
ATOM     27  N   UNL     1      -2.056   4.832  25.306  0.00  0.00    -0.179 NA
ATOM     28  C   UNL     1      -1.283   4.967  25.048  0.00  0.00    +0.246 C 
ATOM     29  C   UNL     1      -0.902   4.407  24.579  0.00  0.00    +0.097 C 
ATOM     30  O   UNL     1      -0.894   5.663  25.260  0.00  0.00    -0.273 OA
ENDBRANCH  26  27
ENDBRANCH  22  23
ENDBRANCH  21  22
ENDBRANCH  15  17
TORSDOF 9
ENDMDL
MODEL 5
REMARK VINA RESULT:      -9.3      1.683      4.330
REMARK  Name = 
REMARK  9 active torsions:
REMARK  status: ('A' for Active; 'I' for Inactive)
REMARK    1  A    between atoms: O_2  and  C_3
REMARK    2  A    between atoms: C_3  and  C_4
REMARK    3  A    between atoms: C_4  and  N_5
REMARK    4  A    between atoms: N_5  and  C_6
REMARK    5  A    between atoms: C_7  and  C_12
REMARK    6  A    between atoms: C_15  and  C_17
REMARK    7  A    between atoms: N_21  and  C_22
REMARK    8  A    between atoms: C_22  and  C_23
REMARK    9  A    between atoms: C_26  and  N_27
REMARK                            x       y       z     vdW  Elec       q    Type
REMARK                         _______ _______ _______ _____ _____    ______ ____
ROOT
ATOM     12  C   UNL     1       0.096   1.926  24.682  0.00  0.00    +0.206 A 
ATOM     13  N   UNL     1       0.319   2.058  25.466  0.00  0.00    -0.056 NA
ATOM     14  O   UNL     1      -0.034   2.761  25.717  0.00  0.00    -0.336 OA
ATOM     15  C   UNL     1      -0.475   3.063  25.089  0.00  0.00    +0.251 A 
ATOM     16  N   UNL     1      -0.395   2.547  24.450  0.00  0.00    -0.190 NA
ENDROOT
BRANCH  12   7
ATOM      6  C   UNL     1      -0.081   0.569  24.272  0.00  0.00    +0.151 A 
ATOM      7  C   UNL     1       0.323   1.286  24.215  0.00  0.00    +0.072 A 
ATOM      8  C   UNL     1       0.955   1.363  23.689  0.00  0.00    +0.008 A 
ATOM      9  C   UNL     1       1.182   0.723  23.221  0.00  0.00    +0.021 A 
ATOM     10  C   UNL     1       0.778   0.005  23.279  0.00  0.00    +0.100 A 
ATOM     11  N   UNL     1       0.147  -0.071  23.804  0.00  0.00    -0.228 NA
BRANCH   6   5
ATOM      5  N   UNL     1      -0.712   0.492  24.797  0.00  0.00    -0.218 NA
BRANCH   5   4
ATOM      4  C   UNL     1      -1.169  -0.194  24.796  0.00  0.00    +0.146 C 
BRANCH   4   3
ATOM      3  C   UNL     1      -1.712  -0.330  25.402  0.00  0.00    +0.166 C 
BRANCH   3   2
ATOM      1  C   UNL     1      -2.938  -0.974  25.753  0.00  0.00    +0.174 C 
ATOM      2  O   UNL     1      -2.491  -0.531  25.220  0.00  0.00    -0.349 OA
ENDBRANCH   3   2
ENDBRANCH   4   3
ENDBRANCH   5   4
ENDBRANCH   6   5
ENDBRANCH  12   7
BRANCH  15  17
ATOM     17  C   UNL     1      -0.919   3.758  25.098  0.00  0.00    +0.138 C 
ATOM     18  C   UNL     1      -0.669   4.496  24.826  0.00  0.00    +0.027 C 
ATOM     19  C   UNL     1      -1.285   5.032  24.940  0.00  0.00    +0.019 C 
ATOM     20  C   UNL     1      -1.917   4.625  25.283  0.00  0.00    +0.073 C 
ATOM     21  N   UNL     1      -1.690   3.838  25.380  0.00  0.00    -0.263 NA
BRANCH  21  22
ATOM     22  C   UNL     1      -2.153   3.237  25.703  0.00  0.00    +0.099 C 
BRANCH  22  23
ATOM     23  C   UNL     1      -2.964   3.218  25.559  0.00  0.00    -0.006 A 
ATOM     24  C   UNL     1      -3.252   2.887  24.861  0.00  0.00    -0.002 A 
ATOM     25  C   UNL     1      -4.065   2.869  24.717  0.00  0.00    +0.016 A 
ATOM     26  C   UNL     1      -4.589   3.182  25.272  0.00  0.00    +0.073 A 
ATOM     31  C   UNL     1      -4.301   3.513  25.970  0.00  0.00    +0.016 A 
ATOM     32  C   UNL     1      -3.489   3.531  26.114  0.00  0.00    -0.002 A 
BRANCH  26  27
ATOM     27  N   UNL     1      -5.401   3.163  25.127  0.00  0.00    -0.179 NA
ATOM     28  C   UNL     1      -5.823   2.461  25.230  0.00  0.00    +0.246 C 
ATOM     29  C   UNL     1      -5.432   1.778  25.477  0.00  0.00    +0.097 C 
ATOM     30  O   UNL     1      -6.635   2.444  25.086  0.00  0.00    -0.273 OA
ENDBRANCH  26  27
ENDBRANCH  22  23
ENDBRANCH  21  22
ENDBRANCH  15  17
TORSDOF 9
ENDMDL
MODEL 6
REMARK VINA RESULT:      -9.0      1.649      4.175
REMARK  Name = 
REMARK  9 active torsions:
REMARK  status: ('A' for Active; 'I' for Inactive)
REMARK    1  A    between atoms: O_2  and  C_3
REMARK    2  A    between atoms: C_3  and  C_4
REMARK    3  A    between atoms: C_4  and  N_5
REMARK    4  A    between atoms: N_5  and  C_6
REMARK    5  A    between atoms: C_7  and  C_12
REMARK    6  A    between atoms: C_15  and  C_17
REMARK    7  A    between atoms: N_21  and  C_22
REMARK    8  A    between atoms: C_22  and  C_23
REMARK    9  A    between atoms: C_26  and  N_27
REMARK                            x       y       z     vdW  Elec       q    Type
REMARK                         _______ _______ _______ _____ _____    ______ ____
ROOT
ATOM     12  C   UNL     1      -0.811  -0.337  24.328  0.00  0.00    +0.206 A 
ATOM     13  N   UNL     1      -0.855  -0.635  25.097  0.00  0.00    -0.056 NA
ATOM     14  O   UNL     1      -1.644  -0.825  25.251  0.00  0.00    -0.336 OA
ATOM     15  C   UNL     1      -2.086  -0.645  24.578  0.00  0.00    +0.251 A 
ATOM     16  N   UNL     1      -1.571  -0.344  24.008  0.00  0.00    -0.190 NA
ENDROOT
BRANCH  12   7
ATOM      6  C   UNL     1       0.165   0.679  24.092  0.00  0.00    +0.151 A 
ATOM      7  C   UNL     1      -0.126  -0.079  23.947  0.00  0.00    +0.072 A 
ATOM      8  C   UNL     1       0.267  -0.580  23.422  0.00  0.00    +0.008 A 
ATOM      9  C   UNL     1       0.952  -0.322  23.042  0.00  0.00    +0.021 A 
ATOM     10  C   UNL     1       1.244   0.437  23.186  0.00  0.00    +0.100 A 
ATOM     11  N   UNL     1       0.850   0.937  23.711  0.00  0.00    -0.228 NA
BRANCH   6   5
ATOM      5  N   UNL     1      -0.228   1.179  24.617  0.00  0.00    -0.218 NA
BRANCH   5   4
ATOM      4  C   UNL     1       0.004   1.967  24.688  0.00  0.00    +0.146 C 
BRANCH   4   3
ATOM      3  C   UNL     1      -0.321   2.441  25.279  0.00  0.00    +0.166 C 
BRANCH   3   2
ATOM      1  C   UNL     1      -1.139   3.547  25.664  0.00  0.00    +0.174 C 
ATOM      2  O   UNL     1      -0.750   3.116  25.079  0.00  0.00    -0.349 OA
ENDBRANCH   3   2
ENDBRANCH   4   3
ENDBRANCH   5   4
ENDBRANCH   6   5
ENDBRANCH  12   7
BRANCH  15  17
ATOM     17  C   UNL     1      -2.899  -0.748  24.490  0.00  0.00    +0.138 C 
ATOM     18  C   UNL     1      -3.291  -1.470  24.410  0.00  0.00    +0.027 C 
ATOM     19  C   UNL     1      -4.098  -1.316  24.338  0.00  0.00    +0.019 C 
ATOM     20  C   UNL     1      -4.205  -0.498  24.373  0.00  0.00    +0.073 C 
ATOM     21  N   UNL     1      -3.464  -0.147  24.467  0.00  0.00    -0.263 NA
BRANCH  21  22
ATOM     22  C   UNL     1      -3.316   0.662  24.528  0.00  0.00    +0.099 C 
BRANCH  22  23
ATOM     23  C   UNL     1      -3.932   1.183  24.696  0.00  0.00    -0.006 A 
ATOM     24  C   UNL     1      -4.333   1.130  25.415  0.00  0.00    -0.002 A 
ATOM     25  C   UNL     1      -4.950   1.652  25.583  0.00  0.00    +0.016 A 
ATOM     26  C   UNL     1      -5.165   2.227  25.031  0.00  0.00    +0.073 A 
ATOM     31  C   UNL     1      -4.763   2.280  24.313  0.00  0.00    +0.016 A 
ATOM     32  C   UNL     1      -4.147   1.759  24.145  0.00  0.00    -0.002 A 
BRANCH  26  27
ATOM     27  N   UNL     1      -5.781   2.749  25.200  0.00  0.00    -0.179 NA
ATOM     28  C   UNL     1      -5.619   3.483  25.542  0.00  0.00    +0.246 C 
ATOM     29  C   UNL     1      -4.841   3.694  25.715  0.00  0.00    +0.097 C 
ATOM     30  O   UNL     1      -6.236   4.004  25.709  0.00  0.00    -0.273 OA
ENDBRANCH  26  27
ENDBRANCH  22  23
ENDBRANCH  21  22
ENDBRANCH  15  17
TORSDOF 9
ENDMDL
MODEL 7
REMARK VINA RESULT:      -8.8      1.511      3.500
REMARK  Name = 
REMARK  9 active torsions:
REMARK  status: ('A' for Active; 'I' for Inactive)
REMARK    1  A    between atoms: O_2  and  C_3
REMARK    2  A    between atoms: C_3  and  C_4
REMARK    3  A    between atoms: C_4  and  N_5
REMARK    4  A    between atoms: N_5  and  C_6
REMARK    5  A    between atoms: C_7  and  C_12
REMARK    6  A    between atoms: C_15  and  C_17
REMARK    7  A    between atoms: N_21  and  C_22
REMARK    8  A    between atoms: C_22  and  C_23
REMARK    9  A    between atoms: C_26  and  N_27
REMARK                            x       y       z     vdW  Elec       q    Type
REMARK                         _______ _______ _______ _____ _____    ______ ____
ROOT
ATOM     12  C   UNL     1      -3.535   3.085  24.910  0.00  0.00    +0.206 A 
ATOM     13  N   UNL     1      -3.247   3.274  24.160  0.00  0.00    -0.056 NA
ATOM     14  O   UNL     1      -2.427   3.176  24.170  0.00  0.00    -0.336 OA
ATOM     15  C   UNL     1      -2.209   2.927  24.925  0.00  0.00    +0.251 A 
ATOM     16  N   UNL     1      -2.894   2.870  25.383  0.00  0.00    -0.190 NA
ENDROOT
BRANCH  12   7
ATOM      6  C   UNL     1      -4.795   2.433  25.076  0.00  0.00    +0.151 A 
ATOM      7  C   UNL     1      -4.325   3.107  25.145  0.00  0.00    +0.072 A 
ATOM      8  C   UNL     1      -4.645   3.804  25.450  0.00  0.00    +0.008 A 
ATOM      9  C   UNL     1      -5.436   3.826  25.685  0.00  0.00    +0.021 A 
ATOM     10  C   UNL     1      -5.906   3.151  25.616  0.00  0.00    +0.100 A 
ATOM     11  N   UNL     1      -5.585   2.455  25.311  0.00  0.00    -0.228 NA
BRANCH   6   5
ATOM      5  N   UNL     1      -4.475   1.736  24.771  0.00  0.00    -0.218 NA
BRANCH   5   4
ATOM      4  C   UNL     1      -4.892   1.028  24.835  0.00  0.00    +0.146 C 
BRANCH   4   3
ATOM      3  C   UNL     1      -4.693   0.387  24.355  0.00  0.00    +0.166 C 
BRANCH   3   2
ATOM      1  C   UNL     1      -4.458  -1.015  24.213  0.00  0.00    +0.174 C 
ATOM      2  O   UNL     1      -4.539  -0.350  24.693  0.00  0.00    -0.349 OA
ENDBRANCH   3   2
ENDBRANCH   4   3
ENDBRANCH   5   4
ENDBRANCH   6   5
ENDBRANCH  12   7
BRANCH  15  17
ATOM     17  C   UNL     1      -1.442   2.762  25.179  0.00  0.00    +0.138 C 
ATOM     18  C   UNL     1      -0.974   3.248  25.654  0.00  0.00    +0.027 C 
ATOM     19  C   UNL     1      -0.250   2.870  25.772  0.00  0.00    +0.019 C 
ATOM     20  C   UNL     1      -0.271   2.150  25.369  0.00  0.00    +0.073 C 
ATOM     21  N   UNL     1      -1.008   2.083  25.003  0.00  0.00    -0.263 NA
BRANCH  21  22
ATOM     22  C   UNL     1      -1.264   1.449  24.542  0.00  0.00    +0.099 C 
BRANCH  22  23
ATOM     23  C   UNL     1      -1.020   0.683  24.722  0.00  0.00    -0.006 A 
ATOM     24  C   UNL     1      -1.265   0.326  25.425  0.00  0.00    -0.002 A 
ATOM     25  C   UNL     1      -1.020  -0.441  25.605  0.00  0.00    +0.016 A 
ATOM     26  C   UNL     1      -0.531  -0.852  25.082  0.00  0.00    +0.073 A 
ATOM     31  C   UNL     1      -0.287  -0.495  24.380  0.00  0.00    +0.016 A 
ATOM     32  C   UNL     1      -0.531   0.272  24.200  0.00  0.00    -0.002 A 
BRANCH  26  27
ATOM     27  N   UNL     1      -0.287  -1.619  25.263  0.00  0.00    -0.179 NA
ATOM     28  C   UNL     1      -0.754  -2.264  25.042  0.00  0.00    +0.246 C 
ATOM     29  C   UNL     1      -1.463  -2.140  24.641  0.00  0.00    +0.097 C 
ATOM     30  O   UNL     1      -0.509  -3.030  25.223  0.00  0.00    -0.273 OA
ENDBRANCH  26  27
ENDBRANCH  22  23
ENDBRANCH  21  22
ENDBRANCH  15  17
TORSDOF 9
ENDMDL
MODEL 8
REMARK VINA RESULT:      -8.5      1.640      5.016
REMARK  Name = 
REMARK  9 active torsions:
REMARK  status: ('A' for Active; 'I' for Inactive)
REMARK    1  A    between atoms: O_2  and  C_3
REMARK    2  A    between atoms: C_3  and  C_4
REMARK    3  A    between atoms: C_4  and  N_5
REMARK    4  A    between atoms: N_5  and  C_6
REMARK    5  A    between atoms: C_7  and  C_12
REMARK    6  A    between atoms: C_15  and  C_17
REMARK    7  A    between atoms: N_21  and  C_22
REMARK    8  A    between atoms: C_22  and  C_23
REMARK    9  A    between atoms: C_26  and  N_27
REMARK                            x       y       z     vdW  Elec       q    Type
REMARK                         _______ _______ _______ _____ _____    ______ ____
ROOT
ATOM     12  C   UNL     1      -0.760  -0.043  24.606  0.00  0.00    +0.206 A 
ATOM     13  N   UNL     1      -0.596   0.273  23.861  0.00  0.00    -0.056 NA
ATOM     14  O   UNL     1      -0.570   1.095  23.933  0.00  0.00    -0.336 OA
ATOM     15  C   UNL     1      -0.718   1.286  24.722  0.00  0.00    +0.251 A 
ATOM     16  N   UNL     1      -0.835   0.583  25.137  0.00  0.00    -0.190 NA
ENDROOT
BRANCH  12   7
ATOM      6  C   UNL     1      -1.573  -1.210  24.739  0.00  0.00    +0.151 A 
ATOM      7  C   UNL     1      -0.836  -0.845  24.786  0.00  0.00    +0.072 A 
ATOM      8  C   UNL     1      -0.172  -1.280  25.013  0.00  0.00    +0.008 A 
ATOM      9  C   UNL     1      -0.248  -2.081  25.194  0.00  0.00    +0.021 A 
ATOM     10  C   UNL     1      -0.986  -2.448  25.146  0.00  0.00    +0.100 A 
ATOM     11  N   UNL     1      -1.649  -2.011  24.919  0.00  0.00    -0.228 NA
BRANCH   6   5
ATOM      5  N   UNL     1      -2.236  -0.775  24.511  0.00  0.00    -0.218 NA
BRANCH   5   4
ATOM      4  C   UNL     1      -2.991  -1.091  24.609  0.00  0.00    +0.146 C 
BRANCH   4   3
ATOM      3  C   UNL     1      -3.639  -0.731  24.248  0.00  0.00    +0.166 C 
BRANCH   3   2
ATOM      1  C   UNL     1      -4.947  -0.162  24.339  0.00  0.00    +0.174 C 
ATOM      2  O   UNL     1      -4.277  -0.475  24.704  0.00  0.00    -0.349 OA
ENDBRANCH   3   2
ENDBRANCH   4   3
ENDBRANCH   5   4
ENDBRANCH   6   5
ENDBRANCH  12   7
BRANCH  15  17
ATOM     17  C   UNL     1      -0.744   2.047  25.040  0.00  0.00    +0.138 C 
ATOM     18  C   UNL     1      -0.143   2.413  25.472  0.00  0.00    +0.027 C 
ATOM     19  C   UNL     1      -0.402   3.167  25.681  0.00  0.00    +0.019 C 
ATOM     20  C   UNL     1      -1.164   3.268  25.379  0.00  0.00    +0.073 C 
ATOM     21  N   UNL     1      -1.375   2.576  24.982  0.00  0.00    -0.263 NA
BRANCH  21  22
ATOM     22  C   UNL     1      -2.090   2.437  24.596  0.00  0.00    +0.099 C 
BRANCH  22  23
ATOM     23  C   UNL     1      -2.761   2.869  24.803  0.00  0.00    -0.006 A 
ATOM     24  C   UNL     1      -3.076   2.805  25.562  0.00  0.00    -0.002 A 
ATOM     25  C   UNL     1      -3.748   3.238  25.768  0.00  0.00    +0.016 A 
ATOM     26  C   UNL     1      -4.104   3.736  25.215  0.00  0.00    +0.073 A 
ATOM     31  C   UNL     1      -3.788   3.800  24.455  0.00  0.00    +0.016 A 
ATOM     32  C   UNL     1      -3.117   3.367  24.249  0.00  0.00    -0.002 A 
BRANCH  26  27
ATOM     27  N   UNL     1      -4.775   4.169  25.421  0.00  0.00    -0.179 NA
ATOM     28  C   UNL     1      -5.495   3.783  25.538  0.00  0.00    +0.246 C 
ATOM     29  C   UNL     1      -5.544   2.964  25.448  0.00  0.00    +0.097 C 
ATOM     30  O   UNL     1      -6.166   4.216  25.744  0.00  0.00    -0.273 OA
ENDBRANCH  26  27
ENDBRANCH  22  23
ENDBRANCH  21  22
ENDBRANCH  15  17
TORSDOF 9
ENDMDL
MODEL 9
REMARK VINA RESULT:      -8.4      1.546      3.824
REMARK  Name = 
REMARK  9 active torsions:
REMARK  status: ('A' for Active; 'I' for Inactive)
REMARK    1  A    between atoms: O_2  and  C_3
REMARK    2  A    between atoms: C_3  and  C_4
REMARK    3  A    between atoms: C_4  and  N_5
REMARK    4  A    between atoms: N_5  and  C_6
REMARK    5  A    between atoms: C_7  and  C_12
REMARK    6  A    between atoms: C_15  and  C_17
REMARK    7  A    between atoms: N_21  and  C_22
REMARK    8  A    between atoms: C_22  and  C_23
REMARK    9  A    between atoms: C_26  and  N_27
REMARK                            x       y       z     vdW  Elec       q    Type
REMARK                         _______ _______ _______ _____ _____    ______ ____
ROOT
ATOM     12  C   UNL     1      -4.299   1.684  24.724  0.00  0.00    +0.206 A 
ATOM     13  N   UNL     1      -4.121   1.646  23.919  0.00  0.00    -0.056 NA
ATOM     14  O   UNL     1      -3.727   0.934  23.779  0.00  0.00    -0.336 OA
ATOM     15  C   UNL     1      -3.663   0.532  24.497  0.00  0.00    +0.251 A 
ATOM     16  N   UNL     1      -4.017   0.996  25.081  0.00  0.00    -0.190 NA
ENDROOT
BRANCH  12   7
ATOM      6  C   UNL     1      -4.287   2.996  25.289  0.00  0.00    +0.151 A 
ATOM      7  C   UNL     1      -4.692   2.302  25.105  0.00  0.00    +0.072 A 
ATOM      8  C   UNL     1      -5.490   2.224  25.301  0.00  0.00    +0.008 A 
ATOM      9  C   UNL     1      -5.882   2.842  25.682  0.00  0.00    +0.021 A 
ATOM     10  C   UNL     1      -5.477   3.537  25.867  0.00  0.00    +0.100 A 
ATOM     11  N   UNL     1      -4.680   3.614  25.670  0.00  0.00    -0.228 NA
BRANCH   6   5
ATOM      5  N   UNL     1      -3.489   3.074  25.093  0.00  0.00    -0.218 NA
BRANCH   5   4
ATOM      4  C   UNL     1      -3.081   3.762  25.290  0.00  0.00    +0.146 C 
BRANCH   4   3
ATOM      3  C   UNL     1      -2.272   3.819  25.140  0.00  0.00    +0.166 C 
BRANCH   3   2
ATOM      1  C   UNL     1      -1.087   4.613  25.056  0.00  0.00    +0.174 C 
ATOM      2  O   UNL     1      -1.872   4.525  25.291  0.00  0.00    -0.349 OA
ENDBRANCH   3   2
ENDBRANCH   4   3
ENDBRANCH   5   4
ENDBRANCH   6   5
ENDBRANCH  12   7
BRANCH  15  17
ATOM     17  C   UNL     1      -3.308  -0.203  24.611  0.00  0.00    +0.138 C 
ATOM     18  C   UNL     1      -3.699  -0.928  24.660  0.00  0.00    +0.027 C 
ATOM     19  C   UNL     1      -3.133  -1.517  24.775  0.00  0.00    +0.019 C 
ATOM     20  C   UNL     1      -2.391  -1.156  24.798  0.00  0.00    +0.073 C 
ATOM     21  N   UNL     1      -2.500  -0.344  24.696  0.00  0.00    -0.263 NA
BRANCH  21  22
ATOM     22  C   UNL     1      -1.904   0.227  24.682  0.00  0.00    +0.099 C 
BRANCH  22  23
ATOM     23  C   UNL     1      -1.191   0.070  24.300  0.00  0.00    -0.006 A 
ATOM     24  C   UNL     1      -0.645  -0.447  24.639  0.00  0.00    -0.002 A 
ATOM     25  C   UNL     1       0.069  -0.605  24.256  0.00  0.00    +0.016 A 
ATOM     26  C   UNL     1       0.236  -0.245  23.533  0.00  0.00    +0.073 A 
ATOM     31  C   UNL     1      -0.309   0.272  23.193  0.00  0.00    +0.016 A 
ATOM     32  C   UNL     1      -1.023   0.429  23.576  0.00  0.00    -0.002 A 
BRANCH  26  27
ATOM     27  N   UNL     1       0.950  -0.402  23.150  0.00  0.00    -0.179 NA
ATOM     28  C   UNL     1       1.534   0.180  23.110  0.00  0.00    +0.246 C 
ATOM     29  C   UNL     1       1.404   0.919  23.452  0.00  0.00    +0.097 C 
ATOM     30  O   UNL     1       2.247   0.022  22.727  0.00  0.00    -0.273 OA
ENDBRANCH  26  27
ENDBRANCH  22  23
ENDBRANCH  21  22
ENDBRANCH  15  17
TORSDOF 9
ENDMDL
