MODEL 1
REMARK VINA RESULT:     -12.6      0.000      0.000
REMARK  Name = 
REMARK  9 active torsions:
REMARK  status: ('A' for Active; 'I' for Inactive)
REMARK    1  A    between atoms: C_2  and  C_5
REMARK    2  A    between atoms: C_5  and  C_6
REMARK    3  A    between atoms: C_11  and  N_12
REMARK    4  A    between atoms: N_15  and  C_16
REMARK    5  A    between atoms: C_22  and  C_23
REMARK    6  A    between atoms: N_25  and  C_26
REMARK    7  A    between atoms: C_26  and  C_27
REMARK    8  A    between atoms: C_26  and  C_37
REMARK    9  A    between atoms: C_27  and  C_28
REMARK                            x       y       z     vdW  Elec       q    Type
REMARK                         _______ _______ _______ _____ _____    ______ ____
ROOT
ATOM      6  C   UNL     1      -0.753   2.853  25.396  0.00  0.00    +0.226 C 
ATOM      7  O   UNL     1      -0.252   3.131  25.991  0.00  0.00    -0.275 OA
ATOM      8  N   UNL     1      -0.828   2.042  25.266  0.00  0.00    -0.272 N 
ATOM      9  C   UNL     1      -0.440   1.446  25.683  0.00  0.00    +0.096 C 
ATOM     10  C   UNL     1      -0.677   0.720  25.370  0.00  0.00    +0.045 C 
ATOM     11  C   UNL     1      -1.211   0.868  24.760  0.00  0.00    +0.126 C 
ATOM     22  C   UNL     1      -1.305   1.685  24.695  0.00  0.00    +0.174 C 
ENDROOT
BRANCH  11  12
ATOM     12  N   UNL     1      -1.586   0.298  24.295  0.00  0.00    -0.187 NA
ATOM     13  C   UNL     1      -1.862  -0.398  24.640  0.00  0.00    +0.339 C 
ATOM     14  O   UNL     1      -1.763  -0.527  25.449  0.00  0.00    -0.249 OA
ATOM     15  N   UNL     1      -2.237  -0.967  24.175  0.00  0.00    -0.189 NA
BRANCH  15  16
ATOM     16  C   UNL     1      -2.513  -1.665  24.519  0.00  0.00    +0.097 C 
ATOM     17  C   UNL     1      -3.249  -1.677  24.893  0.00  0.00    +0.022 C 
ATOM     18  C   UNL     1      -3.525  -2.375  25.237  0.00  0.00    +0.002 C 
ATOM     19  C   UNL     1      -3.066  -3.059  25.208  0.00  0.00    +0.000 C 
ATOM     20  C   UNL     1      -2.330  -3.046  24.835  0.00  0.00    +0.002 C 
ATOM     21  C   UNL     1      -2.054  -2.350  24.491  0.00  0.00    +0.022 C 
ENDBRANCH  15  16
ENDBRANCH  11  12
BRANCH  22  23
ATOM     23  C   UNL     1      -1.790   2.076  24.155  0.00  0.00    +0.262 C 
ATOM     24  O   UNL     1      -1.473   2.654  23.659  0.00  0.00    -0.271 OA
ATOM     25  N   UNL     1      -2.593   1.889  24.110  0.00  0.00    -0.196 NA
BRANCH  25  26
ATOM     26  C   UNL     1      -3.078   2.280  23.570  0.00  0.00    +0.179 C 
BRANCH  26  37
ATOM     37  C   UNL     1      -2.950   2.188  22.759  0.00  0.00    +0.281 C 
ATOM     38  N   UNL     1      -2.877   2.850  22.275  0.00  0.00    -0.086 NA
ATOM     39  O   UNL     1      -2.895   1.430  22.435  0.00  0.00    -0.270 OA
ENDBRANCH  26  37
BRANCH  26  27
ATOM     27  C   UNL     1      -3.690   2.763  23.839  0.00  0.00    +0.059 C 
BRANCH  27  28
ATOM     28  C   UNL     1      -4.332   2.433  24.236  0.00  0.00    +0.001 A 
ATOM     29  C   UNL     1      -4.603   1.657  24.160  0.00  0.00    +0.095 A 
ATOM     30  N   UNL     1      -5.255   1.565  24.656  0.00  0.00    -0.244 NA
ATOM     31  C   UNL     1      -5.387   2.282  25.039  0.00  0.00    +0.081 A 
ATOM     32  C   UNL     1      -4.817   2.819  24.780  0.00  0.00    +0.015 A 
ATOM     33  C   UNL     1      -4.814   3.591  25.073  0.00  0.00    +0.001 A 
ATOM     34  C   UNL     1      -5.379   3.825  25.624  0.00  0.00    +0.000 A 
ATOM     35  C   UNL     1      -5.950   3.289  25.884  0.00  0.00    +0.002 A 
ATOM     36  C   UNL     1      -5.954   2.517  25.592  0.00  0.00    +0.019 A 
ENDBRANCH  27  28
ENDBRANCH  26  27
ENDBRANCH  25  26
ENDBRANCH  22  23
BRANCH   6   5
ATOM      5  C   UNL     1      -1.178   3.387  24.933  0.00  0.00    +0.085 C 
BRANCH   5   2
ATOM      1  C   UNL     1      -1.002   5.010  25.172  0.00  0.00    +0.000 C 
ATOM      2  C   UNL     1      -1.090   4.199  25.053  0.00  0.00    +0.009 C 
ATOM      3  C   UNL     1      -0.533   4.227  24.446  0.00  0.00    +0.000 C 
ATOM      4  C   UNL     1      -1.647   4.170  25.660  0.00  0.00    +0.000 C 
ENDBRANCH   5   2
ENDBRANCH   6   5
TORSDOF 9
ENDMDL
MODEL 2
REMARK VINA RESULT:     -11.3      1.309      3.376
REMARK  Name = 
REMARK  9 active torsions:
REMARK  status: ('A' for Active; 'I' for Inactive)
REMARK    1  A    between atoms: C_2  and  C_5
REMARK    2  A    between atoms: C_5  and  C_6
REMARK    3  A    between atoms: C_11  and  N_12
REMARK    4  A    between atoms: N_15  and  C_16
REMARK    5  A    between atoms: C_22  and  C_23
REMARK    6  A    between atoms: N_25  and  C_26
REMARK    7  A    between atoms: C_26  and  C_27
REMARK    8  A    between atoms: C_26  and  C_37
REMARK    9  A    between atoms: C_27  and  C_28
REMARK                            x       y       z     vdW  Elec       q    Type
REMARK                         _______ _______ _______ _____ _____    ______ ____
ROOT
ATOM      6  C   UNL     1      -5.015   2.694  25.579  0.00  0.00    +0.226 C 
ATOM      7  O   UNL     1      -5.511   2.920  26.200  0.00  0.00    -0.275 OA
ATOM      8  N   UNL     1      -4.978   1.903  25.349  0.00  0.00    -0.272 N 
ATOM      9  C   UNL     1      -5.402   1.280  25.684  0.00  0.00    +0.096 C 
ATOM     10  C   UNL     1      -5.196   0.588  25.284  0.00  0.00    +0.045 C 
ATOM     11  C   UNL     1      -4.646   0.783  24.702  0.00  0.00    +0.126 C 
ATOM     22  C   UNL     1      -4.511   1.597  24.741  0.00  0.00    +0.174 C 
ENDROOT
BRANCH  11  12
ATOM     12  N   UNL     1      -4.292   0.258  24.173  0.00  0.00    -0.187 NA
ATOM     13  C   UNL     1      -4.123  -0.513  24.409  0.00  0.00    +0.339 C 
ATOM     14  O   UNL     1      -4.306  -0.761  25.174  0.00  0.00    -0.249 OA
ATOM     15  N   UNL     1      -3.769  -1.038  23.880  0.00  0.00    -0.189 NA
BRANCH  15  16
ATOM     16  C   UNL     1      -3.599  -1.810  24.116  0.00  0.00    +0.097 C 
ATOM     17  C   UNL     1      -2.898  -1.973  24.519  0.00  0.00    +0.022 C 
ATOM     18  C   UNL     1      -2.728  -2.746  24.755  0.00  0.00    +0.002 C 
ATOM     19  C   UNL     1      -3.259  -3.355  24.588  0.00  0.00    +0.000 C 
ATOM     20  C   UNL     1      -3.960  -3.191  24.185  0.00  0.00    +0.002 C 
ATOM     21  C   UNL     1      -4.130  -2.419  23.949  0.00  0.00    +0.022 C 
ENDBRANCH  15  16
ENDBRANCH  11  12
BRANCH  22  23
ATOM     23  C   UNL     1      -3.999   2.027  24.259  0.00  0.00    +0.262 C 
ATOM     24  O   UNL     1      -4.272   2.699  23.865  0.00  0.00    -0.271 OA
ATOM     25  N   UNL     1      -3.215   1.786  24.170  0.00  0.00    -0.196 NA
BRANCH  25  26
ATOM     26  C   UNL     1      -2.704   2.217  23.687  0.00  0.00    +0.179 C 
BRANCH  26  37
ATOM     37  C   UNL     1      -2.819   2.227  22.870  0.00  0.00    +0.281 C 
ATOM     38  N   UNL     1      -2.984   2.936  22.485  0.00  0.00    -0.086 NA
ATOM     39  O   UNL     1      -2.768   1.524  22.439  0.00  0.00    -0.270 OA
ENDBRANCH  26  37
BRANCH  26  27
ATOM     27  C   UNL     1      -2.077   2.637  24.021  0.00  0.00    +0.059 C 
BRANCH  27  28
ATOM     28  C   UNL     1      -1.417   2.235  24.309  0.00  0.00    +0.001 A 
ATOM     29  C   UNL     1      -1.115   1.526  24.016  0.00  0.00    +0.095 A 
ATOM     30  N   UNL     1      -0.455   1.324  24.467  0.00  0.00    -0.244 NA
ATOM     31  C   UNL     1      -0.349   1.909  25.039  0.00  0.00    +0.081 A 
ATOM     32  C   UNL     1      -0.944   2.472  24.941  0.00  0.00    +0.015 A 
ATOM     33  C   UNL     1      -0.976   3.127  25.441  0.00  0.00    +0.001 A 
ATOM     34  C   UNL     1      -0.415   3.220  26.038  0.00  0.00    +0.000 A 
ATOM     35  C   UNL     1       0.180   2.656  26.136  0.00  0.00    +0.002 A 
ATOM     36  C   UNL     1       0.214   2.001  25.636  0.00  0.00    +0.019 A 
ENDBRANCH  27  28
ENDBRANCH  26  27
ENDBRANCH  25  26
ENDBRANCH  22  23
BRANCH   6   5
ATOM      5  C   UNL     1      -4.558   3.259  25.191  0.00  0.00    +0.085 C 
BRANCH   5   2
ATOM      1  C   UNL     1      -4.609   4.837  25.674  0.00  0.00    +0.000 C 
ATOM      2  C   UNL     1      -4.583   4.048  25.432  0.00  0.00    +0.009 C 
ATOM      3  C   UNL     1      -5.123   4.214  24.832  0.00  0.00    +0.000 C 
ATOM      4  C   UNL     1      -4.043   3.882  26.033  0.00  0.00    +0.000 C 
ENDBRANCH   5   2
ENDBRANCH   6   5
TORSDOF 9
ENDMDL
MODEL 3
REMARK VINA RESULT:     -10.8      2.074      3.900
REMARK  Name = 
REMARK  9 active torsions:
REMARK  status: ('A' for Active; 'I' for Inactive)
REMARK    1  A    between atoms: C_2  and  C_5
REMARK    2  A    between atoms: C_5  and  C_6
REMARK    3  A    between atoms: C_11  and  N_12
REMARK    4  A    between atoms: N_15  and  C_16
REMARK    5  A    between atoms: C_22  and  C_23
REMARK    6  A    between atoms: N_25  and  C_26
REMARK    7  A    between atoms: C_26  and  C_27
REMARK    8  A    between atoms: C_26  and  C_37
REMARK    9  A    between atoms: C_27  and  C_28
REMARK                            x       y       z     vdW  Elec       q    Type
REMARK                         _______ _______ _______ _____ _____    ______ ____
ROOT
ATOM      6  C   UNL     1      -2.504  -1.169  24.816  0.00  0.00    +0.226 C 
ATOM      7  O   UNL     1      -2.656  -1.857  25.247  0.00  0.00    -0.275 OA
ATOM      8  N   UNL     1      -1.728  -0.912  24.709  0.00  0.00    -0.272 N 
ATOM      9  C   UNL     1      -1.050  -1.284  24.998  0.00  0.00    +0.096 C 
ATOM     10  C   UNL     1      -0.396  -0.840  24.761  0.00  0.00    +0.045 C 
ATOM     11  C   UNL     1      -0.669  -0.194  24.326  0.00  0.00    +0.126 C 
ATOM     22  C   UNL     1      -1.493  -0.239  24.294  0.00  0.00    +0.174 C 
ENDROOT
BRANCH  11  12
ATOM     12  N   UNL     1      -0.202   0.393  23.984  0.00  0.00    -0.187 NA
ATOM     13  C   UNL     1       0.532   0.200  23.661  0.00  0.00    +0.339 C 
ATOM     14  O   UNL     1       0.800  -0.581  23.681  0.00  0.00    -0.249 OA
ATOM     15  N   UNL     1       1.000   0.787  23.319  0.00  0.00    -0.189 NA
BRANCH  15  16
ATOM     16  C   UNL     1       1.734   0.594  22.996  0.00  0.00    +0.097 C 
ATOM     17  C   UNL     1       2.423   0.910  23.321  0.00  0.00    +0.022 C 
ATOM     18  C   UNL     1       3.158   0.717  22.998  0.00  0.00    +0.002 C 
ATOM     19  C   UNL     1       3.203   0.208  22.351  0.00  0.00    +0.000 C 
ATOM     20  C   UNL     1       2.513  -0.108  22.026  0.00  0.00    +0.002 C 
ATOM     21  C   UNL     1       1.780   0.084  22.348  0.00  0.00    +0.022 C 
ENDBRANCH  15  16
ENDBRANCH  11  12
BRANCH  22  23
ATOM     23  C   UNL     1      -1.992   0.295  23.914  0.00  0.00    +0.262 C 
ATOM     24  O   UNL     1      -2.494   0.035  23.313  0.00  0.00    -0.271 OA
ATOM     25  N   UNL     1      -1.991   1.091  24.133  0.00  0.00    -0.196 NA
BRANCH  25  26
ATOM     26  C   UNL     1      -2.490   1.625  23.753  0.00  0.00    +0.179 C 
BRANCH  26  37
ATOM     37  C   UNL     1      -2.264   1.960  23.033  0.00  0.00    +0.281 C 
ATOM     38  N   UNL     1      -2.711   1.822  22.355  0.00  0.00    -0.086 NA
ATOM     39  O   UNL     1      -1.589   2.433  22.994  0.00  0.00    -0.270 OA
ENDBRANCH  26  37
BRANCH  26  27
ATOM     27  C   UNL     1      -3.216   1.825  24.091  0.00  0.00    +0.059 C 
BRANCH  27  28
ATOM     28  C   UNL     1      -3.262   2.446  24.631  0.00  0.00    +0.001 A 
ATOM     29  C   UNL     1      -2.624   2.865  24.946  0.00  0.00    +0.095 A 
ATOM     30  N   UNL     1      -2.922   3.436  25.460  0.00  0.00    -0.244 NA
ATOM     31  C   UNL     1      -3.744   3.371  25.464  0.00  0.00    +0.081 A 
ATOM     32  C   UNL     1      -3.954   2.760  24.952  0.00  0.00    +0.015 A 
ATOM     33  C   UNL     1      -4.749   2.567  24.844  0.00  0.00    +0.001 A 
ATOM     34  C   UNL     1      -5.334   2.986  25.248  0.00  0.00    +0.000 A 
ATOM     35  C   UNL     1      -5.123   3.597  25.760  0.00  0.00    +0.002 A 
ATOM     36  C   UNL     1      -4.329   3.790  25.869  0.00  0.00    +0.019 A 
ENDBRANCH  27  28
ENDBRANCH  26  27
ENDBRANCH  25  26
ENDBRANCH  22  23
BRANCH   6   5
ATOM      5  C   UNL     1      -3.129  -0.739  24.494  0.00  0.00    +0.085 C 
BRANCH   5   2
ATOM      1  C   UNL     1      -4.673  -1.310  24.613  0.00  0.00    +0.000 C 
ATOM      2  C   UNL     1      -3.901  -1.025  24.554  0.00  0.00    +0.009 C 
ATOM      3  C   UNL     1      -3.938  -0.760  25.333  0.00  0.00    +0.000 C 
ATOM      4  C   UNL     1      -3.864  -1.289  23.773  0.00  0.00    +0.000 C 
ENDBRANCH   5   2
ENDBRANCH   6   5
TORSDOF 9
ENDMDL
MODEL 4
REMARK VINA RESULT:     -10.3      1.378      4.384
REMARK  Name = 
REMARK  9 active torsions:
REMARK  status: ('A' for Active; 'I' for Inactive)
REMARK    1  A    between atoms: C_2  and  C_5
REMARK    2  A    between atoms: C_5  and  C_6
REMARK    3  A    between atoms: C_11  and  N_12
REMARK    4  A    between atoms: N_15  and  C_16
REMARK    5  A    between atoms: C_22  and  C_23
REMARK    6  A    between atoms: N_25  and  C_26
REMARK    7  A    between atoms: C_26  and  C_27
REMARK    8  A    between atoms: C_26  and  C_37
REMARK    9  A    between atoms: C_27  and  C_28
REMARK                            x       y       z     vdW  Elec       q    Type
REMARK                         _______ _______ _______ _____ _____    ______ ____
ROOT
ATOM      6  C   UNL     1      -1.954  -1.721  24.795  0.00  0.00    +0.226 C 
ATOM      7  O   UNL     1      -2.069  -2.538  24.829  0.00  0.00    -0.275 OA
ATOM      8  N   UNL     1      -2.586  -1.224  24.611  0.00  0.00    -0.272 N 
ATOM      9  C   UNL     1      -3.359  -1.461  24.448  0.00  0.00    +0.096 C 
ATOM     10  C   UNL     1      -3.806  -0.785  24.294  0.00  0.00    +0.045 C 
ATOM     11  C   UNL     1      -3.310  -0.130  24.361  0.00  0.00    +0.126 C 
ATOM     22  C   UNL     1      -2.555  -0.401  24.557  0.00  0.00    +0.174 C 
ENDROOT
BRANCH  11  12
ATOM     12  N   UNL     1      -3.529   0.658  24.251  0.00  0.00    -0.187 NA
ATOM     13  C   UNL     1      -4.184   0.963  24.648  0.00  0.00    +0.339 C 
ATOM     14  O   UNL     1      -4.621   0.480  25.155  0.00  0.00    -0.249 OA
ATOM     15  N   UNL     1      -4.403   1.750  24.539  0.00  0.00    -0.189 NA
BRANCH  15  16
ATOM     16  C   UNL     1      -5.059   2.056  24.936  0.00  0.00    +0.097 C 
ATOM     17  C   UNL     1      -5.820   1.838  24.703  0.00  0.00    +0.022 C 
ATOM     18  C   UNL     1      -6.476   2.144  25.101  0.00  0.00    +0.002 C 
ATOM     19  C   UNL     1      -6.370   2.666  25.731  0.00  0.00    +0.000 C 
ATOM     20  C   UNL     1      -5.609   2.883  25.963  0.00  0.00    +0.002 C 
ATOM     21  C   UNL     1      -4.953   2.578  25.566  0.00  0.00    +0.022 C 
ENDBRANCH  15  16
ENDBRANCH  11  12
BRANCH  22  23
ATOM     23  C   UNL     1      -1.888   0.069  24.678  0.00  0.00    +0.262 C 
ATOM     24  O   UNL     1      -1.483   0.031  25.395  0.00  0.00    -0.271 OA
ATOM     25  N   UNL     1      -1.626   0.575  24.082  0.00  0.00    -0.196 NA
BRANCH  25  26
ATOM     26  C   UNL     1      -0.959   1.044  24.202  0.00  0.00    +0.179 C 
BRANCH  26  37
ATOM     37  C   UNL     1      -0.282   0.924  23.744  0.00  0.00    +0.281 C 
ATOM     38  N   UNL     1      -0.351   0.787  22.935  0.00  0.00    -0.086 NA
ATOM     39  O   UNL     1       0.463   0.943  24.099  0.00  0.00    -0.270 OA
ENDBRANCH  26  37
BRANCH  26  27
ATOM     27  C   UNL     1      -0.967   1.633  24.780  0.00  0.00    +0.059 C 
BRANCH  27  28
ATOM     28  C   UNL     1      -1.080   2.421  24.566  0.00  0.00    +0.001 A 
ATOM     29  C   UNL     1      -0.995   2.734  23.806  0.00  0.00    +0.095 A 
ATOM     30  N   UNL     1      -1.160   3.541  23.843  0.00  0.00    -0.244 NA
ATOM     31  C   UNL     1      -1.347   3.727  24.625  0.00  0.00    +0.081 A 
ATOM     32  C   UNL     1      -1.298   3.035  25.071  0.00  0.00    +0.015 A 
ATOM     33  C   UNL     1      -1.458   3.054  25.880  0.00  0.00    +0.001 A 
ATOM     34  C   UNL     1      -1.667   3.764  26.243  0.00  0.00    +0.000 A 
ATOM     35  C   UNL     1      -1.716   4.457  25.797  0.00  0.00    +0.002 A 
ATOM     36  C   UNL     1      -1.556   4.439  24.988  0.00  0.00    +0.019 A 
ENDBRANCH  27  28
ENDBRANCH  26  27
ENDBRANCH  25  26
ENDBRANCH  22  23
BRANCH   6   5
ATOM      5  C   UNL     1      -1.209  -1.403  24.945  0.00  0.00    +0.085 C 
BRANCH   5   2
ATOM      1  C   UNL     1       0.040  -2.393  25.372  0.00  0.00    +0.000 C 
ATOM      2  C   UNL     1      -0.584  -1.899  25.158  0.00  0.00    +0.009 C 
ATOM      3  C   UNL     1      -0.512  -2.144  24.375  0.00  0.00    +0.000 C 
ATOM      4  C   UNL     1      -0.656  -1.652  25.942  0.00  0.00    +0.000 C 
ENDBRANCH   5   2
ENDBRANCH   6   5
TORSDOF 9
ENDMDL
MODEL 5
REMARK VINA RESULT:     -10.1      1.535      3.639
REMARK  Name = 
REMARK  9 active torsions:
REMARK  status: ('A' for Active; 'I' for Inactive)
REMARK    1  A    between atoms: C_2  and  C_5
REMARK    2  A    between atoms: C_5  and  C_6
REMARK    3  A    between atoms: C_11  and  N_12
REMARK    4  A    between atoms: N_15  and  C_16
REMARK    5  A    between atoms: C_22  and  C_23
REMARK    6  A    between atoms: N_25  and  C_26
REMARK    7  A    between atoms: C_26  and  C_27
REMARK    8  A    between atoms: C_26  and  C_37
REMARK    9  A    between atoms: C_27  and  C_28
REMARK                            x       y       z     vdW  Elec       q    Type
REMARK                         _______ _______ _______ _____ _____    ______ ____
ROOT
ATOM      6  C   UNL     1      -3.926   3.230  25.286  0.00  0.00    +0.226 C 
ATOM      7  O   UNL     1      -4.556   3.728  25.478  0.00  0.00    -0.275 OA
ATOM      8  N   UNL     1      -4.068   2.522  24.886  0.00  0.00    -0.272 N 
ATOM      9  C   UNL     1      -4.805   2.241  24.644  0.00  0.00    +0.096 C 
ATOM     10  C   UNL     1      -4.690   1.517  24.266  0.00  0.00    +0.045 C 
ATOM     11  C   UNL     1      -3.882   1.350  24.274  0.00  0.00    +0.126 C 
ATOM     22  C   UNL     1      -3.497   1.972  24.658  0.00  0.00    +0.174 C 
ENDROOT
BRANCH  11  12
ATOM     12  N   UNL     1      -3.522   0.680  23.956  0.00  0.00    -0.187 NA
ATOM     13  C   UNL     1      -3.829  -0.068  24.115  0.00  0.00    +0.339 C 
ATOM     14  O   UNL     1      -4.497  -0.148  24.593  0.00  0.00    -0.249 OA
ATOM     15  N   UNL     1      -3.469  -0.739  23.797  0.00  0.00    -0.189 NA
BRANCH  15  16
ATOM     16  C   UNL     1      -3.776  -1.488  23.956  0.00  0.00    +0.097 C 
ATOM     17  C   UNL     1      -4.303  -1.838  23.427  0.00  0.00    +0.022 C 
ATOM     18  C   UNL     1      -4.611  -2.588  23.586  0.00  0.00    +0.002 C 
ATOM     19  C   UNL     1      -4.391  -2.986  24.275  0.00  0.00    +0.000 C 
ATOM     20  C   UNL     1      -3.864  -2.635  24.804  0.00  0.00    +0.002 C 
ATOM     21  C   UNL     1      -3.557  -1.886  24.645  0.00  0.00    +0.022 C 
ENDBRANCH  15  16
ENDBRANCH  11  12
BRANCH  22  23
ATOM     23  C   UNL     1      -2.686   2.031  24.789  0.00  0.00    +0.262 C 
ATOM     24  O   UNL     1      -2.403   2.212  25.543  0.00  0.00    -0.271 OA
ATOM     25  N   UNL     1      -2.156   1.911  24.168  0.00  0.00    -0.196 NA
BRANCH  25  26
ATOM     26  C   UNL     1      -1.345   1.971  24.300  0.00  0.00    +0.179 C 
BRANCH  26  37
ATOM     37  C   UNL     1      -0.917   2.589  23.959  0.00  0.00    +0.281 C 
ATOM     38  N   UNL     1      -0.327   2.970  24.391  0.00  0.00    -0.086 NA
ATOM     39  O   UNL     1      -1.081   2.826  23.186  0.00  0.00    -0.270 OA
ENDBRANCH  26  37
BRANCH  26  27
ATOM     27  C   UNL     1      -0.960   1.413  24.771  0.00  0.00    +0.059 C 
BRANCH  27  28
ATOM     28  C   UNL     1      -0.589   0.764  24.424  0.00  0.00    +0.001 A 
ATOM     29  C   UNL     1      -0.252   0.744  23.670  0.00  0.00    +0.095 A 
ATOM     30  N   UNL     1       0.056  -0.011  23.550  0.00  0.00    -0.244 NA
ATOM     31  C   UNL     1      -0.089  -0.457  24.227  0.00  0.00    +0.081 A 
ATOM     32  C   UNL     1      -0.488   0.022  24.768  0.00  0.00    +0.015 A 
ATOM     33  C   UNL     1      -0.707  -0.281  25.503  0.00  0.00    +0.001 A 
ATOM     34  C   UNL     1      -0.529  -1.062  25.699  0.00  0.00    +0.000 A 
ATOM     35  C   UNL     1      -0.130  -1.541  25.158  0.00  0.00    +0.002 A 
ATOM     36  C   UNL     1       0.090  -1.239  24.423  0.00  0.00    +0.019 A 
ENDBRANCH  27  28
ENDBRANCH  26  27
ENDBRANCH  25  26
ENDBRANCH  22  23
BRANCH   6   5
ATOM      5  C   UNL     1      -3.156   3.439  25.493  0.00  0.00    +0.085 C 
BRANCH   5   2
ATOM      1  C   UNL     1      -2.873   4.858  26.288  0.00  0.00    +0.000 C 
ATOM      2  C   UNL     1      -3.014   4.148  25.891  0.00  0.00    +0.009 C 
ATOM      3  C   UNL     1      -2.987   3.742  26.607  0.00  0.00    +0.000 C 
ATOM      4  C   UNL     1      -3.042   4.555  25.174  0.00  0.00    +0.000 C 
ENDBRANCH   5   2
ENDBRANCH   6   5
TORSDOF 9
ENDMDL
MODEL 6
REMARK VINA RESULT:     -10.0      1.013      4.115
REMARK  Name = 
REMARK  9 active torsions:
REMARK  status: ('A' for Active; 'I' for Inactive)
REMARK    1  A    between atoms: C_2  and  C_5
REMARK    2  A    between atoms: C_5  and  C_6
REMARK    3  A    between atoms: C_11  and  N_12
REMARK    4  A    between atoms: N_15  and  C_16
REMARK    5  A    between atoms: C_22  and  C_23
REMARK    6  A    between atoms: N_25  and  C_26
REMARK    7  A    between atoms: C_26  and  C_27
REMARK    8  A    between atoms: C_26  and  C_37
REMARK    9  A    between atoms: C_27  and  C_28
REMARK                            x       y       z     vdW  Elec       q    Type
REMARK                         _______ _______ _______ _____ _____    ______ ____
ROOT
ATOM      6  C   UNL     1      -1.792  -0.628  25.782  0.00  0.00    +0.226 C 
ATOM      7  O   UNL     1      -1.507  -1.089  26.405  0.00  0.00    -0.275 OA
ATOM      8  N   UNL     1      -1.417   0.081  25.590  0.00  0.00    -0.272 N 
ATOM      9  C   UNL     1      -0.757   0.400  25.968  0.00  0.00    +0.096 C 
ATOM     10  C   UNL     1      -0.570   1.113  25.597  0.00  0.00    +0.045 C 
ATOM     11  C   UNL     1      -1.114   1.235  24.990  0.00  0.00    +0.126 C 
ATOM     22  C   UNL     1      -1.638   0.598  24.985  0.00  0.00    +0.174 C 
ENDROOT
BRANCH  11  12
ATOM     12  N   UNL     1      -1.131   1.881  24.477  0.00  0.00    -0.187 NA
ATOM     13  C   UNL     1      -1.092   2.648  24.778  0.00  0.00    +0.339 C 
ATOM     14  O   UNL     1      -1.035   2.769  25.592  0.00  0.00    -0.249 OA
ATOM     15  N   UNL     1      -1.109   3.294  24.265  0.00  0.00    -0.189 NA
BRANCH  15  16
ATOM     16  C   UNL     1      -1.070   4.061  24.567  0.00  0.00    +0.097 C 
ATOM     17  C   UNL     1      -1.721   4.385  24.956  0.00  0.00    +0.022 C 
ATOM     18  C   UNL     1      -1.682   5.153  25.257  0.00  0.00    +0.002 C 
ATOM     19  C   UNL     1      -0.992   5.596  25.169  0.00  0.00    +0.000 C 
ATOM     20  C   UNL     1      -0.341   5.271  24.780  0.00  0.00    +0.002 C 
ATOM     21  C   UNL     1      -0.380   4.504  24.479  0.00  0.00    +0.022 C 
ENDBRANCH  15  16
ENDBRANCH  11  12
BRANCH  22  23
ATOM     23  C   UNL     1      -2.271   0.495  24.466  0.00  0.00    +0.262 C 
ATOM     24  O   UNL     1      -2.334  -0.199  24.025  0.00  0.00    -0.271 OA
ATOM     25  N   UNL     1      -2.842   1.086  24.389  0.00  0.00    -0.196 NA
BRANCH  25  26
ATOM     26  C   UNL     1      -3.475   0.983  23.871  0.00  0.00    +0.179 C 
BRANCH  26  37
ATOM     37  C   UNL     1      -3.333   0.874  23.064  0.00  0.00    +0.281 C 
ATOM     38  N   UNL     1      -3.559   0.172  22.697  0.00  0.00    -0.086 NA
ATOM     39  O   UNL     1      -2.966   1.471  22.627  0.00  0.00    -0.270 OA
ENDBRANCH  26  37
BRANCH  26  27
ATOM     27  C   UNL     1      -4.248   0.988  24.157  0.00  0.00    +0.059 C 
BRANCH  27  28
ATOM     28  C   UNL     1      -4.591   1.695  24.408  0.00  0.00    +0.001 A 
ATOM     29  C   UNL     1      -4.443   2.444  24.094  0.00  0.00    +0.095 A 
ATOM     30  N   UNL     1      -4.902   2.989  24.509  0.00  0.00    -0.244 NA
ATOM     31  C   UNL     1      -5.333   2.578  25.079  0.00  0.00    +0.081 A 
ATOM     32  C   UNL     1      -5.141   1.778  25.017  0.00  0.00    +0.015 A 
ATOM     33  C   UNL     1      -5.492   1.229  25.523  0.00  0.00    +0.001 A 
ATOM     34  C   UNL     1      -6.035   1.480  26.090  0.00  0.00    +0.000 A 
ATOM     35  C   UNL     1      -6.227   2.279  26.153  0.00  0.00    +0.002 A 
ATOM     36  C   UNL     1      -5.877   2.829  25.648  0.00  0.00    +0.019 A 
ENDBRANCH  27  28
ENDBRANCH  26  27
ENDBRANCH  25  26
ENDBRANCH  22  23
BRANCH   6   5
ATOM      5  C   UNL     1      -2.450  -0.877  25.352  0.00  0.00    +0.085 C 
BRANCH   5   2
ATOM      1  C   UNL     1      -3.177  -2.313  25.715  0.00  0.00    +0.000 C 
ATOM      2  C   UNL     1      -2.814  -1.595  25.534  0.00  0.00    +0.009 C 
ATOM      3  C   UNL     1      -3.266  -1.220  26.111  0.00  0.00    +0.000 C 
ATOM      4  C   UNL     1      -2.361  -1.971  24.956  0.00  0.00    +0.000 C 
ENDBRANCH   5   2
ENDBRANCH   6   5
TORSDOF 9
ENDMDL
MODEL 7
REMARK VINA RESULT:      -9.9      1.845      3.401
REMARK  Name = 
REMARK  9 active torsions:
REMARK  status: ('A' for Active; 'I' for Inactive)
REMARK    1  A    between atoms: C_2  and  C_5
REMARK    2  A    between atoms: C_5  and  C_6
REMARK    3  A    between atoms: C_11  and  N_12
REMARK    4  A    between atoms: N_15  and  C_16
REMARK    5  A    between atoms: C_22  and  C_23
REMARK    6  A    between atoms: N_25  and  C_26
REMARK    7  A    between atoms: C_26  and  C_27
REMARK    8  A    between atoms: C_26  and  C_37
REMARK    9  A    between atoms: C_27  and  C_28
REMARK                            x       y       z     vdW  Elec       q    Type
REMARK                         _______ _______ _______ _____ _____    ______ ____
ROOT
ATOM      6  C   UNL     1      -1.796   3.784  25.387  0.00  0.00    +0.226 C 
ATOM      7  O   UNL     1      -1.525   4.545  25.557  0.00  0.00    -0.275 OA
ATOM      8  N   UNL     1      -1.293   3.240  25.024  0.00  0.00    -0.272 N 
ATOM      9  C   UNL     1      -0.511   3.376  24.800  0.00  0.00    +0.096 C 
ATOM     10  C   UNL     1      -0.219   2.684  24.459  0.00  0.00    +0.045 C 
ATOM     11  C   UNL     1      -0.821   2.120  24.472  0.00  0.00    +0.126 C 
ATOM     22  C   UNL     1      -1.485   2.463  24.821  0.00  0.00    +0.174 C 
ENDROOT
BRANCH  11  12
ATOM     12  N   UNL     1      -0.768   1.347  24.186  0.00  0.00    -0.187 NA
ATOM     13  C   UNL     1      -0.084   1.097  23.801  0.00  0.00    +0.339 C 
ATOM     14  O   UNL     1       0.548   1.617  23.700  0.00  0.00    -0.249 OA
ATOM     15  N   UNL     1      -0.031   0.324  23.515  0.00  0.00    -0.189 NA
BRANCH  15  16
ATOM     16  C   UNL     1       0.654   0.073  23.129  0.00  0.00    +0.097 C 
ATOM     17  C   UNL     1       0.637  -0.077  22.318  0.00  0.00    +0.022 C 
ATOM     18  C   UNL     1       1.322  -0.329  21.931  0.00  0.00    +0.002 C 
ATOM     19  C   UNL     1       2.022  -0.430  22.356  0.00  0.00    +0.000 C 
ATOM     20  C   UNL     1       2.037  -0.279  23.167  0.00  0.00    +0.002 C 
ATOM     21  C   UNL     1       1.353  -0.028  23.554  0.00  0.00    +0.022 C 
ENDBRANCH  15  16
ENDBRANCH  11  12
BRANCH  22  23
ATOM     23  C   UNL     1      -2.212   2.095  24.946  0.00  0.00    +0.262 C 
ATOM     24  O   UNL     1      -2.527   2.051  25.707  0.00  0.00    -0.271 OA
ATOM     25  N   UNL     1      -2.625   1.771  24.310  0.00  0.00    -0.196 NA
BRANCH  25  26
ATOM     26  C   UNL     1      -3.352   1.402  24.434  0.00  0.00    +0.179 C 
BRANCH  26  37
ATOM     37  C   UNL     1      -4.040   1.731  24.117  0.00  0.00    +0.281 C 
ATOM     38  N   UNL     1      -4.736   1.739  24.558  0.00  0.00    -0.086 NA
ATOM     39  O   UNL     1      -4.029   2.051  23.356  0.00  0.00    -0.270 OA
ENDBRANCH  26  37
BRANCH  26  27
ATOM     27  C   UNL     1      -3.393   0.707  24.876  0.00  0.00    +0.059 C 
BRANCH  27  28
ATOM     28  C   UNL     1      -3.483  -0.019  24.495  0.00  0.00    +0.001 A 
ATOM     29  C   UNL     1      -3.628  -0.130  23.690  0.00  0.00    +0.095 A 
ATOM     30  N   UNL     1      -3.678  -0.941  23.550  0.00  0.00    -0.244 NA
ATOM     31  C   UNL     1      -3.563  -1.332  24.267  0.00  0.00    +0.081 A 
ATOM     32  C   UNL     1      -3.443  -0.762  24.851  0.00  0.00    +0.015 A 
ATOM     33  C   UNL     1      -3.312  -0.994  25.632  0.00  0.00    +0.001 A 
ATOM     34  C   UNL     1      -3.302  -1.794  25.829  0.00  0.00    +0.000 A 
ATOM     35  C   UNL     1      -3.422  -2.364  25.245  0.00  0.00    +0.002 A 
ATOM     36  C   UNL     1      -3.553  -2.133  24.464  0.00  0.00    +0.019 A 
ENDBRANCH  27  28
ENDBRANCH  26  27
ENDBRANCH  25  26
ENDBRANCH  22  23
BRANCH   6   5
ATOM      5  C   UNL     1      -2.568   3.568  25.580  0.00  0.00    +0.085 C 
BRANCH   5   2
ATOM      1  C   UNL     1      -3.547   4.631  26.378  0.00  0.00    +0.000 C 
ATOM      2  C   UNL     1      -3.057   4.100  25.979  0.00  0.00    +0.009 C 
ATOM      3  C   UNL     1      -2.875   3.730  26.693  0.00  0.00    +0.000 C 
ATOM      4  C   UNL     1      -3.239   4.469  25.264  0.00  0.00    +0.000 C 
ENDBRANCH   5   2
ENDBRANCH   6   5
TORSDOF 9
ENDMDL
MODEL 8
REMARK VINA RESULT:      -9.7      1.677      5.263
REMARK  Name = 
REMARK  9 active torsions:
REMARK  status: ('A' for Active; 'I' for Inactive)
REMARK    1  A    between atoms: C_2  and  C_5
REMARK    2  A    between atoms: C_5  and  C_6
REMARK    3  A    between atoms: C_11  and  N_12
REMARK    4  A    between atoms: N_15  and  C_16
REMARK    5  A    between atoms: C_22  and  C_23
REMARK    6  A    between atoms: N_25  and  C_26
REMARK    7  A    between atoms: C_26  and  C_27
REMARK    8  A    between atoms: C_26  and  C_37
REMARK    9  A    between atoms: C_27  and  C_28
REMARK                            x       y       z     vdW  Elec       q    Type
REMARK                         _______ _______ _______ _____ _____    ______ ____
ROOT
ATOM      6  C   UNL     1      -3.837  -1.638  24.409  0.00  0.00    +0.226 C 
ATOM      7  O   UNL     1      -4.461  -2.159  24.264  0.00  0.00    -0.275 OA
ATOM      8  N   UNL     1      -3.919  -0.837  24.230  0.00  0.00    -0.272 N 
ATOM      9  C   UNL     1      -4.587  -0.479  23.906  0.00  0.00    +0.096 C 
ATOM     10  C   UNL     1      -4.428   0.326  23.819  0.00  0.00    +0.045 C 
ATOM     11  C   UNL     1      -3.661   0.465  24.090  0.00  0.00    +0.126 C 
ATOM     22  C   UNL     1      -3.346  -0.254  24.344  0.00  0.00    +0.174 C 
ENDROOT
BRANCH  11  12
ATOM     12  N   UNL     1      -3.276   1.195  24.104  0.00  0.00    -0.187 NA
ATOM     13  C   UNL     1      -3.669   1.862  24.387  0.00  0.00    +0.339 C 
ATOM     14  O   UNL     1      -4.446   1.801  24.657  0.00  0.00    -0.249 OA
ATOM     15  N   UNL     1      -3.284   2.592  24.401  0.00  0.00    -0.189 NA
BRANCH  15  16
ATOM     16  C   UNL     1      -3.677   3.261  24.685  0.00  0.00    +0.097 C 
ATOM     17  C   UNL     1      -4.032   3.785  24.156  0.00  0.00    +0.022 C 
ATOM     18  C   UNL     1      -4.424   4.454  24.440  0.00  0.00    +0.002 C 
ATOM     19  C   UNL     1      -4.462   4.597  25.251  0.00  0.00    +0.000 C 
ATOM     20  C   UNL     1      -4.107   4.071  25.779  0.00  0.00    +0.002 C 
ATOM     21  C   UNL     1      -3.715   3.404  25.496  0.00  0.00    +0.022 C 
ENDBRANCH  15  16
ENDBRANCH  11  12
BRANCH  22  23
ATOM     23  C   UNL     1      -2.592  -0.369  24.657  0.00  0.00    +0.262 C 
ATOM     24  O   UNL     1      -2.503  -0.703  25.406  0.00  0.00    -0.271 OA
ATOM     25  N   UNL     1      -1.926  -0.151  24.221  0.00  0.00    -0.196 NA
BRANCH  25  26
ATOM     26  C   UNL     1      -1.172  -0.267  24.534  0.00  0.00    +0.179 C 
BRANCH  26  37
ATOM     37  C   UNL     1      -0.692  -0.869  24.238  0.00  0.00    +0.281 C 
ATOM     38  N   UNL     1      -0.263  -1.347  24.756  0.00  0.00    -0.086 NA
ATOM     39  O   UNL     1      -0.641  -0.993  23.424  0.00  0.00    -0.270 OA
ENDBRANCH  26  37
BRANCH  26  27
ATOM     27  C   UNL     1      -0.898   0.220  25.141  0.00  0.00    +0.059 C 
BRANCH  27  28
ATOM     28  C   UNL     1      -0.470   0.902  24.963  0.00  0.00    +0.001 A 
ATOM     29  C   UNL     1      -0.100   1.068  24.244  0.00  0.00    +0.095 A 
ATOM     30  N   UNL     1       0.262   1.807  24.309  0.00  0.00    -0.244 NA
ATOM     31  C   UNL     1       0.115   2.097  25.066  0.00  0.00    +0.081 A 
ATOM     32  C   UNL     1      -0.338   1.538  25.470  0.00  0.00    +0.015 A 
ATOM     33  C   UNL     1      -0.570   1.681  26.249  0.00  0.00    +0.001 A 
ATOM     34  C   UNL     1      -0.351   2.382  26.624  0.00  0.00    +0.000 A 
ATOM     35  C   UNL     1       0.102   2.941  26.219  0.00  0.00    +0.002 A 
ATOM     36  C   UNL     1       0.335   2.799  25.441  0.00  0.00    +0.019 A 
ENDBRANCH  27  28
ENDBRANCH  26  27
ENDBRANCH  25  26
ENDBRANCH  22  23
BRANCH   6   5
ATOM      5  C   UNL     1      -3.132  -1.919  24.733  0.00  0.00    +0.085 C 
BRANCH   5   2
ATOM      1  C   UNL     1      -3.012  -3.495  25.206  0.00  0.00    +0.000 C 
ATOM      2  C   UNL     1      -3.072  -2.707  24.970  0.00  0.00    +0.009 C 
ATOM      3  C   UNL     1      -3.226  -2.485  25.749  0.00  0.00    +0.000 C 
ATOM      4  C   UNL     1      -2.919  -2.929  24.191  0.00  0.00    +0.000 C 
ENDBRANCH   5   2
ENDBRANCH   6   5
TORSDOF 9
ENDMDL
