MODEL 1
REMARK VINA RESULT:     -12.8      0.000      0.000
REMARK  Name = 
REMARK  6 active torsions:
REMARK  status: ('A' for Active; 'I' for Inactive)
REMARK    1  A    between atoms: O_2  and  C_3
REMARK    2  A    between atoms: C_6  and  S_9
REMARK    3  A    between atoms: S_9  and  N_12
REMARK    4  A    between atoms: N_19  and  C_23
REMARK    5  A    between atoms: C_26  and  O_27
REMARK    6  A    between atoms: O_27  and  C_28
REMARK                            x       y       z     vdW  Elec       q    Type
REMARK                         _______ _______ _______ _____ _____    ______ ____
ROOT
ATOM     12  N   UNL     1      -1.771   3.626  24.974  0.00  0.00    -0.146 NA
ATOM     13  C   UNL     1      -1.322   4.312  24.885  0.00  0.00    +0.098 C 
ATOM     14  C   UNL     1      -0.535   4.088  24.776  0.00  0.00    +0.043 C 
ATOM     15  C   UNL     1      -0.499   3.265  24.798  0.00  0.00    +0.123 C 
ATOM     16  N   UNL     1       0.131   2.737  24.722  0.00  0.00    -0.188 NA
ATOM     17  C   UNL     1      -0.003   1.925  24.769  0.00  0.00    +0.333 C 
ATOM     18  O   UNL     1       0.626   1.397  24.693  0.00  0.00    -0.250 OA
ATOM     19  N   UNL     1      -0.768   1.639  24.891  0.00  0.00    -0.190 N 
ATOM     20  C   UNL     1      -1.398   2.166  24.967  0.00  0.00    +0.254 C 
ATOM     21  O   UNL     1      -2.163   1.881  25.089  0.00  0.00    -0.273 OA
ATOM     22  C   UNL     1      -1.263   2.979  24.920  0.00  0.00    +0.176 C 
ENDROOT
BRANCH  19  23
ATOM     23  C   UNL     1      -0.903   0.826  24.937  0.00  0.00    +0.062 A 
ATOM     24  C   UNL     1      -0.968   0.461  25.674  0.00  0.00    +0.018 A 
ATOM     25  C   UNL     1      -1.103  -0.352  25.720  0.00  0.00    +0.039 A 
ATOM     26  C   UNL     1      -1.172  -0.799  25.030  0.00  0.00    +0.145 A 
ATOM     34  C   UNL     1      -1.106  -0.433  24.294  0.00  0.00    +0.039 A 
ATOM     35  C   UNL     1      -0.972   0.379  24.247  0.00  0.00    +0.018 A 
BRANCH  26  27
ATOM     27  O   UNL     1      -1.306  -1.611  25.077  0.00  0.00    -0.453 OA
BRANCH  27  28
ATOM     28  C   UNL     1      -2.068  -1.910  24.969  0.00  0.00    +0.145 A 
ATOM     29  C   UNL     1      -2.241  -2.367  24.303  0.00  0.00    +0.037 A 
ATOM     30  C   UNL     1      -3.003  -2.666  24.195  0.00  0.00    +0.003 A 
ATOM     31  C   UNL     1      -3.590  -2.507  24.752  0.00  0.00    +0.000 A 
ATOM     32  C   UNL     1      -3.418  -2.051  25.417  0.00  0.00    +0.003 A 
ATOM     33  C   UNL     1      -2.656  -1.753  25.525  0.00  0.00    +0.037 A 
ENDBRANCH  27  28
ENDBRANCH  26  27
ENDBRANCH  19  23
BRANCH  12   9
ATOM      9  S   UNL     1      -2.587   3.594  25.095  0.00  0.00    +0.064 S 
ATOM     10  O   UNL     1      -2.469   3.656  25.909  0.00  0.00    -0.153 OA
ATOM     11  O   UNL     1      -2.706   3.531  24.281  0.00  0.00    -0.153 OA
BRANCH   9   6
ATOM      3  C   UNL     1      -5.034   3.497  25.459  0.00  0.00    +0.139 A 
ATOM      4  C   UNL     1      -4.722   3.352  24.709  0.00  0.00    +0.038 A 
ATOM      5  C   UNL     1      -3.906   3.384  24.588  0.00  0.00    +0.023 A 
ATOM      6  C   UNL     1      -3.403   3.562  25.217  0.00  0.00    +0.122 A 
ATOM      7  C   UNL     1      -3.714   3.707  25.967  0.00  0.00    +0.023 A 
ATOM      8  C   UNL     1      -4.529   3.674  26.088  0.00  0.00    +0.038 A 
BRANCH   3   2
ATOM      1  C   UNL     1      -6.214   2.741  25.739  0.00  0.00    +0.252 C 
ATOM      2  O   UNL     1      -5.848   3.464  25.580  0.00  0.00    -0.471 OA
ENDBRANCH   3   2
ENDBRANCH   9   6
ENDBRANCH  12   9
TORSDOF 6
ENDMDL
MODEL 2
REMARK VINA RESULT:     -11.6      1.082      4.458
REMARK  Name = 
REMARK  6 active torsions:
REMARK  status: ('A' for Active; 'I' for Inactive)
REMARK    1  A    between atoms: O_2  and  C_3
REMARK    2  A    between atoms: C_6  and  S_9
REMARK    3  A    between atoms: S_9  and  N_12
REMARK    4  A    between atoms: N_19  and  C_23
REMARK    5  A    between atoms: C_26  and  O_27
REMARK    6  A    between atoms: O_27  and  C_28
REMARK                            x       y       z     vdW  Elec       q    Type
REMARK                         _______ _______ _______ _____ _____    ______ ____
ROOT
ATOM     12  N   UNL     1      -0.196   1.364  24.528  0.00  0.00    -0.146 NA
ATOM     13  C   UNL     1       0.593   1.575  24.415  0.00  0.00    +0.098 C 
ATOM     14  C   UNL     1       0.635   2.398  24.381  0.00  0.00    +0.043 C 
ATOM     15  C   UNL     1      -0.128   2.696  24.473  0.00  0.00    +0.123 C 
ATOM     16  N   UNL     1      -0.422   3.467  24.487  0.00  0.00    -0.188 NA
ATOM     17  C   UNL     1      -1.229   3.599  24.591  0.00  0.00    +0.333 C 
ATOM     18  O   UNL     1      -1.524   4.370  24.604  0.00  0.00    -0.250 OA
ATOM     19  N   UNL     1      -1.743   2.960  24.682  0.00  0.00    -0.190 N 
ATOM     20  C   UNL     1      -1.450   2.189  24.669  0.00  0.00    +0.254 C 
ATOM     21  O   UNL     1      -1.964   1.550  24.760  0.00  0.00    -0.273 OA
ATOM     22  C   UNL     1      -0.642   2.057  24.564  0.00  0.00    +0.176 C 
ENDROOT
BRANCH  19  23
ATOM     23  C   UNL     1      -2.552   3.092  24.786  0.00  0.00    +0.062 A 
ATOM     24  C   UNL     1      -2.846   3.274  25.535  0.00  0.00    +0.018 A 
ATOM     25  C   UNL     1      -3.654   3.406  25.639  0.00  0.00    +0.039 A 
ATOM     26  C   UNL     1      -4.167   3.355  24.995  0.00  0.00    +0.145 A 
ATOM     34  C   UNL     1      -3.872   3.173  24.247  0.00  0.00    +0.039 A 
ATOM     35  C   UNL     1      -3.065   3.041  24.142  0.00  0.00    +0.018 A 
BRANCH  26  27
ATOM     27  O   UNL     1      -4.974   3.487  25.100  0.00  0.00    -0.453 OA
BRANCH  27  28
ATOM     28  C   UNL     1      -5.467   2.865  25.326  0.00  0.00    +0.145 A 
ATOM     29  C   UNL     1      -5.744   2.331  24.760  0.00  0.00    +0.037 A 
ATOM     30  C   UNL     1      -6.238   1.710  24.986  0.00  0.00    +0.003 A 
ATOM     31  C   UNL     1      -6.454   1.622  25.777  0.00  0.00    +0.000 A 
ATOM     32  C   UNL     1      -6.178   2.156  26.342  0.00  0.00    +0.003 A 
ATOM     33  C   UNL     1      -5.685   2.777  26.116  0.00  0.00    +0.037 A 
ENDBRANCH  27  28
ENDBRANCH  26  27
ENDBRANCH  19  23
BRANCH  12   9
ATOM      9  S   UNL     1      -0.489   0.595  24.594  0.00  0.00    +0.064 S 
ATOM     10  O   UNL     1      -0.540   0.544  23.772  0.00  0.00    -0.153 OA
ATOM     11  O   UNL     1      -0.438   0.646  25.416  0.00  0.00    -0.153 OA
BRANCH   9   6
ATOM      3  C   UNL     1      -1.366  -1.711  24.790  0.00  0.00    +0.139 A 
ATOM      4  C   UNL     1      -1.165  -1.408  24.050  0.00  0.00    +0.038 A 
ATOM      5  C   UNL     1      -0.872  -0.639  23.984  0.00  0.00    +0.023 A 
ATOM      6  C   UNL     1      -0.781  -0.174  24.659  0.00  0.00    +0.122 A 
ATOM      7  C   UNL     1      -0.982  -0.477  25.400  0.00  0.00    +0.023 A 
ATOM      8  C   UNL     1      -1.274  -1.245  25.465  0.00  0.00    +0.038 A 
BRANCH   3   2
ATOM      1  C   UNL     1      -2.420  -2.655  24.590  0.00  0.00    +0.252 C 
ATOM      2  O   UNL     1      -1.658  -2.479  24.855  0.00  0.00    -0.471 OA
ENDBRANCH   3   2
ENDBRANCH   9   6
ENDBRANCH  12   9
TORSDOF 6
ENDMDL
MODEL 3
REMARK VINA RESULT:     -11.6      1.904      3.548
REMARK  Name = 
REMARK  6 active torsions:
REMARK  status: ('A' for Active; 'I' for Inactive)
REMARK    1  A    between atoms: O_2  and  C_3
REMARK    2  A    between atoms: C_6  and  S_9
REMARK    3  A    between atoms: S_9  and  N_12
REMARK    4  A    between atoms: N_19  and  C_23
REMARK    5  A    between atoms: C_26  and  O_27
REMARK    6  A    between atoms: O_27  and  C_28
REMARK                            x       y       z     vdW  Elec       q    Type
REMARK                         _______ _______ _______ _____ _____    ______ ____
ROOT
ATOM     12  N   UNL     1      -4.597   3.310  25.338  0.00  0.00    -0.146 NA
ATOM     13  C   UNL     1      -5.301   3.717  25.475  0.00  0.00    +0.098 C 
ATOM     14  C   UNL     1      -5.919   3.170  25.451  0.00  0.00    +0.043 C 
ATOM     15  C   UNL     1      -5.596   2.427  25.301  0.00  0.00    +0.123 C 
ATOM     16  N   UNL     1      -5.941   1.681  25.218  0.00  0.00    -0.188 NA
ATOM     17  C   UNL     1      -5.468   1.023  25.066  0.00  0.00    +0.333 C 
ATOM     18  O   UNL     1      -5.813   0.278  24.983  0.00  0.00    -0.250 OA
ATOM     19  N   UNL     1      -4.651   1.109  24.996  0.00  0.00    -0.190 N 
ATOM     20  C   UNL     1      -4.306   1.854  25.078  0.00  0.00    +0.254 C 
ATOM     21  O   UNL     1      -3.488   1.940  25.008  0.00  0.00    -0.273 OA
ATOM     22  C   UNL     1      -4.779   2.513  25.231  0.00  0.00    +0.176 C 
ENDROOT
BRANCH  19  23
ATOM     23  C   UNL     1      -4.178   0.450  24.843  0.00  0.00    +0.062 A 
ATOM     24  C   UNL     1      -3.928   0.292  24.073  0.00  0.00    +0.018 A 
ATOM     25  C   UNL     1      -3.454  -0.367  23.921  0.00  0.00    +0.039 A 
ATOM     26  C   UNL     1      -3.232  -0.867  24.538  0.00  0.00    +0.145 A 
ATOM     34  C   UNL     1      -3.483  -0.708  25.308  0.00  0.00    +0.039 A 
ATOM     35  C   UNL     1      -3.955  -0.050  25.461  0.00  0.00    +0.018 A 
BRANCH  26  27
ATOM     27  O   UNL     1      -2.759  -1.525  24.385  0.00  0.00    -0.453 OA
BRANCH  27  28
ATOM     28  C   UNL     1      -1.956  -1.507  24.570  0.00  0.00    +0.145 A 
ATOM     29  C   UNL     1      -1.676  -1.909  25.235  0.00  0.00    +0.037 A 
ATOM     30  C   UNL     1      -0.872  -1.891  25.420  0.00  0.00    +0.003 A 
ATOM     31  C   UNL     1      -0.348  -1.472  24.940  0.00  0.00    +0.000 A 
ATOM     32  C   UNL     1      -0.627  -1.070  24.276  0.00  0.00    +0.003 A 
ATOM     33  C   UNL     1      -1.431  -1.088  24.091  0.00  0.00    +0.037 A 
ENDBRANCH  27  28
ENDBRANCH  26  27
ENDBRANCH  19  23
BRANCH  12   9
ATOM      9  S   UNL     1      -3.842   3.642  25.314  0.00  0.00    +0.064 S 
ATOM     10  O   UNL     1      -3.915   3.749  24.499  0.00  0.00    -0.153 OA
ATOM     11  O   UNL     1      -3.768   3.536  26.129  0.00  0.00    -0.153 OA
BRANCH   9   6
ATOM      3  C   UNL     1      -1.577   4.640  25.240  0.00  0.00    +0.139 A 
ATOM      4  C   UNL     1      -1.885   4.367  25.956  0.00  0.00    +0.038 A 
ATOM      5  C   UNL     1      -2.640   4.034  25.980  0.00  0.00    +0.023 A 
ATOM      6  C   UNL     1      -3.087   3.975  25.289  0.00  0.00    +0.122 A 
ATOM      7  C   UNL     1      -2.779   4.248  24.574  0.00  0.00    +0.023 A 
ATOM      8  C   UNL     1      -2.025   4.580  24.550  0.00  0.00    +0.038 A 
BRANCH   3   2
ATOM      1  C   UNL     1      -0.364   4.905  24.533  0.00  0.00    +0.252 C 
ATOM      2  O   UNL     1      -0.823   4.972  25.216  0.00  0.00    -0.471 OA
ENDBRANCH   3   2
ENDBRANCH   9   6
ENDBRANCH  12   9
TORSDOF 6
ENDMDL
