MODEL 1
REMARK VINA RESULT:     -18.3      0.000      0.000
REMARK  Name = 
REMARK  2 active torsions:
REMARK  status: ('A' for Active; 'I' for Inactive)
REMARK    1  A    between atoms: C_5  and  C_8
REMARK    2  A    between atoms: C_17  and  C_24
REMARK                            x       y       z     vdW  Elec       q    Type
REMARK                         _______ _______ _______ _____ _____    ______ ____
ROOT
ATOM      8  C   UNL     1      -3.837   3.349  24.401  0.00  0.00    +0.249 C 
ATOM      9  O   UNL     1      -3.680   4.205  24.256  0.00  0.00    -0.270 OA
ATOM     10  N   UNL     1      -3.211   2.741  24.204  0.00  0.00    -0.276 N 
ATOM     11  C   UNL     1      -2.447   2.579  23.908  0.00  0.00    +0.096 C 
ATOM     12  C   UNL     1      -2.439   1.595  23.998  0.00  0.00    +0.043 C 
ATOM     13  C   UNL     1      -2.276   0.797  24.008  0.00  0.00    +0.011 C 
ATOM     14  C   UNL     1      -2.808   1.220  24.184  0.00  0.00    +0.058 C 
ATOM     15  C   UNL     1      -2.800   2.170  24.090  0.00  0.00    +0.099 C 
ATOM     16  C   UNL     1      -3.658   1.202  24.532  0.00  0.00    +0.041 A 
ATOM     17  C   UNL     1      -4.224   0.672  24.813  0.00  0.00    +0.012 A 
ATOM     18  C   UNL     1      -4.952   0.951  25.083  0.00  0.00    +0.006 A 
ATOM     19  C   UNL     1      -5.114   1.760  25.072  0.00  0.00    +0.061 A 
ATOM     20  C   UNL     1      -4.548   2.290  24.791  0.00  0.00    +0.261 A 
ATOM     21  O   UNL     1      -4.711   3.305  24.761  0.00  0.00    -0.267 OA
ATOM     22  N   UNL     1      -3.820   2.011  24.521  0.00  0.00    -0.299 N 
ATOM     23  C   UNL     1      -3.328   1.586  24.361  0.00  0.00    +0.110 C 
ENDROOT
BRANCH   8   5
ATOM      1  F   UNL     1      -6.289   1.509  25.915  0.00  0.00    -0.204 F 
ATOM      2  C   UNL     1      -5.705   1.939  25.523  0.00  0.00    +0.140 A 
ATOM      3  C   UNL     1      -5.674   1.757  24.734  0.00  0.00    +0.030 A 
ATOM      4  C   UNL     1      -5.002   2.262  24.321  0.00  0.00    +0.007 A 
ATOM      5  C   UNL     1      -4.536   2.799  24.738  0.00  0.00    +0.054 A 
ATOM      6  C   UNL     1      -4.654   2.907  25.547  0.00  0.00    +0.007 A 
ATOM      7  C   UNL     1      -5.239   2.477  25.940  0.00  0.00    +0.030 A 
ENDBRANCH   8   5
BRANCH  17  24
ATOM     24  C   UNL     1      -4.062  -0.137  24.824  0.00  0.00    +0.001 A 
ATOM     25  C   UNL     1      -4.254  -0.605  24.172  0.00  0.00    +0.001 A 
ATOM     26  C   UNL     1      -4.092  -1.414  24.183  0.00  0.00    +0.011 A 
ATOM     27  C   UNL     1      -3.739  -1.755  24.846  0.00  0.00    +0.058 A 
ATOM     28 CL   UNL     1      -3.556  -2.581  24.898  0.00  0.00    -0.082 Cl
ATOM     29  C   UNL     1      -3.547  -1.287  25.498  0.00  0.00    +0.011 A 
ATOM     30  C   UNL     1      -3.709  -0.478  25.487  0.00  0.00    +0.001 A 
ENDBRANCH  17  24
TORSDOF 2
ENDMDL
MODEL 2
REMARK VINA RESULT:     -17.7      1.191      2.294
REMARK  Name = 
REMARK  2 active torsions:
REMARK  status: ('A' for Active; 'I' for Inactive)
REMARK    1  A    between atoms: C_5  and  C_8
REMARK    2  A    between atoms: C_17  and  C_24
REMARK                            x       y       z     vdW  Elec       q    Type
REMARK                         _______ _______ _______ _____ _____    ______ ____
ROOT
ATOM      8  C   UNL     1      -4.026   3.279  24.424  0.00  0.00    +0.249 C 
ATOM      9  O   UNL     1      -4.233   4.133  24.506  0.00  0.00    -0.270 OA
ATOM     10  N   UNL     1      -4.548   2.655  24.797  0.00  0.00    -0.276 N 
ATOM     11  C   UNL     1      -5.229   2.476  25.246  0.00  0.00    +0.096 C 
ATOM     12  C   UNL     1      -5.162   1.491  25.263  0.00  0.00    +0.043 C 
ATOM     13  C   UNL     1      -5.250   0.688  25.368  0.00  0.00    +0.011 C 
ATOM     14  C   UNL     1      -4.800   1.123  25.052  0.00  0.00    +0.058 C 
ATOM     15  C   UNL     1      -4.878   2.075  25.045  0.00  0.00    +0.099 C 
ATOM     16  C   UNL     1      -4.027   1.125  24.555  0.00  0.00    +0.041 A 
ATOM     17  C   UNL     1      -3.473   0.607  24.230  0.00  0.00    +0.012 A 
ATOM     18  C   UNL     1      -2.834   0.903  23.801  0.00  0.00    +0.006 A 
ATOM     19  C   UNL     1      -2.748   1.717  23.696  0.00  0.00    +0.061 A 
ATOM     20  C   UNL     1      -3.301   2.235  24.021  0.00  0.00    +0.261 A 
ATOM     21  O   UNL     1      -3.230   3.254  23.913  0.00  0.00    -0.267 OA
ATOM     22  N   UNL     1      -3.941   1.939  24.450  0.00  0.00    -0.299 N 
ATOM     23  C   UNL     1      -4.355   1.502  24.743  0.00  0.00    +0.110 C 
ENDROOT
BRANCH   8   5
ATOM      1  F   UNL     1      -1.387   1.471  23.215  0.00  0.00    -0.204 F 
ATOM      2  C   UNL     1      -2.041   1.896  23.484  0.00  0.00    +0.140 A 
ATOM      3  C   UNL     1      -2.698   1.759  23.028  0.00  0.00    +0.030 A 
ATOM      4  C   UNL     1      -3.420   2.255  23.361  0.00  0.00    +0.007 A 
ATOM      5  C   UNL     1      -3.350   2.744  24.021  0.00  0.00    +0.054 A 
ATOM      6  C   UNL     1      -2.628   2.809  24.413  0.00  0.00    +0.007 A 
ATOM      7  C   UNL     1      -1.973   2.385  24.144  0.00  0.00    +0.030 A 
ENDBRANCH   8   5
BRANCH  17  24
ATOM     24  C   UNL     1      -3.559  -0.207  24.334  0.00  0.00    +0.001 A 
ATOM     25  C   UNL     1      -3.214  -0.578  24.985  0.00  0.00    +0.001 A 
ATOM     26  C   UNL     1      -3.300  -1.392  25.089  0.00  0.00    +0.011 A 
ATOM     27  C   UNL     1      -3.731  -1.835  24.543  0.00  0.00    +0.058 A 
ATOM     28 CL   UNL     1      -3.843  -2.673  24.613  0.00  0.00    -0.082 Cl
ATOM     29  C   UNL     1      -4.076  -1.464  23.892  0.00  0.00    +0.011 A 
ATOM     30  C   UNL     1      -3.990  -0.650  23.788  0.00  0.00    +0.001 A 
ENDBRANCH  17  24
TORSDOF 2
ENDMDL
MODEL 3
REMARK VINA RESULT:     -16.4      1.640      2.704
REMARK  Name = 
REMARK  2 active torsions:
REMARK  status: ('A' for Active; 'I' for Inactive)
REMARK    1  A    between atoms: C_5  and  C_8
REMARK    2  A    between atoms: C_17  and  C_24
REMARK                            x       y       z     vdW  Elec       q    Type
REMARK                         _______ _______ _______ _____ _____    ______ ____
ROOT
ATOM      8  C   UNL     1      -4.970   3.246  25.374  0.00  0.00    +0.249 C 
ATOM      9  O   UNL     1      -5.778   3.559  25.539  0.00  0.00    -0.270 OA
ATOM     10  N   UNL     1      -4.863   2.392  25.128  0.00  0.00    -0.276 N 
ATOM     11  C   UNL     1      -5.215   1.653  24.960  0.00  0.00    +0.096 C 
ATOM     12  C   UNL     1      -4.406   1.132  24.737  0.00  0.00    +0.043 C 
ATOM     13  C   UNL     1      -3.849   0.575  24.529  0.00  0.00    +0.011 C 
ATOM     14  C   UNL     1      -3.861   1.251  24.717  0.00  0.00    +0.058 C 
ATOM     15  C   UNL     1      -4.653   1.742  24.929  0.00  0.00    +0.099 C 
ATOM     16  C   UNL     1      -3.307   1.970  24.860  0.00  0.00    +0.041 A 
ATOM     17  C   UNL     1      -2.509   2.177  24.838  0.00  0.00    +0.012 A 
ATOM     18  C   UNL     1      -2.278   2.946  25.027  0.00  0.00    +0.006 A 
ATOM     19  C   UNL     1      -2.844   3.508  25.237  0.00  0.00    +0.061 A 
ATOM     20  C   UNL     1      -3.642   3.301  25.258  0.00  0.00    +0.261 A 
ATOM     21  O   UNL     1      -4.378   3.971  25.515  0.00  0.00    -0.267 OA
ATOM     22  N   UNL     1      -3.873   2.532  25.070  0.00  0.00    -0.299 N 
ATOM     23  C   UNL     1      -3.834   1.888  24.889  0.00  0.00    +0.110 C 
ENDROOT
BRANCH   8   5
ATOM      1  F   UNL     1      -1.760   4.379  25.699  0.00  0.00    -0.204 F 
ATOM      2  C   UNL     1      -2.530   4.105  25.590  0.00  0.00    +0.140 A 
ATOM      3  C   UNL     1      -2.702   3.994  24.806  0.00  0.00    +0.030 A 
ATOM      4  C   UNL     1      -3.582   3.684  24.719  0.00  0.00    +0.007 A 
ATOM      5  C   UNL     1      -4.071   3.557  25.371  0.00  0.00    +0.054 A 
ATOM      6  C   UNL     1      -3.790   3.704  26.132  0.00  0.00    +0.007 A 
ATOM      7  C   UNL     1      -3.019   3.978  26.242  0.00  0.00    +0.030 A 
ENDBRANCH   8   5
BRANCH  17  24
ATOM     24  C   UNL     1      -1.942   1.616  24.628  0.00  0.00    +0.001 A 
ATOM     25  C   UNL     1      -1.712   1.536  23.840  0.00  0.00    +0.001 A 
ATOM     26  C   UNL     1      -1.145   0.975  23.630  0.00  0.00    +0.011 A 
ATOM     27  C   UNL     1      -0.808   0.492  24.208  0.00  0.00    +0.058 A 
ATOM     28 CL   UNL     1      -0.223  -0.096  24.035  0.00  0.00    -0.082 Cl
ATOM     29  C   UNL     1      -1.038   0.572  24.996  0.00  0.00    +0.011 A 
ATOM     30  C   UNL     1      -1.605   1.134  25.206  0.00  0.00    +0.001 A 
ENDBRANCH  17  24
TORSDOF 2
ENDMDL
MODEL 4
REMARK VINA RESULT:     -16.3      2.730      4.273
REMARK  Name = 
REMARK  2 active torsions:
REMARK  status: ('A' for Active; 'I' for Inactive)
REMARK    1  A    between atoms: C_5  and  C_8
REMARK    2  A    between atoms: C_17  and  C_24
REMARK                            x       y       z     vdW  Elec       q    Type
REMARK                         _______ _______ _______ _____ _____    ______ ____
ROOT
ATOM      8  C   UNL     1      -1.710  -2.247  24.732  0.00  0.00    +0.249 C 
ATOM      9  O   UNL     1      -1.312  -3.032  24.678  0.00  0.00    -0.270 OA
ATOM     10  N   UNL     1      -2.567  -2.164  24.489  0.00  0.00    -0.276 N 
ATOM     11  C   UNL     1      -3.260  -2.527  24.197  0.00  0.00    +0.096 C 
ATOM     12  C   UNL     1      -3.865  -1.746  24.187  0.00  0.00    +0.043 C 
ATOM     13  C   UNL     1      -4.478  -1.213  24.119  0.00  0.00    +0.011 C 
ATOM     14  C   UNL     1      -3.807  -1.209  24.325  0.00  0.00    +0.058 C 
ATOM     15  C   UNL     1      -3.235  -1.973  24.329  0.00  0.00    +0.099 C 
ATOM     16  C   UNL     1      -3.157  -0.647  24.650  0.00  0.00    +0.041 A 
ATOM     17  C   UNL     1      -3.039   0.142  24.862  0.00  0.00    +0.012 A 
ATOM     18  C   UNL     1      -2.303   0.388  25.142  0.00  0.00    +0.006 A 
ATOM     19  C   UNL     1      -1.684  -0.155  25.209  0.00  0.00    +0.061 A 
ATOM     20  C   UNL     1      -1.802  -0.943  24.996  0.00  0.00    +0.261 A 
ATOM     21  O   UNL     1      -1.058  -1.648  25.066  0.00  0.00    -0.267 OA
ATOM     22  N   UNL     1      -2.538  -1.189  24.717  0.00  0.00    -0.299 N 
ATOM     23  C   UNL     1      -3.179  -1.166  24.526  0.00  0.00    +0.110 C 
ENDROOT
BRANCH   8   5
ATOM      1  F   UNL     1      -0.766   0.971  25.402  0.00  0.00    -0.204 F 
ATOM      2  C   UNL     1      -1.011   0.195  25.266  0.00  0.00    +0.140 A 
ATOM      3  C   UNL     1      -1.512  -0.069  25.847  0.00  0.00    +0.030 A 
ATOM      4  C   UNL     1      -1.769  -0.951  25.661  0.00  0.00    +0.007 A 
ATOM      5  C   UNL     1      -1.501  -1.357  24.996  0.00  0.00    +0.054 A 
ATOM      6  C   UNL     1      -0.989  -0.988  24.465  0.00  0.00    +0.007 A 
ATOM      7  C   UNL     1      -0.744  -0.212  24.601  0.00  0.00    +0.030 A 
ENDBRANCH   8   5
BRANCH  17  24
ATOM     24  C   UNL     1      -3.657   0.684  24.795  0.00  0.00    +0.001 A 
ATOM     25  C   UNL     1      -3.706   1.173  24.133  0.00  0.00    +0.001 A 
ATOM     26  C   UNL     1      -4.325   1.715  24.066  0.00  0.00    +0.011 A 
ATOM     27  C   UNL     1      -4.894   1.768  24.660  0.00  0.00    +0.058 A 
ATOM     28 CL   UNL     1      -5.544   2.311  24.630  0.00  0.00    -0.082 Cl
ATOM     29  C   UNL     1      -4.845   1.279  25.322  0.00  0.00    +0.011 A 
ATOM     30  C   UNL     1      -4.226   0.736  25.390  0.00  0.00    +0.001 A 
ENDBRANCH  17  24
TORSDOF 2
ENDMDL
MODEL 5
REMARK VINA RESULT:     -16.2      2.487      3.859
REMARK  Name = 
REMARK  2 active torsions:
REMARK  status: ('A' for Active; 'I' for Inactive)
REMARK    1  A    between atoms: C_5  and  C_8
REMARK    2  A    between atoms: C_17  and  C_24
REMARK                            x       y       z     vdW  Elec       q    Type
REMARK                         _______ _______ _______ _____ _____    ______ ____
ROOT
ATOM      8  C   UNL     1      -1.783  -1.847  24.961  0.00  0.00    +0.249 C 
ATOM      9  O   UNL     1      -1.287  -2.559  25.124  0.00  0.00    -0.270 OA
ATOM     10  N   UNL     1      -1.404  -1.038  24.920  0.00  0.00    -0.276 N 
ATOM     11  C   UNL     1      -0.709  -0.577  24.970  0.00  0.00    +0.096 C 
ATOM     12  C   UNL     1      -1.092   0.318  24.801  0.00  0.00    +0.043 C 
ATOM     13  C   UNL     1      -1.247   1.108  24.681  0.00  0.00    +0.011 C 
ATOM     14  C   UNL     1      -1.607   0.506  24.700  0.00  0.00    +0.058 C 
ATOM     15  C   UNL     1      -1.222  -0.352  24.864  0.00  0.00    +0.099 C 
ATOM     16  C   UNL     1      -2.458   0.172  24.610  0.00  0.00    +0.041 A 
ATOM     17  C   UNL     1      -3.231   0.420  24.462  0.00  0.00    +0.012 A 
ATOM     18  C   UNL     1      -3.843  -0.133  24.436  0.00  0.00    +0.006 A 
ATOM     19  C   UNL     1      -3.682  -0.933  24.559  0.00  0.00    +0.061 A 
ATOM     20  C   UNL     1      -2.910  -1.180  24.707  0.00  0.00    +0.261 A 
ATOM     21  O   UNL     1      -2.669  -2.167  24.865  0.00  0.00    -0.267 OA
ATOM     22  N   UNL     1      -2.298  -0.628  24.733  0.00  0.00    -0.299 N 
ATOM     23  C   UNL     1      -1.978  -0.040  24.710  0.00  0.00    +0.110 C 
ENDROOT
BRANCH   8   5
ATOM      1  F   UNL     1      -5.029  -1.246  24.071  0.00  0.00    -0.204 F 
ATOM      2  C   UNL     1      -4.252  -1.377  24.312  0.00  0.00    +0.140 A 
ATOM      3  C   UNL     1      -4.108  -1.065  25.047  0.00  0.00    +0.030 A 
ATOM      4  C   UNL     1      -3.218  -1.231  25.289  0.00  0.00    +0.007 A 
ATOM      5  C   UNL     1      -2.696  -1.637  24.796  0.00  0.00    +0.054 A 
ATOM      6  C   UNL     1      -2.951  -1.913  24.062  0.00  0.00    +0.007 A 
ATOM      7  C   UNL     1      -3.729  -1.783  23.820  0.00  0.00    +0.030 A 
ENDBRANCH   8   5
BRANCH  17  24
ATOM     24  C   UNL     1      -3.392   1.220  24.339  0.00  0.00    +0.001 A 
ATOM     25  C   UNL     1      -3.332   1.541  23.582  0.00  0.00    +0.001 A 
ATOM     26  C   UNL     1      -3.493   2.341  23.460  0.00  0.00    +0.011 A 
ATOM     27  C   UNL     1      -3.713   2.819  24.094  0.00  0.00    +0.058 A 
ATOM     28 CL   UNL     1      -3.887   3.645  24.011  0.00  0.00    -0.082 Cl
ATOM     29  C   UNL     1      -3.773   2.498  24.851  0.00  0.00    +0.011 A 
ATOM     30  C   UNL     1      -3.612   1.698  24.974  0.00  0.00    +0.001 A 
ENDBRANCH  17  24
TORSDOF 2
ENDMDL
