REMARK  Name = 
REMARK  7 active torsions:
REMARK  status: ('A' for Active; 'I' for Inactive)
REMARK    1  A    between atoms: N_2  and  C_3
REMARK    2  A    between atoms: N_2  and  C_10
REMARK    3  A    between atoms: C_3  and  C_4
REMARK    4  A    between atoms: C_13  and  C_14
REMARK    5  A    between atoms: C_17  and  C_18
REMARK    6  A    between atoms: C_18  and  N_19
REMARK    7  A    between atoms: N_22  and  C_23
REMARK                            x       y       z     vdW  Elec       q    Type
REMARK                         _______ _______ _______ _____ _____    ______ ____
ROOT
ATOM     10  C   UNL     1      -0.754  -2.811   0.000  0.00  0.00    +0.120 C 
ATOM     11  C   UNL     1      -1.306  -2.197   0.000  0.00  0.00    +0.198 C 
ATOM     12  O   UNL     1      -2.126  -2.284   0.000  0.00  0.00    -0.219 OA
ATOM     13  C   UNL     1      -0.893  -1.483   0.000  0.00  0.00    +0.180 C 
ATOM     16  O   UNL     1      -0.086  -1.655   0.000  0.00  0.00    -0.350 OA
ATOM     17  C   UNL     1       0.000  -2.475   0.000  0.00  0.00    +0.154 C 
ENDROOT
BRANCH  10   2
ATOM      1  C   UNL     1      -0.312  -4.170   0.000  0.00  0.00    +0.090 C 
ATOM      2  N   UNL     1      -0.925  -3.618   0.000  0.00  0.00    -0.265 NA
BRANCH   2   3
ATOM      3  C   UNL     1      -1.710  -3.873   0.000  0.00  0.00    +0.099 C 
BRANCH   3   4
ATOM      4  C   UNL     1      -1.881  -4.679   0.000  0.00  0.00    -0.006 A 
ATOM      5  C   UNL     1      -1.268  -5.231   0.000  0.00  0.00    -0.003 A 
ATOM      6  C   UNL     1      -1.440  -6.038   0.000  0.00  0.00    -0.000 A 
ATOM      7  C   UNL     1      -2.224  -6.293   0.000  0.00  0.00    -0.000 A 
ATOM      8  C   UNL     1      -2.837  -5.741   0.000  0.00  0.00    -0.000 A 
ATOM      9  C   UNL     1      -2.666  -4.934   0.000  0.00  0.00    -0.003 A 
ENDBRANCH   3   4
ENDBRANCH   2   3
ENDBRANCH  10   2
BRANCH  13  14
ATOM     14  C   UNL     1      -1.229  -0.729   0.000  0.00  0.00    +0.214 C 
ATOM     15  O   UNL     1      -0.744  -0.062   0.000  0.00  0.00    -0.218 OA
ENDBRANCH  13  14
BRANCH  17  18
ATOM     18  C   UNL     1       0.715  -2.888   0.000  0.00  0.00    +0.148 C 
BRANCH  18  19
ATOM     19  N   UNL     1       1.429  -2.475   0.000  0.00  0.00    -0.184 NA
ATOM     20  C   UNL     1       2.143  -2.888   0.000  0.00  0.00    +0.344 C 
ATOM     21  O   UNL     1       2.143  -3.712   0.000  0.00  0.00    -0.249 OA
ATOM     22  N   UNL     1       2.858  -2.475   0.000  0.00  0.00    -0.161 NA
BRANCH  22  23
ATOM     23  C   UNL     1       3.572  -2.888   0.000  0.00  0.00    +0.076 A 
ATOM     24  C   UNL     1       4.287  -2.475   0.000  0.00  0.00    +0.028 A 
ATOM     25  C   UNL     1       5.001  -2.888   0.000  0.00  0.00    +0.059 A 
ATOM     26 CL   UNL     1       5.716  -2.475   0.000  0.00  0.00    -0.082 Cl
ATOM     27  C   UNL     1       5.001  -3.712   0.000  0.00  0.00    +0.011 A 
ATOM     28  C   UNL     1       4.287  -4.125   0.000  0.00  0.00    +0.002 A 
ATOM     29  C   UNL     1       3.572  -3.712   0.000  0.00  0.00    +0.017 A 
ENDBRANCH  22  23
ENDBRANCH  18  19
ENDBRANCH  17  18
TORSDOF 7
