MODEL 1
REMARK VINA RESULT:     -10.4      0.000      0.000
REMARK  Name = 
REMARK  5 active torsions:
REMARK  status: ('A' for Active; 'I' for Inactive)
REMARK    1  A    between atoms: O_2  and  C_3
REMARK    2  A    between atoms: C_3  and  C_4
REMARK    3  A    between atoms: C_10  and  C_13
REMARK    4  A    between atoms: C_16  and  C_18
REMARK    5  A    between atoms: N_22  and  C_23
REMARK                            x       y       z     vdW  Elec       q    Type
REMARK                         _______ _______ _______ _____ _____    ______ ____
ROOT
ATOM     13  C   UNL     1      -1.171   0.389  24.582  0.00  0.00    +0.205 A 
ATOM     14  N   UNL     1      -1.276   0.339  25.399  0.00  0.00    -0.056 NA
ATOM     15  O   UNL     1      -2.072   0.475  25.563  0.00  0.00    -0.336 OA
ATOM     16  C   UNL     1      -2.460   0.609  24.846  0.00  0.00    +0.251 A 
ATOM     17  N   UNL     1      -1.903   0.556  24.242  0.00  0.00    -0.190 NA
ENDROOT
BRANCH  13  10
ATOM      4  C   UNL     1       2.240   0.596  22.964  0.00  0.00    +0.277 C 
ATOM      5  O   UNL     1       2.090   1.299  23.369  0.00  0.00    -0.270 OA
ATOM      6  N   UNL     1       1.678  -0.008  22.965  0.00  0.00    -0.158 NA
ATOM      7  C   UNL     1       0.966   0.091  23.369  0.00  0.00    +0.155 A 
ATOM      8  N   UNL     1       0.404  -0.513  23.369  0.00  0.00    -0.227 NA
ATOM      9  C   UNL     1      -0.308  -0.413  23.774  0.00  0.00    +0.103 A 
ATOM     10  C   UNL     1      -0.459   0.290  24.178  0.00  0.00    +0.058 A 
ATOM     11  C   UNL     1       0.104   0.894  24.178  0.00  0.00    +0.008 A 
ATOM     12  C   UNL     1       0.816   0.795  23.773  0.00  0.00    +0.036 A 
BRANCH   4   3
ATOM      3  C   UNL     1       2.953   0.497  22.560  0.00  0.00    +0.229 C 
BRANCH   3   2
ATOM      1  C   UNL     1       4.376   0.604  22.612  0.00  0.00    +0.175 C 
ATOM      2  O   UNL     1       3.630   0.891  22.815  0.00  0.00    -0.342 OA
ENDBRANCH   3   2
ENDBRANCH   4   3
ENDBRANCH  13  10
BRANCH  16  18
ATOM     18  C   UNL     1      -3.264   0.769  24.754  0.00  0.00    +0.138 C 
ATOM     19  C   UNL     1      -3.605   1.515  24.674  0.00  0.00    +0.027 C 
ATOM     20  C   UNL     1      -4.421   1.416  24.596  0.00  0.00    +0.019 C 
ATOM     21  C   UNL     1      -4.583   0.608  24.627  0.00  0.00    +0.072 C 
ATOM     22  N   UNL     1      -3.869   0.207  24.725  0.00  0.00    -0.268 NA
BRANCH  22  23
ATOM     23  C   UNL     1      -3.775  -0.610  24.783  0.00  0.00    +0.058 C 
ATOM     24  C   UNL     1      -3.779  -1.074  24.100  0.00  0.00    +0.016 C 
ATOM     25  C   UNL     1      -3.684  -1.892  24.158  0.00  0.00    +0.001 C 
ATOM     26  C   UNL     1      -3.585  -2.245  24.897  0.00  0.00    +0.000 C 
ATOM     27  C   UNL     1      -3.581  -1.781  25.578  0.00  0.00    +0.001 C 
ATOM     28  C   UNL     1      -3.676  -0.963  25.521  0.00  0.00    +0.016 C 
ENDBRANCH  22  23
ENDBRANCH  16  18
TORSDOF 5
ENDMDL
MODEL 2
REMARK VINA RESULT:      -9.9      2.569      4.725
REMARK  Name = 
REMARK  5 active torsions:
REMARK  status: ('A' for Active; 'I' for Inactive)
REMARK    1  A    between atoms: O_2  and  C_3
REMARK    2  A    between atoms: C_3  and  C_4
REMARK    3  A    between atoms: C_10  and  C_13
REMARK    4  A    between atoms: C_16  and  C_18
REMARK    5  A    between atoms: N_22  and  C_23
REMARK                            x       y       z     vdW  Elec       q    Type
REMARK                         _______ _______ _______ _____ _____    ______ ____
ROOT
ATOM     13  C   UNL     1      -1.071   1.814  25.433  0.00  0.00    +0.205 A 
ATOM     14  N   UNL     1      -0.802   2.061  26.173  0.00  0.00    -0.056 NA
ATOM     15  O   UNL     1      -0.743   2.883  26.162  0.00  0.00    -0.336 OA
ATOM     16  C   UNL     1      -0.976   3.145  25.414  0.00  0.00    +0.251 A 
ATOM     17  N   UNL     1      -1.178   2.485  24.965  0.00  0.00    -0.190 NA
ENDROOT
BRANCH  13  10
ATOM      4  C   UNL     1      -2.318  -1.686  24.736  0.00  0.00    +0.277 C 
ATOM      5  O   UNL     1      -2.877  -1.286  25.191  0.00  0.00    -0.270 OA
ATOM      6  N   UNL     1      -1.620  -1.306  24.511  0.00  0.00    -0.158 NA
ATOM      7  C   UNL     1      -1.483  -0.526  24.741  0.00  0.00    +0.155 A 
ATOM      8  N   UNL     1      -0.787  -0.146  24.516  0.00  0.00    -0.227 NA
ATOM      9  C   UNL     1      -0.649   0.634  24.747  0.00  0.00    +0.103 A 
ATOM     10  C   UNL     1      -1.208   1.034  25.202  0.00  0.00    +0.058 A 
ATOM     11  C   UNL     1      -1.905   0.654  25.427  0.00  0.00    +0.008 A 
ATOM     12  C   UNL     1      -2.043  -0.126  25.197  0.00  0.00    +0.036 A 
BRANCH   4   3
ATOM      3  C   UNL     1      -2.455  -2.466  24.505  0.00  0.00    +0.229 C 
BRANCH   3   2
ATOM      1  C   UNL     1      -3.492  -3.403  24.209  0.00  0.00    +0.175 C 
ATOM      2  O   UNL     1      -3.161  -2.839  24.712  0.00  0.00    -0.342 OA
ENDBRANCH   3   2
ENDBRANCH   4   3
ENDBRANCH  13  10
BRANCH  16  18
ATOM     18  C   UNL     1      -1.001   3.931  25.162  0.00  0.00    +0.138 C 
ATOM     19  C   UNL     1      -0.365   4.368  24.873  0.00  0.00    +0.027 C 
ATOM     20  C   UNL     1      -0.639   5.125  24.688  0.00  0.00    +0.019 C 
ATOM     21  C   UNL     1      -1.444   5.153  24.863  0.00  0.00    +0.072 C 
ATOM     22  N   UNL     1      -1.669   4.417  25.156  0.00  0.00    -0.268 NA
BRANCH  22  23
ATOM     23  C   UNL     1      -2.426   4.201  25.401  0.00  0.00    +0.058 C 
ATOM     24  C   UNL     1      -2.977   3.933  24.847  0.00  0.00    +0.016 C 
ATOM     25  C   UNL     1      -3.735   3.717  25.091  0.00  0.00    +0.001 C 
ATOM     26  C   UNL     1      -3.943   3.768  25.888  0.00  0.00    +0.000 C 
ATOM     27  C   UNL     1      -3.392   4.036  26.441  0.00  0.00    +0.001 C 
ATOM     28  C   UNL     1      -2.634   4.252  26.197  0.00  0.00    +0.016 C 
ENDBRANCH  22  23
ENDBRANCH  16  18
TORSDOF 5
ENDMDL
MODEL 3
REMARK VINA RESULT:      -9.7      0.977      1.881
REMARK  Name = 
REMARK  5 active torsions:
REMARK  status: ('A' for Active; 'I' for Inactive)
REMARK    1  A    between atoms: O_2  and  C_3
REMARK    2  A    between atoms: C_3  and  C_4
REMARK    3  A    between atoms: C_10  and  C_13
REMARK    4  A    between atoms: C_16  and  C_18
REMARK    5  A    between atoms: N_22  and  C_23
REMARK                            x       y       z     vdW  Elec       q    Type
REMARK                         _______ _______ _______ _____ _____    ______ ____
ROOT
ATOM     13  C   UNL     1      -1.162  -0.596  24.621  0.00  0.00    +0.205 A 
ATOM     14  N   UNL     1      -1.361  -0.630  25.421  0.00  0.00    -0.056 NA
ATOM     15  O   UNL     1      -2.075  -1.035  25.489  0.00  0.00    -0.336 OA
ATOM     16  C   UNL     1      -2.319  -1.252  24.730  0.00  0.00    +0.251 A 
ATOM     17  N   UNL     1      -1.754  -0.980  24.195  0.00  0.00    -0.190 NA
ENDROOT
BRANCH  13  10
ATOM      4  C   UNL     1       2.074   0.378  22.924  0.00  0.00    +0.277 C 
ATOM      5  O   UNL     1       1.943  -0.429  22.814  0.00  0.00    -0.270 OA
ATOM      6  N   UNL     1       1.530   0.830  23.352  0.00  0.00    -0.158 NA
ATOM      7  C   UNL     1       0.857   0.473  23.669  0.00  0.00    +0.155 A 
ATOM      8  N   UNL     1       0.315   0.924  24.096  0.00  0.00    -0.227 NA
ATOM      9  C   UNL     1      -0.358   0.568  24.414  0.00  0.00    +0.103 A 
ATOM     10  C   UNL     1      -0.489  -0.239  24.304  0.00  0.00    +0.058 A 
ATOM     11  C   UNL     1       0.055  -0.690  23.876  0.00  0.00    +0.008 A 
ATOM     12  C   UNL     1       0.728  -0.334  23.559  0.00  0.00    +0.036 A 
BRANCH   4   3
ATOM      3  C   UNL     1       2.747   0.735  22.607  0.00  0.00    +0.229 C 
BRANCH   3   2
ATOM      1  C   UNL     1       4.173   0.775  22.548  0.00  0.00    +0.175 C 
ATOM      2  O   UNL     1       3.473   0.348  22.643  0.00  0.00    -0.342 OA
ENDBRANCH   3   2
ENDBRANCH   4   3
ENDBRANCH  13  10
BRANCH  16  18
ATOM     18  C   UNL     1      -3.006  -1.667  24.542  0.00  0.00    +0.138 C 
ATOM     19  C   UNL     1      -3.064  -2.481  24.422  0.00  0.00    +0.027 C 
ATOM     20  C   UNL     1      -3.851  -2.657  24.247  0.00  0.00    +0.019 C 
ATOM     21  C   UNL     1      -4.279  -1.952  24.260  0.00  0.00    +0.072 C 
ATOM     22  N   UNL     1      -3.758  -1.340  24.442  0.00  0.00    -0.268 NA
BRANCH  22  23
ATOM     23  C   UNL     1      -3.951  -0.541  24.512  0.00  0.00    +0.058 C 
ATOM     24  C   UNL     1      -3.897  -0.046  23.855  0.00  0.00    +0.016 C 
ATOM     25  C   UNL     1      -4.090   0.754  23.924  0.00  0.00    +0.001 C 
ATOM     26  C   UNL     1      -4.338   1.057  24.651  0.00  0.00    +0.000 C 
ATOM     27  C   UNL     1      -4.393   0.561  25.307  0.00  0.00    +0.001 C 
ATOM     28  C   UNL     1      -4.199  -0.238  25.238  0.00  0.00    +0.016 C 
ENDBRANCH  22  23
ENDBRANCH  16  18
TORSDOF 5
ENDMDL
MODEL 4
REMARK VINA RESULT:      -9.5      1.667      2.778
REMARK  Name = 
REMARK  5 active torsions:
REMARK  status: ('A' for Active; 'I' for Inactive)
REMARK    1  A    between atoms: O_2  and  C_3
REMARK    2  A    between atoms: C_3  and  C_4
REMARK    3  A    between atoms: C_10  and  C_13
REMARK    4  A    between atoms: C_16  and  C_18
REMARK    5  A    between atoms: N_22  and  C_23
REMARK                            x       y       z     vdW  Elec       q    Type
REMARK                         _______ _______ _______ _____ _____    ______ ____
ROOT
ATOM     13  C   UNL     1      -1.526   1.138  24.571  0.00  0.00    +0.205 A 
ATOM     14  N   UNL     1      -1.709   1.082  25.374  0.00  0.00    -0.056 NA
ATOM     15  O   UNL     1      -2.450   1.422  25.491  0.00  0.00    -0.336 OA
ATOM     16  C   UNL     1      -2.727   1.689  24.760  0.00  0.00    +0.251 A 
ATOM     17  N   UNL     1      -2.155   1.513  24.193  0.00  0.00    -0.190 NA
ENDROOT
BRANCH  13  10
ATOM      4  C   UNL     1       1.912   0.529  23.120  0.00  0.00    +0.277 C 
ATOM      5  O   UNL     1       1.895   1.276  23.470  0.00  0.00    -0.270 OA
ATOM      6  N   UNL     1       1.237   0.053  23.130  0.00  0.00    -0.158 NA
ATOM      7  C   UNL     1       0.547   0.325  23.490  0.00  0.00    +0.155 A 
ATOM      8  N   UNL     1      -0.127  -0.151  23.501  0.00  0.00    -0.227 NA
ATOM      9  C   UNL     1      -0.817   0.120  23.861  0.00  0.00    +0.103 A 
ATOM     10  C   UNL     1      -0.835   0.867  24.211  0.00  0.00    +0.058 A 
ATOM     11  C   UNL     1      -0.160   1.343  24.201  0.00  0.00    +0.008 A 
ATOM     12  C   UNL     1       0.530   1.072  23.840  0.00  0.00    +0.036 A 
BRANCH   4   3
ATOM      3  C   UNL     1       2.603   0.258  22.759  0.00  0.00    +0.229 C 
BRANCH   3   2
ATOM      1  C   UNL     1       3.962   0.469  22.375  0.00  0.00    +0.175 C 
ATOM      2  O   UNL     1       3.276   0.733  22.749  0.00  0.00    -0.342 OA
ENDBRANCH   3   2
ENDBRANCH   4   3
ENDBRANCH  13  10
BRANCH  16  18
ATOM     18  C   UNL     1      -3.448   2.065  24.624  0.00  0.00    +0.138 C 
ATOM     19  C   UNL     1      -4.135   1.709  24.339  0.00  0.00    +0.027 C 
ATOM     20  C   UNL     1      -4.720   2.289  24.288  0.00  0.00    +0.019 C 
ATOM     21  C   UNL     1      -4.394   3.003  24.540  0.00  0.00    +0.072 C 
ATOM     22  N   UNL     1      -3.608   2.866  24.748  0.00  0.00    -0.268 NA
BRANCH  22  23
ATOM     23  C   UNL     1      -3.075   3.428  25.031  0.00  0.00    +0.058 C 
ATOM     24  C   UNL     1      -2.613   3.860  24.500  0.00  0.00    +0.016 C 
ATOM     25  C   UNL     1      -2.079   4.423  24.782  0.00  0.00    +0.001 C 
ATOM     26  C   UNL     1      -2.007   4.553  25.594  0.00  0.00    +0.000 C 
ATOM     27  C   UNL     1      -2.468   4.121  26.123  0.00  0.00    +0.001 C 
ATOM     28  C   UNL     1      -3.002   3.558  25.841  0.00  0.00    +0.016 C 
ENDBRANCH  22  23
ENDBRANCH  16  18
TORSDOF 5
ENDMDL
MODEL 5
REMARK VINA RESULT:      -9.2      2.438      3.615
REMARK  Name = 
REMARK  5 active torsions:
REMARK  status: ('A' for Active; 'I' for Inactive)
REMARK    1  A    between atoms: O_2  and  C_3
REMARK    2  A    between atoms: C_3  and  C_4
REMARK    3  A    between atoms: C_10  and  C_13
REMARK    4  A    between atoms: C_16  and  C_18
REMARK    5  A    between atoms: N_22  and  C_23
REMARK                            x       y       z     vdW  Elec       q    Type
REMARK                         _______ _______ _______ _____ _____    ______ ____
ROOT
ATOM     13  C   UNL     1      -1.050   0.335  25.297  0.00  0.00    +0.205 A 
ATOM     14  N   UNL     1      -0.973  -0.046  26.024  0.00  0.00    -0.056 NA
ATOM     15  O   UNL     1      -1.173  -0.839  25.920  0.00  0.00    -0.336 OA
ATOM     16  C   UNL     1      -1.374  -0.948  25.126  0.00  0.00    +0.251 A 
ATOM     17  N   UNL     1      -1.297  -0.223  24.743  0.00  0.00    -0.190 NA
ENDROOT
BRANCH  13  10
ATOM      4  C   UNL     1      -0.932   4.108  25.073  0.00  0.00    +0.277 C 
ATOM      5  O   UNL     1      -1.542   3.886  25.582  0.00  0.00    -0.270 OA
ATOM      6  N   UNL     1      -0.467   3.530  24.710  0.00  0.00    -0.158 NA
ATOM      7  C   UNL     1      -0.613   2.731  24.857  0.00  0.00    +0.155 A 
ATOM      8  N   UNL     1      -0.149   2.154  24.494  0.00  0.00    -0.227 NA
ATOM      9  C   UNL     1      -0.294   1.356  24.641  0.00  0.00    +0.103 A 
ATOM     10  C   UNL     1      -0.904   1.134  25.150  0.00  0.00    +0.058 A 
ATOM     11  C   UNL     1      -1.369   1.712  25.513  0.00  0.00    +0.008 A 
ATOM     12  C   UNL     1      -1.223   2.510  25.366  0.00  0.00    +0.036 A 
BRANCH   4   3
ATOM      3  C   UNL     1      -0.787   4.907  24.926  0.00  0.00    +0.229 C 
BRANCH   3   2
ATOM      1  C   UNL     1      -1.370   6.199  24.753  0.00  0.00    +0.175 C 
ATOM      2  O   UNL     1      -1.343   5.474  25.145  0.00  0.00    -0.342 OA
ENDBRANCH   3   2
ENDBRANCH   4   3
ENDBRANCH  13  10
BRANCH  16  18
ATOM     18  C   UNL     1      -1.609  -1.659  24.780  0.00  0.00    +0.138 C 
ATOM     19  C   UNL     1      -1.110  -2.262  24.521  0.00  0.00    +0.027 C 
ATOM     20  C   UNL     1      -1.579  -2.867  24.213  0.00  0.00    +0.019 C 
ATOM     21  C   UNL     1      -2.369  -2.637  24.282  0.00  0.00    +0.072 C 
ATOM     22  N   UNL     1      -2.388  -1.891  24.632  0.00  0.00    -0.268 NA
BRANCH  22  23
ATOM     23  C   UNL     1      -3.065  -1.452  24.804  0.00  0.00    +0.058 C 
ATOM     24  C   UNL     1      -3.432  -1.012  24.210  0.00  0.00    +0.016 C 
ATOM     25  C   UNL     1      -4.110  -0.573  24.382  0.00  0.00    +0.001 C 
ATOM     26  C   UNL     1      -4.420  -0.574  25.147  0.00  0.00    +0.000 C 
ATOM     27  C   UNL     1      -4.052  -1.014  25.740  0.00  0.00    +0.001 C 
ATOM     28  C   UNL     1      -3.375  -1.453  25.568  0.00  0.00    +0.016 C 
ENDBRANCH  22  23
ENDBRANCH  16  18
TORSDOF 5
ENDMDL
MODEL 6
REMARK VINA RESULT:      -8.9      3.010      4.083
REMARK  Name = 
REMARK  5 active torsions:
REMARK  status: ('A' for Active; 'I' for Inactive)
REMARK    1  A    between atoms: O_2  and  C_3
REMARK    2  A    between atoms: C_3  and  C_4
REMARK    3  A    between atoms: C_10  and  C_13
REMARK    4  A    between atoms: C_16  and  C_18
REMARK    5  A    between atoms: N_22  and  C_23
REMARK                            x       y       z     vdW  Elec       q    Type
REMARK                         _______ _______ _______ _____ _____    ______ ____
ROOT
ATOM     13  C   UNL     1      -3.693   0.576  24.888  0.00  0.00    +0.205 A 
ATOM     14  N   UNL     1      -4.103   0.255  25.527  0.00  0.00    -0.056 NA
ATOM     15  O   UNL     1      -4.215  -0.548  25.382  0.00  0.00    -0.336 OA
ATOM     16  C   UNL     1      -3.874  -0.724  24.650  0.00  0.00    +0.251 A 
ATOM     17  N   UNL     1      -3.552  -0.029  24.346  0.00  0.00    -0.190 NA
ENDROOT
BRANCH  13  10
ATOM      4  C   UNL     1      -2.196   4.045  25.051  0.00  0.00    +0.277 C 
ATOM      5  O   UNL     1      -1.847   3.572  25.630  0.00  0.00    -0.270 OA
ATOM      6  N   UNL     1      -2.776   3.729  24.556  0.00  0.00    -0.158 NA
ATOM      7  C   UNL     1      -3.005   2.941  24.639  0.00  0.00    +0.155 A 
ATOM      8  N   UNL     1      -3.584   2.626  24.143  0.00  0.00    -0.227 NA
ATOM      9  C   UNL     1      -3.813   1.837  24.227  0.00  0.00    +0.103 A 
ATOM     10  C   UNL     1      -3.463   1.364  24.805  0.00  0.00    +0.058 A 
ATOM     11  C   UNL     1      -2.884   1.681  25.301  0.00  0.00    +0.008 A 
ATOM     12  C   UNL     1      -2.655   2.469  25.218  0.00  0.00    +0.036 A 
BRANCH   4   3
ATOM      3  C   UNL     1      -1.967   4.833  24.968  0.00  0.00    +0.229 C 
BRANCH   3   2
ATOM      1  C   UNL     1      -0.882   5.739  24.768  0.00  0.00    +0.175 C 
ATOM      2  O   UNL     1      -1.185   5.052  25.109  0.00  0.00    -0.342 OA
ENDBRANCH   3   2
ENDBRANCH   4   3
ENDBRANCH  13  10
BRANCH  16  18
ATOM     18  C   UNL     1      -3.860  -1.466  24.289  0.00  0.00    +0.138 C 
ATOM     19  C   UNL     1      -4.479  -1.814  23.871  0.00  0.00    +0.027 C 
ATOM     20  C   UNL     1      -4.224  -2.553  23.606  0.00  0.00    +0.019 C 
ATOM     21  C   UNL     1      -3.447  -2.661  23.861  0.00  0.00    +0.072 C 
ATOM     22  N   UNL     1      -3.221  -1.990  24.283  0.00  0.00    -0.268 NA
BRANCH  22  23
ATOM     23  C   UNL     1      -2.487  -1.862  24.637  0.00  0.00    +0.058 C 
ATOM     24  C   UNL     1      -1.853  -1.594  24.182  0.00  0.00    +0.016 C 
ATOM     25  C   UNL     1      -1.118  -1.466  24.536  0.00  0.00    +0.001 C 
ATOM     26  C   UNL     1      -1.018  -1.606  25.343  0.00  0.00    +0.000 C 
ATOM     27  C   UNL     1      -1.653  -1.874  25.797  0.00  0.00    +0.001 C 
ATOM     28  C   UNL     1      -2.387  -2.002  25.443  0.00  0.00    +0.016 C 
ENDBRANCH  22  23
ENDBRANCH  16  18
TORSDOF 5
ENDMDL
MODEL 7
REMARK VINA RESULT:      -8.8      2.711      4.146
REMARK  Name = 
REMARK  5 active torsions:
REMARK  status: ('A' for Active; 'I' for Inactive)
REMARK    1  A    between atoms: O_2  and  C_3
REMARK    2  A    between atoms: C_3  and  C_4
REMARK    3  A    between atoms: C_10  and  C_13
REMARK    4  A    between atoms: C_16  and  C_18
REMARK    5  A    between atoms: N_22  and  C_23
REMARK                            x       y       z     vdW  Elec       q    Type
REMARK                         _______ _______ _______ _____ _____    ______ ____
ROOT
ATOM     13  C   UNL     1      -3.555   1.193  24.396  0.00  0.00    +0.205 A 
ATOM     14  N   UNL     1      -3.655   1.615  23.695  0.00  0.00    -0.056 NA
ATOM     15  O   UNL     1      -4.132   2.268  23.856  0.00  0.00    -0.336 OA
ATOM     16  C   UNL     1      -4.327   2.249  24.658  0.00  0.00    +0.251 A 
ATOM     17  N   UNL     1      -3.971   1.585  24.991  0.00  0.00    -0.190 NA
ENDROOT
BRANCH  13  10
ATOM      4  C   UNL     1      -0.997  -1.538  24.943  0.00  0.00    +0.277 C 
ATOM      5  O   UNL     1      -0.633  -0.804  25.037  0.00  0.00    -0.270 OA
ATOM      6  N   UNL     1      -1.801  -1.579  24.758  0.00  0.00    -0.158 NA
ATOM      7  C   UNL     1      -2.239  -0.886  24.668  0.00  0.00    +0.155 A 
ATOM      8  N   UNL     1      -3.042  -0.927  24.483  0.00  0.00    -0.227 NA
ATOM      9  C   UNL     1      -3.480  -0.235  24.393  0.00  0.00    +0.103 A 
ATOM     10  C   UNL     1      -3.116   0.500  24.487  0.00  0.00    +0.058 A 
ATOM     11  C   UNL     1      -2.313   0.541  24.671  0.00  0.00    +0.008 A 
ATOM     12  C   UNL     1      -1.874  -0.152  24.762  0.00  0.00    +0.036 A 
BRANCH   4   3
ATOM      3  C   UNL     1      -0.559  -2.231  25.033  0.00  0.00    +0.229 C 
BRANCH   3   2
ATOM      1  C   UNL     1       0.572  -2.916  25.574  0.00  0.00    +0.175 C 
ATOM      2  O   UNL     1       0.156  -2.215  25.443  0.00  0.00    -0.342 OA
ENDBRANCH   3   2
ENDBRANCH   4   3
ENDBRANCH  13  10
BRANCH  16  18
ATOM     18  C   UNL     1      -4.797   2.799  25.055  0.00  0.00    +0.138 C 
ATOM     19  C   UNL     1      -5.610   2.742  25.181  0.00  0.00    +0.027 C 
ATOM     20  C   UNL     1      -5.850   3.411  25.600  0.00  0.00    +0.019 C 
ATOM     21  C   UNL     1      -5.185   3.882  25.732  0.00  0.00    +0.072 C 
ATOM     22  N   UNL     1      -4.534   3.504  25.395  0.00  0.00    -0.268 NA
BRANCH  22  23
ATOM     23  C   UNL     1      -3.757   3.781  25.397  0.00  0.00    +0.058 C 
ATOM     24  C   UNL     1      -3.281   3.664  26.062  0.00  0.00    +0.016 C 
ATOM     25  C   UNL     1      -2.503   3.941  26.064  0.00  0.00    +0.001 C 
ATOM     26  C   UNL     1      -2.202   4.334  25.404  0.00  0.00    +0.000 C 
ATOM     27  C   UNL     1      -2.679   4.450  24.741  0.00  0.00    +0.001 C 
ATOM     28  C   UNL     1      -3.457   4.173  24.738  0.00  0.00    +0.016 C 
ENDBRANCH  22  23
ENDBRANCH  16  18
TORSDOF 5
ENDMDL
MODEL 8
REMARK VINA RESULT:      -7.3     16.604     18.596
REMARK  Name = 
REMARK  5 active torsions:
REMARK  status: ('A' for Active; 'I' for Inactive)
REMARK    1  A    between atoms: O_2  and  C_3
REMARK    2  A    between atoms: C_3  and  C_4
REMARK    3  A    between atoms: C_10  and  C_13
REMARK    4  A    between atoms: C_16  and  C_18
REMARK    5  A    between atoms: N_22  and  C_23
REMARK                            x       y       z     vdW  Elec       q    Type
REMARK                         _______ _______ _______ _____ _____    ______ ____
ROOT
ATOM     13  C   UNL     1      14.054   7.676  20.348  0.00  0.00    +0.205 A 
ATOM     14  N   UNL     1      14.083   7.133  20.968  0.00  0.00    -0.056 NA
ATOM     15  O   UNL     1      14.760   7.288  21.412  0.00  0.00    -0.336 OA
ATOM     16  C   UNL     1      15.150   7.928  21.067  0.00  0.00    +0.251 A 
ATOM     17  N   UNL     1      14.714   8.167  20.410  0.00  0.00    -0.190 NA
ENDROOT
BRANCH  13  10
ATOM      4  C   UNL     1      11.737   8.453  17.463  0.00  0.00    +0.277 C 
ATOM      5  O   UNL     1      12.347   9.007  17.477  0.00  0.00    -0.270 OA
ATOM      6  N   UNL     1      11.712   7.854  18.031  0.00  0.00    -0.158 NA
ATOM      7  C   UNL     1      12.297   7.809  18.610  0.00  0.00    +0.155 A 
ATOM      8  N   UNL     1      12.272   7.211  19.176  0.00  0.00    -0.227 NA
ATOM      9  C   UNL     1      12.858   7.166  19.756  0.00  0.00    +0.103 A 
ATOM     10  C   UNL     1      13.469   7.721  19.769  0.00  0.00    +0.058 A 
ATOM     11  C   UNL     1      13.493   8.320  19.202  0.00  0.00    +0.008 A 
ATOM     12  C   UNL     1      12.908   8.364  18.622  0.00  0.00    +0.036 A 
BRANCH   4   3
ATOM      3  C   UNL     1      11.151   8.498  16.884  0.00  0.00    +0.229 C 
BRANCH   3   2
ATOM      1  C   UNL     1      10.648   9.083  15.682  0.00  0.00    +0.175 C 
ATOM      2  O   UNL     1      11.185   9.087  16.308  0.00  0.00    -0.342 OA
ENDBRANCH   3   2
ENDBRANCH   4   3
ENDBRANCH  13  10
BRANCH  16  18
ATOM     18  C   UNL     1      15.853   8.267  21.333  0.00  0.00    +0.138 C 
ATOM     19  C   UNL     1      15.920   8.948  21.793  0.00  0.00    +0.027 C 
ATOM     20  C   UNL     1      16.722   9.086  21.930  0.00  0.00    +0.019 C 
ATOM     21  C   UNL     1      17.150   8.490  21.555  0.00  0.00    +0.072 C 
ATOM     22  N   UNL     1      16.615   7.984  21.186  0.00  0.00    -0.268 NA
BRANCH  22  23
ATOM     23  C   UNL     1      16.804   7.312  20.746  0.00  0.00    +0.058 C 
ATOM     24  C   UNL     1      16.884   6.582  21.124  0.00  0.00    +0.016 C 
ATOM     25  C   UNL     1      17.074   5.909  20.685  0.00  0.00    +0.001 C 
ATOM     26  C   UNL     1      17.183   5.966  19.869  0.00  0.00    +0.000 C 
ATOM     27  C   UNL     1      17.103   6.695  19.492  0.00  0.00    +0.001 C 
ATOM     28  C   UNL     1      16.913   7.368  19.931  0.00  0.00    +0.016 C 
ENDBRANCH  22  23
ENDBRANCH  16  18
TORSDOF 5
ENDMDL
MODEL 9
REMARK VINA RESULT:      -6.9     17.185     18.505
REMARK  Name = 
REMARK  5 active torsions:
REMARK  status: ('A' for Active; 'I' for Inactive)
REMARK    1  A    between atoms: O_2  and  C_3
REMARK    2  A    between atoms: C_3  and  C_4
REMARK    3  A    between atoms: C_10  and  C_13
REMARK    4  A    between atoms: C_16  and  C_18
REMARK    5  A    between atoms: N_22  and  C_23
REMARK                            x       y       z     vdW  Elec       q    Type
REMARK                         _______ _______ _______ _____ _____    ______ ____
ROOT
ATOM     13  C   UNL     1      14.358   7.176  19.097  0.00  0.00    +0.205 A 
ATOM     14  N   UNL     1      14.171   6.497  19.527  0.00  0.00    -0.056 NA
ATOM     15  O   UNL     1      14.806   6.326  20.024  0.00  0.00    -0.336 OA
ATOM     16  C   UNL     1      15.387   6.900  19.902  0.00  0.00    +0.251 A 
ATOM     17  N   UNL     1      15.109   7.424  19.329  0.00  0.00    -0.190 NA
ENDROOT
BRANCH  13  10
ATOM      4  C   UNL     1      11.630   8.728  16.989  0.00  0.00    +0.277 C 
ATOM      5  O   UNL     1      11.303   8.450  17.693  0.00  0.00    -0.270 OA
ATOM      6  N   UNL     1      12.438   8.639  16.847  0.00  0.00    -0.158 NA
ATOM      7  C   UNL     1      12.918   8.273  17.410  0.00  0.00    +0.155 A 
ATOM      8  N   UNL     1      13.726   8.185  17.268  0.00  0.00    -0.227 NA
ATOM      9  C   UNL     1      14.206   7.819  17.830  0.00  0.00    +0.103 A 
ATOM     10  C   UNL     1      13.878   7.542  18.535  0.00  0.00    +0.058 A 
ATOM     11  C   UNL     1      13.070   7.630  18.677  0.00  0.00    +0.008 A 
ATOM     12  C   UNL     1      12.590   7.996  18.114  0.00  0.00    +0.036 A 
BRANCH   4   3
ATOM      3  C   UNL     1      11.150   9.093  16.426  0.00  0.00    +0.229 C 
BRANCH   3   2
ATOM      1  C   UNL     1      10.479   9.063  15.166  0.00  0.00    +0.175 C 
ATOM      2  O   UNL     1      10.935   8.688  15.742  0.00  0.00    -0.342 OA
ENDBRANCH   3   2
ENDBRANCH   4   3
ENDBRANCH  13  10
BRANCH  16  18
ATOM     18  C   UNL     1      16.116   6.940  20.285  0.00  0.00    +0.138 C 
ATOM     19  C   UNL     1      16.816   6.585  20.035  0.00  0.00    +0.027 C 
ATOM     20  C   UNL     1      17.405   6.769  20.583  0.00  0.00    +0.019 C 
ATOM     21  C   UNL     1      17.068   7.238  21.172  0.00  0.00    +0.072 C 
ATOM     22  N   UNL     1      16.272   7.344  20.989  0.00  0.00    -0.268 NA
BRANCH  22  23
ATOM     23  C   UNL     1      15.725   7.778  21.429  0.00  0.00    +0.058 C 
ATOM     24  C   UNL     1      15.715   8.602  21.377  0.00  0.00    +0.016 C 
ATOM     25  C   UNL     1      15.169   9.036  21.818  0.00  0.00    +0.001 C 
ATOM     26  C   UNL     1      14.633   8.646  22.310  0.00  0.00    +0.000 C 
ATOM     27  C   UNL     1      14.643   7.823  22.361  0.00  0.00    +0.001 C 
ATOM     28  C   UNL     1      15.189   7.389  21.921  0.00  0.00    +0.016 C 
ENDBRANCH  22  23
ENDBRANCH  16  18
TORSDOF 5
ENDMDL
