MODEL 1
REMARK VINA RESULT:     -15.5      0.000      0.000
REMARK  Name = 
REMARK  5 active torsions:
REMARK  status: ('A' for Active; 'I' for Inactive)
REMARK    1  A    between atoms: C_2  and  O_5
REMARK    2  A    between atoms: O_5  and  C_6
REMARK    3  A    between atoms: C_9  and  C_12
REMARK    4  A    between atoms: N_20  and  S_22
REMARK    5  A    between atoms: S_22  and  C_25
REMARK                            x       y       z     vdW  Elec       q    Type
REMARK                         _______ _______ _______ _____ _____    ______ ____
ROOT
ATOM     12  C   UNL     1      -4.456   0.850  24.960  0.00  0.00    +0.056 A 
ATOM     13  C   UNL     1      -5.210   0.910  25.288  0.00  0.00    +0.006 A 
ATOM     14  C   UNL     1      -5.527   1.652  25.463  0.00  0.00    +0.013 A 
ATOM     15  C   UNL     1      -5.088   2.333  25.309  0.00  0.00    +0.041 A 
ATOM     16  C   UNL     1      -5.143   3.248  25.379  0.00  0.00    +0.056 C 
ATOM     17  C   UNL     1      -5.574   3.759  25.592  0.00  0.00    +0.011 C 
ATOM     18  C   UNL     1      -4.830   3.696  25.267  0.00  0.00    +0.041 C 
ATOM     19  C   UNL     1      -3.928   3.825  24.885  0.00  0.00    +0.098 C 
ATOM     20  N   UNL     1      -3.716   3.028  24.753  0.00  0.00    -0.155 NA
ATOM     21  C   UNL     1      -4.273   3.389  25.012  0.00  0.00    +0.102 C 
ATOM     30  C   UNL     1      -4.764   2.741  25.190  0.00  0.00    +0.110 C 
ATOM     31  N   UNL     1      -4.334   2.273  24.980  0.00  0.00    -0.299 N 
ATOM     32  C   UNL     1      -4.017   1.531  24.806  0.00  0.00    +0.261 A 
ATOM     33  O   UNL     1      -3.263   1.471  24.478  0.00  0.00    -0.267 OA
ENDROOT
BRANCH  12   9
ATOM      6  C   UNL     1      -3.509  -1.376  24.439  0.00  0.00    +0.147 A 
ATOM      7  C   UNL     1      -3.946  -0.971  23.869  0.00  0.00    +0.037 A 
ATOM      8  C   UNL     1      -4.262  -0.228  24.043  0.00  0.00    +0.003 A 
ATOM      9  C   UNL     1      -4.140   0.108  24.786  0.00  0.00    +0.005 A 
ATOM     10  C   UNL     1      -3.703  -0.298  25.356  0.00  0.00    +0.003 A 
ATOM     11  C   UNL     1      -3.387  -1.040  25.183  0.00  0.00    +0.037 A 
BRANCH   6   5
ATOM      5  O   UNL     1      -3.193  -2.119  24.266  0.00  0.00    -0.404 OA
BRANCH   5   2
ATOM      1  F   UNL     1      -3.965  -3.483  24.779  0.00  0.00    -0.133 F 
ATOM      2  C   UNL     1      -3.579  -2.801  24.521  0.00  0.00    +0.575 C 
ATOM      3  F   UNL     1      -4.037  -2.799  23.836  0.00  0.00    -0.133 F 
ATOM      4  F   UNL     1      -3.121  -2.802  25.207  0.00  0.00    -0.133 F 
ENDBRANCH   5   2
ENDBRANCH   6   5
ENDBRANCH  12   9
BRANCH  20  22
ATOM     22  S   UNL     1      -3.258   2.381  24.523  0.00  0.00    +0.069 S 
ATOM     23  O   UNL     1      -3.588   2.417  23.767  0.00  0.00    -0.152 OA
ATOM     24  O   UNL     1      -2.928   2.345  25.278  0.00  0.00    -0.152 OA
BRANCH  22  25
ATOM     25  C   UNL     1      -2.800   1.734  24.292  0.00  0.00    +0.152 A 
ATOM     26  C   UNL     1      -2.822   1.362  23.556  0.00  0.00    +0.027 A 
ATOM     27  C   UNL     1      -2.276   0.745  23.566  0.00  0.00    +0.009 A 
ATOM     28  C   UNL     1      -1.915   0.735  24.309  0.00  0.00    +0.037 A 
ATOM     29  S   UNL     1      -2.239   1.347  24.757  0.00  0.00    -0.067 S 
ENDBRANCH  22  25
ENDBRANCH  20  22
TORSDOF 5
ENDMDL
MODEL 2
REMARK VINA RESULT:     -14.8      1.408      2.464
REMARK  Name = 
REMARK  5 active torsions:
REMARK  status: ('A' for Active; 'I' for Inactive)
REMARK    1  A    between atoms: C_2  and  O_5
REMARK    2  A    between atoms: O_5  and  C_6
REMARK    3  A    between atoms: C_9  and  C_12
REMARK    4  A    between atoms: N_20  and  S_22
REMARK    5  A    between atoms: S_22  and  C_25
REMARK                            x       y       z     vdW  Elec       q    Type
REMARK                         _______ _______ _______ _____ _____    ______ ____
ROOT
ATOM     12  C   UNL     1      -2.562   1.621  24.780  0.00  0.00    +0.056 A 
ATOM     13  C   UNL     1      -1.743   1.526  24.801  0.00  0.00    +0.006 A 
ATOM     14  C   UNL     1      -1.254   2.179  24.924  0.00  0.00    +0.013 A 
ATOM     15  C   UNL     1      -1.585   2.928  25.026  0.00  0.00    +0.041 A 
ATOM     16  C   UNL     1      -1.341   3.802  25.173  0.00  0.00    +0.056 C 
ATOM     17  C   UNL     1      -0.776   4.208  25.261  0.00  0.00    +0.011 C 
ATOM     18  C   UNL     1      -1.585   4.299  25.240  0.00  0.00    +0.041 C 
ATOM     19  C   UNL     1      -2.524   4.607  25.248  0.00  0.00    +0.098 C 
ATOM     20  N   UNL     1      -2.912   3.879  25.117  0.00  0.00    -0.155 NA
ATOM     21  C   UNL     1      -2.243   4.115  25.183  0.00  0.00    +0.102 C 
ATOM     30  C   UNL     1      -1.849   3.388  25.087  0.00  0.00    +0.110 C 
ATOM     31  N   UNL     1      -2.404   3.023  25.006  0.00  0.00    -0.299 N 
ATOM     32  C   UNL     1      -2.893   2.370  24.883  0.00  0.00    +0.261 A 
ATOM     33  O   UNL     1      -3.712   2.465  24.862  0.00  0.00    -0.267 OA
ENDROOT
BRANCH  12   9
ATOM      6  C   UNL     1      -4.025  -0.339  24.409  0.00  0.00    +0.147 A 
ATOM      7  C   UNL     1      -3.823  -0.116  25.177  0.00  0.00    +0.037 A 
ATOM      8  C   UNL     1      -3.335   0.538  25.301  0.00  0.00    +0.003 A 
ATOM      9  C   UNL     1      -3.050   0.968  24.657  0.00  0.00    +0.005 A 
ATOM     10  C   UNL     1      -3.252   0.744  23.889  0.00  0.00    +0.003 A 
ATOM     11  C   UNL     1      -3.740   0.090  23.765  0.00  0.00    +0.037 A 
BRANCH   6   5
ATOM      5  O   UNL     1      -4.513  -0.994  24.285  0.00  0.00    -0.404 OA
BRANCH   5   2
ATOM      1  F   UNL     1      -3.853  -2.446  23.865  0.00  0.00    -0.133 F 
ATOM      2  C   UNL     1      -4.184  -1.719  24.076  0.00  0.00    +0.575 C 
ATOM      3  F   UNL     1      -4.076  -1.901  24.873  0.00  0.00    -0.133 F 
ATOM      4  F   UNL     1      -4.292  -1.538  23.278  0.00  0.00    -0.133 F 
ENDBRANCH   5   2
ENDBRANCH   6   5
ENDBRANCH  12   9
BRANCH  20  22
ATOM     22  S   UNL     1      -3.533   3.347  25.007  0.00  0.00    +0.069 S 
ATOM     23  O   UNL     1      -3.573   3.225  25.823  0.00  0.00    -0.152 OA
ATOM     24  O   UNL     1      -3.493   3.469  24.192  0.00  0.00    -0.152 OA
BRANCH  22  25
ATOM     25  C   UNL     1      -4.154   2.814  24.897  0.00  0.00    +0.152 A 
ATOM     26  C   UNL     1      -4.457   2.565  24.172  0.00  0.00    +0.027 A 
ATOM     27  C   UNL     1      -5.070   2.035  24.319  0.00  0.00    +0.009 A 
ATOM     28  C   UNL     1      -5.148   1.956  25.137  0.00  0.00    +0.037 A 
ATOM     29  S   UNL     1      -4.581   2.438  25.495  0.00  0.00    -0.067 S 
ENDBRANCH  22  25
ENDBRANCH  20  22
TORSDOF 5
ENDMDL
MODEL 3
REMARK VINA RESULT:     -14.6      2.634      4.426
REMARK  Name = 
REMARK  5 active torsions:
REMARK  status: ('A' for Active; 'I' for Inactive)
REMARK    1  A    between atoms: C_2  and  O_5
REMARK    2  A    between atoms: O_5  and  C_6
REMARK    3  A    between atoms: C_9  and  C_12
REMARK    4  A    between atoms: N_20  and  S_22
REMARK    5  A    between atoms: S_22  and  C_25
REMARK                            x       y       z     vdW  Elec       q    Type
REMARK                         _______ _______ _______ _____ _____    ______ ____
ROOT
ATOM     12  C   UNL     1      -3.461   0.082  24.289  0.00  0.00    +0.056 A 
ATOM     13  C   UNL     1      -4.184  -0.264  24.093  0.00  0.00    +0.006 A 
ATOM     14  C   UNL     1      -4.268  -1.084  24.116  0.00  0.00    +0.013 A 
ATOM     15  C   UNL     1      -3.630  -1.558  24.335  0.00  0.00    +0.041 A 
ATOM     16  C   UNL     1      -3.405  -2.441  24.455  0.00  0.00    +0.056 C 
ATOM     17  C   UNL     1      -3.673  -3.088  24.412  0.00  0.00    +0.011 C 
ATOM     18  C   UNL     1      -2.961  -2.743  24.605  0.00  0.00    +0.041 C 
ATOM     19  C   UNL     1      -2.036  -2.519  24.870  0.00  0.00    +0.098 C 
ATOM     20  N   UNL     1      -2.071  -1.687  24.810  0.00  0.00    -0.155 NA
ATOM     21  C   UNL     1      -2.507  -2.241  24.712  0.00  0.00    +0.102 C 
ATOM     30  C   UNL     1      -3.187  -1.818  24.483  0.00  0.00    +0.110 C 
ATOM     31  N   UNL     1      -2.907  -1.212  24.531  0.00  0.00    -0.299 N 
ATOM     32  C   UNL     1      -2.822  -0.392  24.508  0.00  0.00    +0.261 A 
ATOM     33  O   UNL     1      -2.100  -0.046  24.705  0.00  0.00    -0.267 OA
ENDROOT
BRANCH  12   9
ATOM      6  C   UNL     1      -3.210   2.543  24.221  0.00  0.00    +0.147 A 
ATOM      7  C   UNL     1      -3.049   2.094  23.548  0.00  0.00    +0.037 A 
ATOM      8  C   UNL     1      -3.133   1.273  23.571  0.00  0.00    +0.003 A 
ATOM      9  C   UNL     1      -3.377   0.902  24.266  0.00  0.00    +0.005 A 
ATOM     10  C   UNL     1      -3.538   1.352  24.939  0.00  0.00    +0.003 A 
ATOM     11  C   UNL     1      -3.454   2.173  24.916  0.00  0.00    +0.037 A 
BRANCH   6   5
ATOM      5  O   UNL     1      -3.126   3.365  24.198  0.00  0.00    -0.404 OA
BRANCH   5   2
ATOM      1  F   UNL     1      -4.415   4.333  24.545  0.00  0.00    -0.133 F 
ATOM      2  C   UNL     1      -3.771   3.848  24.370  0.00  0.00    +0.575 C 
ATOM      3  F   UNL     1      -4.047   3.756  23.600  0.00  0.00    -0.133 F 
ATOM      4  F   UNL     1      -3.494   3.941  25.142  0.00  0.00    -0.133 F 
ENDBRANCH   5   2
ENDBRANCH   6   5
ENDBRANCH  12   9
BRANCH  20  22
ATOM     22  S   UNL     1      -1.818  -0.901  24.840  0.00  0.00    +0.069 S 
ATOM     23  O   UNL     1      -1.573  -0.951  24.053  0.00  0.00    -0.152 OA
ATOM     24  O   UNL     1      -2.062  -0.852  25.626  0.00  0.00    -0.152 OA
BRANCH  22  25
ATOM     25  C   UNL     1      -1.565  -0.116  24.869  0.00  0.00    +0.152 A 
ATOM     26  C   UNL     1      -1.639   0.394  25.513  0.00  0.00    +0.027 A 
ATOM     27  C   UNL     1      -1.314   1.121  25.302  0.00  0.00    +0.009 A 
ATOM     28  C   UNL     1      -1.037   1.061  24.527  0.00  0.00    +0.037 A 
ATOM     29  S   UNL     1      -1.193   0.296  24.259  0.00  0.00    -0.067 S 
ENDBRANCH  22  25
ENDBRANCH  20  22
TORSDOF 5
ENDMDL
MODEL 4
REMARK VINA RESULT:     -14.1      1.636      2.346
REMARK  Name = 
REMARK  5 active torsions:
REMARK  status: ('A' for Active; 'I' for Inactive)
REMARK    1  A    between atoms: C_2  and  O_5
REMARK    2  A    between atoms: O_5  and  C_6
REMARK    3  A    between atoms: C_9  and  C_12
REMARK    4  A    between atoms: N_20  and  S_22
REMARK    5  A    between atoms: S_22  and  C_25
REMARK                            x       y       z     vdW  Elec       q    Type
REMARK                         _______ _______ _______ _____ _____    ______ ____
ROOT
ATOM     12  C   UNL     1      -2.853   1.848  24.756  0.00  0.00    +0.056 A 
ATOM     13  C   UNL     1      -3.481   2.382  24.792  0.00  0.00    +0.006 A 
ATOM     14  C   UNL     1      -3.336   3.179  24.947  0.00  0.00    +0.013 A 
ATOM     15  C   UNL     1      -2.564   3.442  25.066  0.00  0.00    +0.041 A 
ATOM     16  C   UNL     1      -2.091   4.210  25.246  0.00  0.00    +0.056 C 
ATOM     17  C   UNL     1      -2.179   4.897  25.360  0.00  0.00    +0.011 C 
ATOM     18  C   UNL     1      -1.561   4.367  25.323  0.00  0.00    +0.041 C 
ATOM     19  C   UNL     1      -0.696   3.890  25.319  0.00  0.00    +0.098 C 
ATOM     20  N   UNL     1      -0.964   3.115  25.156  0.00  0.00    -0.155 NA
ATOM     21  C   UNL     1      -1.247   3.763  25.245  0.00  0.00    +0.102 C 
ATOM     30  C   UNL     1      -2.047   3.560  25.135  0.00  0.00    +0.110 C 
ATOM     31  N   UNL     1      -1.936   2.908  25.029  0.00  0.00    -0.299 N 
ATOM     32  C   UNL     1      -2.080   2.111  24.874  0.00  0.00    +0.261 A 
ATOM     33  O   UNL     1      -1.452   1.577  24.838  0.00  0.00    -0.267 OA
ENDROOT
BRANCH  12   9
ATOM      6  C   UNL     1      -3.289  -0.543  24.289  0.00  0.00    +0.147 A 
ATOM      7  C   UNL     1      -3.271  -0.272  25.068  0.00  0.00    +0.037 A 
ATOM      8  C   UNL     1      -3.125   0.526  25.224  0.00  0.00    +0.003 A 
ATOM      9  C   UNL     1      -2.998   1.051  24.601  0.00  0.00    +0.005 A 
ATOM     10  C   UNL     1      -3.017   0.780  23.822  0.00  0.00    +0.003 A 
ATOM     11  C   UNL     1      -3.162  -0.017  23.666  0.00  0.00    +0.037 A 
BRANCH   6   5
ATOM      5  O   UNL     1      -3.435  -1.340  24.133  0.00  0.00    -0.404 OA
BRANCH   5   2
ATOM      1  F   UNL     1      -4.983  -1.868  23.917  0.00  0.00    -0.133 F 
ATOM      2  C   UNL     1      -4.208  -1.604  24.026  0.00  0.00    +0.575 C 
ATOM      3  F   UNL     1      -4.267  -1.762  24.833  0.00  0.00    -0.133 F 
ATOM      4  F   UNL     1      -4.149  -1.446  23.218  0.00  0.00    -0.133 F 
ENDBRANCH   5   2
ENDBRANCH   6   5
ENDBRANCH  12   9
BRANCH  20  22
ATOM     22  S   UNL     1      -0.930   2.303  25.015  0.00  0.00    +0.069 S 
ATOM     23  O   UNL     1      -1.001   2.159  25.825  0.00  0.00    -0.152 OA
ATOM     24  O   UNL     1      -0.860   2.446  24.205  0.00  0.00    -0.152 OA
BRANCH  22  25
ATOM     25  C   UNL     1      -0.896   1.490  24.874  0.00  0.00    +0.152 A 
ATOM     26  C   UNL     1      -0.976   0.896  25.440  0.00  0.00    +0.027 A 
ATOM     27  C   UNL     1      -0.905   0.168  25.058  0.00  0.00    +0.009 A 
ATOM     28  C   UNL     1      -0.782   0.313  24.255  0.00  0.00    +0.037 A 
ATOM     29  S   UNL     1      -0.776   1.130  24.141  0.00  0.00    -0.067 S 
ENDBRANCH  22  25
ENDBRANCH  20  22
TORSDOF 5
ENDMDL
MODEL 5
REMARK VINA RESULT:     -14.0      3.077      4.571
REMARK  Name = 
REMARK  5 active torsions:
REMARK  status: ('A' for Active; 'I' for Inactive)
REMARK    1  A    between atoms: C_2  and  O_5
REMARK    2  A    between atoms: O_5  and  C_6
REMARK    3  A    between atoms: C_9  and  C_12
REMARK    4  A    between atoms: N_20  and  S_22
REMARK    5  A    between atoms: S_22  and  C_25
REMARK                            x       y       z     vdW  Elec       q    Type
REMARK                         _______ _______ _______ _____ _____    ______ ____
ROOT
ATOM     12  C   UNL     1      -2.798   1.724  24.729  0.00  0.00    +0.056 A 
ATOM     13  C   UNL     1      -3.601   1.801  24.558  0.00  0.00    +0.006 A 
ATOM     14  C   UNL     1      -4.057   1.130  24.408  0.00  0.00    +0.013 A 
ATOM     15  C   UNL     1      -3.710   0.382  24.429  0.00  0.00    +0.041 A 
ATOM     16  C   UNL     1      -3.919  -0.506  24.318  0.00  0.00    +0.056 C 
ATOM     17  C   UNL     1      -4.458  -0.930  24.168  0.00  0.00    +0.011 C 
ATOM     18  C   UNL     1      -3.664  -1.002  24.338  0.00  0.00    +0.041 C 
ATOM     19  C   UNL     1      -2.737  -1.291  24.521  0.00  0.00    +0.098 C 
ATOM     20  N   UNL     1      -2.382  -0.546  24.654  0.00  0.00    -0.155 NA
ATOM     21  C   UNL     1      -3.028  -0.801  24.493  0.00  0.00    +0.102 C 
ATOM     30  C   UNL     1      -3.436  -0.077  24.456  0.00  0.00    +0.110 C 
ATOM     31  N   UNL     1      -2.906   0.305  24.601  0.00  0.00    -0.299 N 
ATOM     32  C   UNL     1      -2.450   0.976  24.751  0.00  0.00    +0.261 A 
ATOM     33  O   UNL     1      -1.647   0.900  24.923  0.00  0.00    -0.267 OA
ENDROOT
BRANCH  12   9
ATOM      6  C   UNL     1      -1.433   3.738  25.180  0.00  0.00    +0.147 A 
ATOM      7  C   UNL     1      -1.489   3.443  24.412  0.00  0.00    +0.037 A 
ATOM      8  C   UNL     1      -1.945   2.770  24.262  0.00  0.00    +0.003 A 
ATOM      9  C   UNL     1      -2.343   2.395  24.879  0.00  0.00    +0.005 A 
ATOM     10  C   UNL     1      -2.286   2.692  25.647  0.00  0.00    +0.003 A 
ATOM     11  C   UNL     1      -1.832   3.363  25.798  0.00  0.00    +0.037 A 
BRANCH   6   5
ATOM      5  O   UNL     1      -0.978   4.411  25.331  0.00  0.00    -0.404 OA
BRANCH   5   2
ATOM      1  F   UNL     1      -1.497   5.889  24.816  0.00  0.00    -0.133 F 
ATOM      2  C   UNL     1      -1.238   5.149  25.074  0.00  0.00    +0.575 C 
ATOM      3  F   UNL     1      -1.786   5.171  25.689  0.00  0.00    -0.133 F 
ATOM      4  F   UNL     1      -0.689   5.128  24.459  0.00  0.00    -0.133 F 
ENDBRANCH   5   2
ENDBRANCH   6   5
ENDBRANCH  12   9
BRANCH  20  22
ATOM     22  S   UNL     1      -1.793   0.006  24.824  0.00  0.00    +0.069 S 
ATOM     23  O   UNL     1      -1.966  -0.058  25.629  0.00  0.00    -0.152 OA
ATOM     24  O   UNL     1      -1.620   0.070  24.020  0.00  0.00    -0.152 OA
BRANCH  22  25
ATOM     25  C   UNL     1      -1.204   0.558  24.995  0.00  0.00    +0.152 A 
ATOM     26  C   UNL     1      -1.032   0.870  25.739  0.00  0.00    +0.027 A 
ATOM     27  C   UNL     1      -0.406   1.399  25.655  0.00  0.00    +0.009 A 
ATOM     28  C   UNL     1      -0.190   1.415  24.859  0.00  0.00    +0.037 A 
ATOM     29  S   UNL     1      -0.683   0.895  24.451  0.00  0.00    -0.067 S 
ENDBRANCH  22  25
ENDBRANCH  20  22
TORSDOF 5
ENDMDL
