MODEL 1
REMARK VINA RESULT:     -10.8      0.000      0.000
REMARK  Name = 
REMARK  6 active torsions:
REMARK  status: ('A' for Active; 'I' for Inactive)
REMARK    1  A    between atoms: O_2  and  C_3
REMARK    2  A    between atoms: C_3  and  C_4
REMARK    3  A    between atoms: C_4  and  O_5
REMARK    4  A    between atoms: O_5  and  C_6
REMARK    5  A    between atoms: C_7  and  C_12
REMARK    6  A    between atoms: C_15  and  C_17
REMARK                            x       y       z     vdW  Elec       q    Type
REMARK                         _______ _______ _______ _____ _____    ______ ____
ROOT
ATOM     12  C   UNL     1      -3.753   1.287  24.666  0.00  0.00    +0.208 A 
ATOM     13  N   UNL     1      -3.541   1.132  23.885  0.00  0.00    -0.056 NA
ATOM     14  O   UNL     1      -2.938   0.570  23.889  0.00  0.00    -0.335 OA
ATOM     15  C   UNL     1      -2.776   0.377  24.676  0.00  0.00    +0.255 A 
ATOM     16  N   UNL     1      -3.280   0.820  25.155  0.00  0.00    -0.189 NA
ENDROOT
BRANCH  15  17
ATOM     17  C   UNL     1      -2.210  -0.164  24.935  0.00  0.00    +0.155 C 
ATOM     18  C   UNL     1      -1.482   0.021  25.276  0.00  0.00    +0.031 C 
ATOM     19  C   UNL     1      -1.095  -0.687  25.450  0.00  0.00    +0.024 C 
ATOM     20  C   UNL     1      -1.584  -1.309  25.216  0.00  0.00    +0.094 C 
ATOM     21  N   UNL     1      -2.273  -0.987  24.897  0.00  0.00    -0.271 N 
ATOM     22  C   UNL     1      -2.913  -1.410  24.595  0.00  0.00    +0.221 A 
ATOM     23  N   UNL     1      -2.897  -2.235  24.594  0.00  0.00    -0.212 NA
ATOM     24  C   UNL     1      -3.537  -2.659  24.291  0.00  0.00    +0.103 A 
ATOM     25  C   UNL     1      -4.193  -2.258  23.990  0.00  0.00    +0.041 A 
ATOM     26  C   UNL     1      -4.208  -1.434  23.991  0.00  0.00    +0.103 A 
ATOM     27  N   UNL     1      -3.567  -1.010  24.293  0.00  0.00    -0.212 NA
ENDBRANCH  15  17
BRANCH  12   7
ATOM      6  C   UNL     1      -4.140   2.603  25.068  0.00  0.00    +0.228 A 
ATOM      7  C   UNL     1      -4.335   1.815  24.916  0.00  0.00    +0.092 A 
ATOM      8  C   UNL     1      -5.113   1.557  25.014  0.00  0.00    +0.009 A 
ATOM      9  C   UNL     1      -5.695   2.085  25.264  0.00  0.00    +0.021 A 
ATOM     10  C   UNL     1      -5.499   2.873  25.415  0.00  0.00    +0.102 A 
ATOM     11  N   UNL     1      -4.722   3.131  25.317  0.00  0.00    -0.210 NA
BRANCH   6   5
ATOM      5  O   UNL     1      -3.362   2.861  24.969  0.00  0.00    -0.457 OA
BRANCH   5   4
ATOM      4  C   UNL     1      -3.155   3.631  25.179  0.00  0.00    +0.239 C 
BRANCH   4   3
ATOM      3  C   UNL     1      -2.386   3.901  25.048  0.00  0.00    +0.189 C 
BRANCH   3   2
ATOM      1  C   UNL     1      -1.427   4.956  25.158  0.00  0.00    +0.174 C 
ATOM      2  O   UNL     1      -2.125   4.594  25.413  0.00  0.00    -0.347 OA
ENDBRANCH   3   2
ENDBRANCH   4   3
ENDBRANCH   5   4
ENDBRANCH   6   5
ENDBRANCH  12   7
TORSDOF 6
ENDMDL
MODEL 2
REMARK VINA RESULT:     -10.1      1.265      4.232
REMARK  Name = 
REMARK  6 active torsions:
REMARK  status: ('A' for Active; 'I' for Inactive)
REMARK    1  A    between atoms: O_2  and  C_3
REMARK    2  A    between atoms: C_3  and  C_4
REMARK    3  A    between atoms: C_4  and  O_5
REMARK    4  A    between atoms: O_5  and  C_6
REMARK    5  A    between atoms: C_7  and  C_12
REMARK    6  A    between atoms: C_15  and  C_17
REMARK                            x       y       z     vdW  Elec       q    Type
REMARK                         _______ _______ _______ _____ _____    ______ ____
ROOT
ATOM     12  C   UNL     1      -2.959   0.526  24.585  0.00  0.00    +0.208 A 
ATOM     13  N   UNL     1      -3.215   0.867  23.879  0.00  0.00    -0.056 NA
ATOM     14  O   UNL     1      -3.188   1.686  23.966  0.00  0.00    -0.335 OA
ATOM     15  C   UNL     1      -2.916   1.852  24.728  0.00  0.00    +0.255 A 
ATOM     16  N   UNL     1      -2.774   1.136  25.109  0.00  0.00    -0.189 NA
ENDROOT
BRANCH  15  17
ATOM     17  C   UNL     1      -2.805   2.604  25.049  0.00  0.00    +0.155 C 
ATOM     18  C   UNL     1      -2.082   2.986  25.153  0.00  0.00    +0.031 C 
ATOM     19  C   UNL     1      -2.230   3.724  25.491  0.00  0.00    +0.024 C 
ATOM     20  C   UNL     1      -3.045   3.798  25.595  0.00  0.00    +0.094 C 
ATOM     21  N   UNL     1      -3.401   3.107  25.322  0.00  0.00    -0.271 N 
ATOM     22  C   UNL     1      -4.210   2.944  25.321  0.00  0.00    +0.221 A 
ATOM     23  N   UNL     1      -4.742   3.504  25.613  0.00  0.00    -0.212 NA
ATOM     24  C   UNL     1      -5.552   3.341  25.613  0.00  0.00    +0.103 A 
ATOM     25  C   UNL     1      -5.828   2.621  25.320  0.00  0.00    +0.041 A 
ATOM     26  C   UNL     1      -5.296   2.063  25.028  0.00  0.00    +0.103 A 
ATOM     27  N   UNL     1      -4.486   2.225  25.029  0.00  0.00    -0.212 NA
ENDBRANCH  15  17
BRANCH  12   7
ATOM      6  C   UNL     1      -2.178  -0.670  24.632  0.00  0.00    +0.228 A 
ATOM      7  C   UNL     1      -2.898  -0.282  24.740  0.00  0.00    +0.092 A 
ATOM      8  C   UNL     1      -3.558  -0.703  25.003  0.00  0.00    +0.009 A 
ATOM      9  C   UNL     1      -3.497  -1.511  25.158  0.00  0.00    +0.021 A 
ATOM     10  C   UNL     1      -2.777  -1.898  25.049  0.00  0.00    +0.102 A 
ATOM     11  N   UNL     1      -2.118  -1.478  24.787  0.00  0.00    -0.210 NA
BRANCH   6   5
ATOM      5  O   UNL     1      -1.518  -0.249  24.369  0.00  0.00    -0.457 OA
BRANCH   5   4
ATOM      4  C   UNL     1      -0.807  -0.643  24.231  0.00  0.00    +0.239 C 
BRANCH   4   3
ATOM      3  C   UNL     1      -0.142  -0.220  23.985  0.00  0.00    +0.189 C 
BRANCH   3   2
ATOM      1  C   UNL     1       0.967  -0.111  23.091  0.00  0.00    +0.174 C 
ATOM      2  O   UNL     1       0.412  -0.575  23.488  0.00  0.00    -0.347 OA
ENDBRANCH   3   2
ENDBRANCH   4   3
ENDBRANCH   5   4
ENDBRANCH   6   5
ENDBRANCH  12   7
TORSDOF 6
ENDMDL
MODEL 3
REMARK VINA RESULT:      -9.5      1.777      4.233
REMARK  Name = 
REMARK  6 active torsions:
REMARK  status: ('A' for Active; 'I' for Inactive)
REMARK    1  A    between atoms: O_2  and  C_3
REMARK    2  A    between atoms: C_3  and  C_4
REMARK    3  A    between atoms: C_4  and  O_5
REMARK    4  A    between atoms: O_5  and  C_6
REMARK    5  A    between atoms: C_7  and  C_12
REMARK    6  A    between atoms: C_15  and  C_17
REMARK                            x       y       z     vdW  Elec       q    Type
REMARK                         _______ _______ _______ _____ _____    ______ ____
ROOT
ATOM     12  C   UNL     1      -3.513   2.075  24.459  0.00  0.00    +0.208 A 
ATOM     13  N   UNL     1      -3.372   2.373  23.703  0.00  0.00    -0.056 NA
ATOM     14  O   UNL     1      -2.556   2.404  23.589  0.00  0.00    -0.335 OA
ATOM     15  C   UNL     1      -2.192   2.126  24.276  0.00  0.00    +0.255 A 
ATOM     16  N   UNL     1      -2.783   1.923  24.813  0.00  0.00    -0.189 NA
ENDROOT
BRANCH  15  17
ATOM     17  C   UNL     1      -1.379   2.062  24.401  0.00  0.00    +0.155 C 
ATOM     18  C   UNL     1      -0.927   1.377  24.320  0.00  0.00    +0.031 C 
ATOM     19  C   UNL     1      -0.144   1.566  24.499  0.00  0.00    +0.024 C 
ATOM     20  C   UNL     1      -0.112   2.368  24.690  0.00  0.00    +0.094 C 
ATOM     21  N   UNL     1      -0.875   2.675  24.629  0.00  0.00    -0.271 N 
ATOM     22  C   UNL     1      -1.096   3.457  24.772  0.00  0.00    +0.221 A 
ATOM     23  N   UNL     1      -0.528   4.011  24.998  0.00  0.00    -0.212 NA
ATOM     24  C   UNL     1      -0.749   4.793  25.141  0.00  0.00    +0.103 A 
ATOM     25  C   UNL     1      -1.538   5.021  25.057  0.00  0.00    +0.041 A 
ATOM     26  C   UNL     1      -2.105   4.467  24.832  0.00  0.00    +0.103 A 
ATOM     27  N   UNL     1      -1.884   3.685  24.689  0.00  0.00    -0.212 NA
ENDBRANCH  15  17
BRANCH  12   7
ATOM      6  C   UNL     1      -4.575   1.193  24.827  0.00  0.00    +0.228 A 
ATOM      7  C   UNL     1      -4.253   1.952  24.802  0.00  0.00    +0.092 A 
ATOM      8  C   UNL     1      -4.672   2.588  25.119  0.00  0.00    +0.009 A 
ATOM      9  C   UNL     1      -5.413   2.464  25.462  0.00  0.00    +0.021 A 
ATOM     10  C   UNL     1      -5.734   1.705  25.487  0.00  0.00    +0.102 A 
ATOM     11  N   UNL     1      -5.315   1.069  25.169  0.00  0.00    -0.210 NA
BRANCH   6   5
ATOM      5  O   UNL     1      -4.156   0.556  24.509  0.00  0.00    -0.457 OA
BRANCH   5   4
ATOM      4  C   UNL     1      -4.481  -0.201  24.527  0.00  0.00    +0.239 C 
BRANCH   4   3
ATOM      3  C   UNL     1      -4.036  -0.847  24.269  0.00  0.00    +0.189 C 
BRANCH   3   2
ATOM      1  C   UNL     1      -4.048  -2.250  23.996  0.00  0.00    +0.174 C 
ATOM      2  O   UNL     1      -4.415  -1.511  23.959  0.00  0.00    -0.347 OA
ENDBRANCH   3   2
ENDBRANCH   4   3
ENDBRANCH   5   4
ENDBRANCH   6   5
ENDBRANCH  12   7
TORSDOF 6
ENDMDL
MODEL 4
REMARK VINA RESULT:      -9.5      2.027      3.985
REMARK  Name = 
REMARK  6 active torsions:
REMARK  status: ('A' for Active; 'I' for Inactive)
REMARK    1  A    between atoms: O_2  and  C_3
REMARK    2  A    between atoms: C_3  and  C_4
REMARK    3  A    between atoms: C_4  and  O_5
REMARK    4  A    between atoms: O_5  and  C_6
REMARK    5  A    between atoms: C_7  and  C_12
REMARK    6  A    between atoms: C_15  and  C_17
REMARK                            x       y       z     vdW  Elec       q    Type
REMARK                         _______ _______ _______ _____ _____    ______ ____
ROOT
ATOM     12  C   UNL     1      -1.900   1.814  24.736  0.00  0.00    +0.208 A 
ATOM     13  N   UNL     1      -2.239   2.163  24.070  0.00  0.00    -0.056 NA
ATOM     14  O   UNL     1      -2.920   1.739  23.879  0.00  0.00    -0.335 OA
ATOM     15  C   UNL     1      -3.002   1.128  24.428  0.00  0.00    +0.255 A 
ATOM     16  N   UNL     1      -2.372   1.174  24.956  0.00  0.00    -0.189 NA
ENDROOT
BRANCH  15  17
ATOM     17  C   UNL     1      -3.609   0.569  24.443  0.00  0.00    +0.155 C 
ATOM     18  C   UNL     1      -3.541  -0.227  24.236  0.00  0.00    +0.031 C 
ATOM     19  C   UNL     1      -4.281  -0.579  24.333  0.00  0.00    +0.024 C 
ATOM     20  C   UNL     1      -4.805  -0.001  24.599  0.00  0.00    +0.094 C 
ATOM     21  N   UNL     1      -4.391   0.708  24.668  0.00  0.00    -0.271 N 
ATOM     22  C   UNL     1      -4.701   1.431  24.916  0.00  0.00    +0.221 A 
ATOM     23  N   UNL     1      -5.498   1.487  25.125  0.00  0.00    -0.212 NA
ATOM     24  C   UNL     1      -5.810   2.209  25.374  0.00  0.00    +0.103 A 
ATOM     25  C   UNL     1      -5.324   2.876  25.414  0.00  0.00    +0.041 A 
ATOM     26  C   UNL     1      -4.528   2.820  25.206  0.00  0.00    +0.103 A 
ATOM     27  N   UNL     1      -4.217   2.097  24.957  0.00  0.00    -0.212 NA
ENDBRANCH  15  17
BRANCH  12   7
ATOM      6  C   UNL     1      -0.477   1.780  24.863  0.00  0.00    +0.228 A 
ATOM      7  C   UNL     1      -1.210   2.061  25.115  0.00  0.00    +0.092 A 
ATOM      8  C   UNL     1      -1.253   2.591  25.747  0.00  0.00    +0.009 A 
ATOM      9  C   UNL     1      -0.563   2.839  26.125  0.00  0.00    +0.021 A 
ATOM     10  C   UNL     1       0.170   2.556  25.872  0.00  0.00    +0.102 A 
ATOM     11  N   UNL     1       0.213   2.027  25.241  0.00  0.00    -0.210 NA
BRANCH   6   5
ATOM      5  O   UNL     1      -0.434   1.250  24.231  0.00  0.00    -0.457 OA
BRANCH   5   4
ATOM      4  C   UNL     1       0.292   0.922  24.017  0.00  0.00    +0.239 C 
BRANCH   4   3
ATOM      3  C   UNL     1       0.358   0.485  23.320  0.00  0.00    +0.189 C 
BRANCH   3   2
ATOM      1  C   UNL     1       1.377  -0.190  22.579  0.00  0.00    +0.174 C 
ATOM      2  O   UNL     1       0.919  -0.117  23.263  0.00  0.00    -0.347 OA
ENDBRANCH   3   2
ENDBRANCH   4   3
ENDBRANCH   5   4
ENDBRANCH   6   5
ENDBRANCH  12   7
TORSDOF 6
ENDMDL
MODEL 5
REMARK VINA RESULT:      -9.4      1.285      2.742
REMARK  Name = 
REMARK  6 active torsions:
REMARK  status: ('A' for Active; 'I' for Inactive)
REMARK    1  A    between atoms: O_2  and  C_3
REMARK    2  A    between atoms: C_3  and  C_4
REMARK    3  A    between atoms: C_4  and  O_5
REMARK    4  A    between atoms: O_5  and  C_6
REMARK    5  A    between atoms: C_7  and  C_12
REMARK    6  A    between atoms: C_15  and  C_17
REMARK                            x       y       z     vdW  Elec       q    Type
REMARK                         _______ _______ _______ _____ _____    ______ ____
ROOT
ATOM     12  C   UNL     1      -2.419   2.184  24.706  0.00  0.00    +0.208 A 
ATOM     13  N   UNL     1      -2.512   1.960  23.918  0.00  0.00    -0.056 NA
ATOM     14  O   UNL     1      -2.661   1.150  23.897  0.00  0.00    -0.335 OA
ATOM     15  C   UNL     1      -2.660   0.872  24.675  0.00  0.00    +0.255 A 
ATOM     16  N   UNL     1      -2.511   1.511  25.173  0.00  0.00    -0.189 NA
ENDROOT
BRANCH  15  17
ATOM     17  C   UNL     1      -2.787   0.091  24.910  0.00  0.00    +0.155 C 
ATOM     18  C   UNL     1      -3.480  -0.210  25.239  0.00  0.00    +0.031 C 
ATOM     19  C   UNL     1      -3.362  -1.013  25.389  0.00  0.00    +0.024 C 
ATOM     20  C   UNL     1      -2.597  -1.207  25.152  0.00  0.00    +0.094 C 
ATOM     21  N   UNL     1      -2.240  -0.526  24.856  0.00  0.00    -0.271 N 
ATOM     22  C   UNL     1      -1.473  -0.469  24.558  0.00  0.00    +0.221 A 
ATOM     23  N   UNL     1      -0.989  -1.136  24.539  0.00  0.00    -0.212 NA
ATOM     24  C   UNL     1      -0.221  -1.080  24.240  0.00  0.00    +0.103 A 
ATOM     25  C   UNL     1       0.061  -0.356  23.961  0.00  0.00    +0.041 A 
ATOM     26  C   UNL     1      -0.424   0.311  23.981  0.00  0.00    +0.103 A 
ATOM     27  N   UNL     1      -1.191   0.254  24.279  0.00  0.00    -0.212 NA
ENDBRANCH  15  17
BRANCH  12   7
ATOM      6  C   UNL     1      -2.881   3.433  25.223  0.00  0.00    +0.228 A 
ATOM      7  C   UNL     1      -2.262   2.947  24.979  0.00  0.00    +0.092 A 
ATOM      8  C   UNL     1      -1.485   3.223  25.007  0.00  0.00    +0.009 A 
ATOM      9  C   UNL     1      -1.328   3.986  25.280  0.00  0.00    +0.021 A 
ATOM     10  C   UNL     1      -1.948   4.472  25.524  0.00  0.00    +0.102 A 
ATOM     11  N   UNL     1      -2.724   4.196  25.496  0.00  0.00    -0.210 NA
BRANCH   6   5
ATOM      5  O   UNL     1      -3.659   3.157  25.195  0.00  0.00    -0.457 OA
BRANCH   5   4
ATOM      4  C   UNL     1      -4.257   3.569  25.586  0.00  0.00    +0.239 C 
BRANCH   4   3
ATOM      3  C   UNL     1      -5.047   3.362  25.465  0.00  0.00    +0.189 C 
BRANCH   3   2
ATOM      1  C   UNL     1      -6.066   2.499  25.976  0.00  0.00    +0.174 C 
ATOM      2  O   UNL     1      -5.503   3.092  26.097  0.00  0.00    -0.347 OA
ENDBRANCH   3   2
ENDBRANCH   4   3
ENDBRANCH   5   4
ENDBRANCH   6   5
ENDBRANCH  12   7
TORSDOF 6
ENDMDL
MODEL 6
REMARK VINA RESULT:      -9.2      1.258      5.035
REMARK  Name = 
REMARK  6 active torsions:
REMARK  status: ('A' for Active; 'I' for Inactive)
REMARK    1  A    between atoms: O_2  and  C_3
REMARK    2  A    between atoms: C_3  and  C_4
REMARK    3  A    between atoms: C_4  and  O_5
REMARK    4  A    between atoms: O_5  and  C_6
REMARK    5  A    between atoms: C_7  and  C_12
REMARK    6  A    between atoms: C_15  and  C_17
REMARK                            x       y       z     vdW  Elec       q    Type
REMARK                         _______ _______ _______ _____ _____    ______ ____
ROOT
ATOM     12  C   UNL     1      -2.109   1.015  24.495  0.00  0.00    +0.208 A 
ATOM     13  N   UNL     1      -2.157   1.386  23.760  0.00  0.00    -0.056 NA
ATOM     14  O   UNL     1      -2.649   2.042  23.836  0.00  0.00    -0.335 OA
ATOM     15  C   UNL     1      -2.907   2.078  24.620  0.00  0.00    +0.255 A 
ATOM     16  N   UNL     1      -2.573   1.443  25.026  0.00  0.00    -0.189 NA
ENDROOT
BRANCH  15  17
ATOM     17  C   UNL     1      -3.410   2.649  24.939  0.00  0.00    +0.155 C 
ATOM     18  C   UNL     1      -4.214   2.555  25.095  0.00  0.00    +0.031 C 
ATOM     19  C   UNL     1      -4.496   3.264  25.410  0.00  0.00    +0.024 C 
ATOM     20  C   UNL     1      -3.867   3.795  25.449  0.00  0.00    +0.094 C 
ATOM     21  N   UNL     1      -3.195   3.416  25.158  0.00  0.00    -0.271 N 
ATOM     22  C   UNL     1      -2.440   3.744  25.096  0.00  0.00    +0.221 A 
ATOM     23  N   UNL     1      -2.309   4.522  25.339  0.00  0.00    -0.212 NA
ATOM     24  C   UNL     1      -1.554   4.851  25.277  0.00  0.00    +0.103 A 
ATOM     25  C   UNL     1      -0.932   4.401  24.973  0.00  0.00    +0.041 A 
ATOM     26  C   UNL     1      -1.064   3.624  24.731  0.00  0.00    +0.103 A 
ATOM     27  N   UNL     1      -1.819   3.296  24.793  0.00  0.00    -0.212 NA
ENDBRANCH  15  17
BRANCH  12   7
ATOM      6  C   UNL     1      -2.033  -0.406  24.627  0.00  0.00    +0.228 A 
ATOM      7  C   UNL     1      -1.675   0.336  24.669  0.00  0.00    +0.092 A 
ATOM      8  C   UNL     1      -0.880   0.398  24.884  0.00  0.00    +0.009 A 
ATOM      9  C   UNL     1      -0.445  -0.281  25.058  0.00  0.00    +0.021 A 
ATOM     10  C   UNL     1      -0.805  -1.023  25.016  0.00  0.00    +0.102 A 
ATOM     11  N   UNL     1      -1.598  -1.085  24.801  0.00  0.00    -0.210 NA
BRANCH   6   5
ATOM      5  O   UNL     1      -2.828  -0.468  24.412  0.00  0.00    -0.457 OA
BRANCH   5   4
ATOM      4  C   UNL     1      -3.166  -1.211  24.294  0.00  0.00    +0.239 C 
BRANCH   4   3
ATOM      3  C   UNL     1      -3.984  -1.284  24.215  0.00  0.00    +0.189 C 
BRANCH   3   2
ATOM      1  C   UNL     1      -4.403  -2.594  23.826  0.00  0.00    +0.174 C 
ATOM      2  O   UNL     1      -4.300  -1.794  23.649  0.00  0.00    -0.347 OA
ENDBRANCH   3   2
ENDBRANCH   4   3
ENDBRANCH   5   4
ENDBRANCH   6   5
ENDBRANCH  12   7
TORSDOF 6
ENDMDL
MODEL 7
REMARK VINA RESULT:      -9.1      1.338      4.206
REMARK  Name = 
REMARK  6 active torsions:
REMARK  status: ('A' for Active; 'I' for Inactive)
REMARK    1  A    between atoms: O_2  and  C_3
REMARK    2  A    between atoms: C_3  and  C_4
REMARK    3  A    between atoms: C_4  and  O_5
REMARK    4  A    between atoms: O_5  and  C_6
REMARK    5  A    between atoms: C_7  and  C_12
REMARK    6  A    between atoms: C_15  and  C_17
REMARK                            x       y       z     vdW  Elec       q    Type
REMARK                         _______ _______ _______ _____ _____    ______ ____
ROOT
ATOM     12  C   UNL     1      -3.923  -0.170  24.527  0.00  0.00    +0.208 A 
ATOM     13  N   UNL     1      -3.960   0.284  23.840  0.00  0.00    -0.056 NA
ATOM     14  O   UNL     1      -4.392   0.965  24.006  0.00  0.00    -0.335 OA
ATOM     15  C   UNL     1      -4.624   0.933  24.798  0.00  0.00    +0.255 A 
ATOM     16  N   UNL     1      -4.333   0.232  25.119  0.00  0.00    -0.189 NA
ENDROOT
BRANCH  15  17
ATOM     17  C   UNL     1      -5.067   1.504  25.196  0.00  0.00    +0.155 C 
ATOM     18  C   UNL     1      -5.720   1.361  25.680  0.00  0.00    +0.031 C 
ATOM     19  C   UNL     1      -5.991   2.087  25.963  0.00  0.00    +0.024 C 
ATOM     20  C   UNL     1      -5.506   2.678  25.653  0.00  0.00    +0.094 C 
ATOM     21  N   UNL     1      -4.935   2.319  25.180  0.00  0.00    -0.271 N 
ATOM     22  C   UNL     1      -4.337   2.704  24.763  0.00  0.00    +0.221 A 
ATOM     23  N   UNL     1      -4.273   3.526  24.800  0.00  0.00    -0.212 NA
ATOM     24  C   UNL     1      -3.674   3.912  24.383  0.00  0.00    +0.103 A 
ATOM     25  C   UNL     1      -3.140   3.476  23.929  0.00  0.00    +0.041 A 
ATOM     26  C   UNL     1      -3.204   2.655  23.893  0.00  0.00    +0.103 A 
ATOM     27  N   UNL     1      -3.803   2.269  24.310  0.00  0.00    -0.212 NA
ENDBRANCH  15  17
BRANCH  12   7
ATOM      6  C   UNL     1      -2.765  -0.928  24.881  0.00  0.00    +0.228 A 
ATOM      7  C   UNL     1      -3.543  -0.897  24.609  0.00  0.00    +0.092 A 
ATOM      8  C   UNL     1      -3.941  -1.595  24.418  0.00  0.00    +0.009 A 
ATOM      9  C   UNL     1      -3.560  -2.323  24.500  0.00  0.00    +0.021 A 
ATOM     10  C   UNL     1      -2.782  -2.352  24.772  0.00  0.00    +0.102 A 
ATOM     11  N   UNL     1      -2.384  -1.656  24.963  0.00  0.00    -0.210 NA
BRANCH   6   5
ATOM      5  O   UNL     1      -2.367  -0.230  25.072  0.00  0.00    -0.457 OA
BRANCH   5   4
ATOM      4  C   UNL     1      -1.559  -0.250  25.239  0.00  0.00    +0.239 C 
BRANCH   4   3
ATOM      3  C   UNL     1      -1.202   0.390  25.621  0.00  0.00    +0.189 C 
BRANCH   3   2
ATOM      1  C   UNL     1      -0.320   1.512  25.558  0.00  0.00    +0.174 C 
ATOM      2  O   UNL     1      -0.572   0.783  25.262  0.00  0.00    -0.347 OA
ENDBRANCH   3   2
ENDBRANCH   4   3
ENDBRANCH   5   4
ENDBRANCH   6   5
ENDBRANCH  12   7
TORSDOF 6
ENDMDL
