REMARK  Name = 
REMARK  4 active torsions:
REMARK  status: ('A' for Active; 'I' for Inactive)
REMARK    1  A    between atoms: N_2  and  C_3
REMARK    2  A    between atoms: C_6  and  C_9
REMARK    3  A    between atoms: C_12  and  C_14
REMARK    4  A    between atoms: N_18  and  C_19
REMARK                            x       y       z     vdW  Elec       q    Type
REMARK                         _______ _______ _______ _____ _____    ______ ____
ROOT
ATOM      9  C   UNL     1       0.733   3.714   0.000  0.00  0.00    +0.205 A 
ATOM     10  N   UNL     1       0.478   4.498   0.000  0.00  0.00    -0.056 NA
ATOM     11  O   UNL     1       1.145   4.983   0.000  0.00  0.00    -0.336 OA
ATOM     12  C   UNL     1       1.813   4.498   0.000  0.00  0.00    +0.251 A 
ATOM     13  N   UNL     1       1.558   3.714   0.000  0.00  0.00    -0.190 NA
ENDROOT
BRANCH   9   6
ATOM      3  C   UNL     1      -0.722   1.712   0.000  0.00  0.00    +0.148 A 
ATOM      4  C   UNL     1      -1.058   2.465   0.000  0.00  0.00    +0.036 A 
ATOM      5  C   UNL     1      -0.573   3.133   0.000  0.00  0.00    +0.008 A 
ATOM      6  C   UNL     1       0.248   3.046   0.000  0.00  0.00    +0.058 A 
ATOM      7  C   UNL     1       0.583   2.293   0.000  0.00  0.00    +0.103 A 
ATOM      8  N   UNL     1       0.098   1.625   0.000  0.00  0.00    -0.228 NA
BRANCH   3   2
ATOM      1  C   UNL     1      -0.871   0.290   0.000  0.00  0.00    +0.137 C 
ATOM      2  N   UNL     1      -1.207   1.044   0.000  0.00  0.00    -0.218 NA
ENDBRANCH   3   2
ENDBRANCH   9   6
BRANCH  12  14
ATOM     14  C   UNL     1       2.597   4.753   0.000  0.00  0.00    +0.138 C 
ATOM     15  C   UNL     1       2.852   5.538   0.000  0.00  0.00    +0.027 C 
ATOM     16  C   UNL     1       3.677   5.538   0.000  0.00  0.00    +0.019 C 
ATOM     17  C   UNL     1       3.932   4.753   0.000  0.00  0.00    +0.072 C 
ATOM     18  N   UNL     1       3.265   4.269   0.000  0.00  0.00    -0.268 NA
BRANCH  18  19
ATOM     19  C   UNL     1       3.265   3.443   0.000  0.00  0.00    +0.058 C 
ATOM     20  C   UNL     1       3.848   2.860   0.000  0.00  0.00    +0.016 C 
ATOM     21  C   UNL     1       3.265   2.277   0.000  0.00  0.00    +0.003 C 
ATOM     22  C   UNL     1       2.681   2.860   0.000  0.00  0.00    +0.016 C 
ENDBRANCH  18  19
ENDBRANCH  12  14
TORSDOF 4
