MODEL 1
REMARK VINA RESULT:     -11.7      0.000      0.000
REMARK  Name = 
REMARK  7 active torsions:
REMARK  status: ('A' for Active; 'I' for Inactive)
REMARK    1  A    between atoms: C_3  and  C_4
REMARK    2  A    between atoms: C_4  and  N_5
REMARK    3  A    between atoms: N_8  and  C_9
REMARK    4  A    between atoms: C_16  and  C_17
REMARK    5  A    between atoms: C_17  and  C_18
REMARK    6  A    between atoms: N_20  and  C_21
REMARK    7  A    between atoms: C_21  and  C_22
REMARK                            x       y       z     vdW  Elec       q    Type
REMARK                         _______ _______ _______ _____ _____    ______ ____
ROOT
ATOM      1  O   UNL     1      -6.175   2.411  25.436  0.00  0.00    -0.218 OA
ATOM      2  C   UNL     1      -5.380   2.611  25.351  0.00  0.00    +0.213 C 
ATOM      3  C   UNL     1      -4.755   2.084  25.235  0.00  0.00    +0.170 C 
ATOM     15  O   UNL     1      -4.059   2.523  25.179  0.00  0.00    -0.351 OA
ATOM     16  C   UNL     1      -4.252   3.320  25.260  0.00  0.00    +0.157 C 
ATOM     28  C   UNL     1      -5.068   3.376  25.366  0.00  0.00    +0.212 C 
ATOM     29  O   UNL     1      -5.497   4.073  25.469  0.00  0.00    -0.218 OA
ENDROOT
BRANCH   3   4
ATOM      4  C   UNL     1      -4.818   1.263  25.184  0.00  0.00    +0.149 C 
BRANCH   4   5
ATOM      5  N   UNL     1      -4.348   0.846  24.651  0.00  0.00    -0.185 NA
ATOM      6  C   UNL     1      -4.256   0.029  24.732  0.00  0.00    +0.339 C 
ATOM      7  O   UNL     1      -4.635  -0.369  25.347  0.00  0.00    -0.249 OA
ATOM      8  N   UNL     1      -3.787  -0.388  24.198  0.00  0.00    -0.189 NA
BRANCH   8   9
ATOM      9  C   UNL     1      -3.695  -1.204  24.279  0.00  0.00    +0.097 C 
ATOM     10  C   UNL     1      -4.207  -1.718  23.886  0.00  0.00    +0.022 C 
ATOM     11  C   UNL     1      -4.115  -2.533  23.967  0.00  0.00    +0.002 C 
ATOM     12  C   UNL     1      -3.511  -2.836  24.442  0.00  0.00    +0.000 C 
ATOM     13  C   UNL     1      -3.000  -2.322  24.835  0.00  0.00    +0.002 C 
ATOM     14  C   UNL     1      -3.091  -1.506  24.753  0.00  0.00    +0.022 C 
ENDBRANCH   8   9
ENDBRANCH   4   5
ENDBRANCH   3   4
BRANCH  16  17
ATOM     17  C   UNL     1      -3.721   3.952  25.238  0.00  0.00    +0.119 C 
BRANCH  17  18
ATOM     18  C   UNL     1      -3.012   3.909  25.658  0.00  0.00    +0.244 C 
ATOM     19  O   UNL     1      -2.994   4.103  26.459  0.00  0.00    -0.273 OA
ATOM     20  N   UNL     1      -2.321   3.672  25.274  0.00  0.00    -0.200 NA
BRANCH  20  21
ATOM     21  C   UNL     1      -1.611   3.629  25.693  0.00  0.00    +0.143 C 
BRANCH  21  22
ATOM     22  C   UNL     1      -0.984   3.184  25.395  0.00  0.00    +0.019 A 
ATOM     23  C   UNL     1      -0.636   2.598  25.861  0.00  0.00    +0.001 A 
ATOM     24  C   UNL     1      -0.009   2.153  25.563  0.00  0.00    +0.020 A 
ATOM     25  C   UNL     1       0.271   2.293  24.801  0.00  0.00    +0.099 A 
ATOM     26  N   UNL     1      -0.076   2.879  24.335  0.00  0.00    -0.243 NA
ATOM     27  C   UNL     1      -0.704   3.324  24.633  0.00  0.00    +0.096 A 
ENDBRANCH  21  22
ENDBRANCH  20  21
ENDBRANCH  17  18
ENDBRANCH  16  17
TORSDOF 7
ENDMDL
MODEL 2
REMARK VINA RESULT:     -11.5      1.582      3.531
REMARK  Name = 
REMARK  7 active torsions:
REMARK  status: ('A' for Active; 'I' for Inactive)
REMARK    1  A    between atoms: C_3  and  C_4
REMARK    2  A    between atoms: C_4  and  N_5
REMARK    3  A    between atoms: N_8  and  C_9
REMARK    4  A    between atoms: C_16  and  C_17
REMARK    5  A    between atoms: C_17  and  C_18
REMARK    6  A    between atoms: N_20  and  C_21
REMARK    7  A    between atoms: C_21  and  C_22
REMARK                            x       y       z     vdW  Elec       q    Type
REMARK                         _______ _______ _______ _____ _____    ______ ____
ROOT
ATOM      1  O   UNL     1       0.182   1.626  25.383  0.00  0.00    -0.218 OA
ATOM      2  C   UNL     1      -0.574   1.955  25.394  0.00  0.00    +0.213 C 
ATOM      3  C   UNL     1      -1.282   1.548  25.284  0.00  0.00    +0.170 C 
ATOM     15  O   UNL     1      -1.900   2.092  25.340  0.00  0.00    -0.351 OA
ATOM     16  C   UNL     1      -1.574   2.835  25.486  0.00  0.00    +0.157 C 
ATOM     28  C   UNL     1      -0.753   2.751  25.520  0.00  0.00    +0.212 C 
ATOM     29  O   UNL     1      -0.210   3.356  25.655  0.00  0.00    -0.218 OA
ENDROOT
BRANCH   3   4
ATOM      4  C   UNL     1      -1.359   0.738  25.141  0.00  0.00    +0.149 C 
BRANCH   4   5
ATOM      5  N   UNL     1      -2.004   0.325  25.446  0.00  0.00    -0.185 NA
ATOM      6  C   UNL     1      -2.335  -0.298  25.018  0.00  0.00    +0.339 C 
ATOM      7  O   UNL     1      -2.019  -0.508  24.285  0.00  0.00    -0.249 OA
ATOM      8  N   UNL     1      -2.980  -0.711  25.322  0.00  0.00    -0.189 NA
BRANCH   8   9
ATOM      9  C   UNL     1      -3.311  -1.335  24.894  0.00  0.00    +0.097 C 
ATOM     10  C   UNL     1      -3.053  -2.107  25.025  0.00  0.00    +0.022 C 
ATOM     11  C   UNL     1      -3.382  -2.730  24.598  0.00  0.00    +0.002 C 
ATOM     12  C   UNL     1      -3.971  -2.581  24.039  0.00  0.00    +0.000 C 
ATOM     13  C   UNL     1      -4.229  -1.809  23.908  0.00  0.00    +0.002 C 
ATOM     14  C   UNL     1      -3.899  -1.185  24.336  0.00  0.00    +0.022 C 
ENDBRANCH   8   9
ENDBRANCH   4   5
ENDBRANCH   3   4
BRANCH  16  17
ATOM     17  C   UNL     1      -1.994   3.539  25.582  0.00  0.00    +0.119 C 
BRANCH  17  18
ATOM     18  C   UNL     1      -2.697   3.659  25.167  0.00  0.00    +0.244 C 
ATOM     19  O   UNL     1      -2.684   4.033  24.432  0.00  0.00    -0.273 OA
ATOM     20  N   UNL     1      -3.412   3.404  25.489  0.00  0.00    -0.200 NA
BRANCH  20  21
ATOM     21  C   UNL     1      -4.116   3.523  25.074  0.00  0.00    +0.143 C 
BRANCH  21  22
ATOM     22  C   UNL     1      -4.783   3.072  25.255  0.00  0.00    +0.019 A 
ATOM     23  C   UNL     1      -5.027   2.474  24.742  0.00  0.00    +0.001 A 
ATOM     24  C   UNL     1      -5.694   2.023  24.923  0.00  0.00    +0.020 A 
ATOM     25  C   UNL     1      -6.115   2.169  25.616  0.00  0.00    +0.099 A 
ATOM     26  N   UNL     1      -5.871   2.767  26.129  0.00  0.00    -0.243 NA
ATOM     27  C   UNL     1      -5.204   3.219  25.948  0.00  0.00    +0.096 A 
ENDBRANCH  21  22
ENDBRANCH  20  21
ENDBRANCH  17  18
ENDBRANCH  16  17
TORSDOF 7
ENDMDL
MODEL 3
REMARK VINA RESULT:     -10.6      2.468      6.175
REMARK  Name = 
REMARK  7 active torsions:
REMARK  status: ('A' for Active; 'I' for Inactive)
REMARK    1  A    between atoms: C_3  and  C_4
REMARK    2  A    between atoms: C_4  and  N_5
REMARK    3  A    between atoms: N_8  and  C_9
REMARK    4  A    between atoms: C_16  and  C_17
REMARK    5  A    between atoms: C_17  and  C_18
REMARK    6  A    between atoms: N_20  and  C_21
REMARK    7  A    between atoms: C_21  and  C_22
REMARK                            x       y       z     vdW  Elec       q    Type
REMARK                         _______ _______ _______ _____ _____    ______ ____
ROOT
ATOM      1  O   UNL     1       1.080   0.774  23.051  0.00  0.00    -0.218 OA
ATOM      2  C   UNL     1       0.536   0.417  23.557  0.00  0.00    +0.213 C 
ATOM      3  C   UNL     1      -0.076   0.796  23.959  0.00  0.00    +0.170 C 
ATOM     15  O   UNL     1      -0.481   0.229  24.401  0.00  0.00    -0.351 OA
ATOM     16  C   UNL     1      -0.120  -0.501  24.272  0.00  0.00    +0.157 C 
ATOM     28  C   UNL     1       0.509  -0.386  23.750  0.00  0.00    +0.212 C 
ATOM     29  O   UNL     1       1.020  -0.970  23.471  0.00  0.00    -0.218 OA
ENDROOT
BRANCH   3   4
ATOM      4  C   UNL     1      -0.251   1.602  23.926  0.00  0.00    +0.149 C 
BRANCH   4   5
ATOM      5  N   UNL     1      -0.325   2.038  24.622  0.00  0.00    -0.185 NA
ATOM      6  C   UNL     1      -0.729   2.758  24.617  0.00  0.00    +0.339 C 
ATOM      7  O   UNL     1      -1.058   3.041  23.916  0.00  0.00    -0.249 OA
ATOM      8  N   UNL     1      -0.803   3.193  25.313  0.00  0.00    -0.189 NA
BRANCH   8   9
ATOM      9  C   UNL     1      -1.207   3.913  25.309  0.00  0.00    +0.097 C 
ATOM     10  C   UNL     1      -0.834   4.593  25.028  0.00  0.00    +0.022 C 
ATOM     11  C   UNL     1      -1.237   5.312  25.024  0.00  0.00    +0.002 C 
ATOM     12  C   UNL     1      -2.014   5.352  25.301  0.00  0.00    +0.000 C 
ATOM     13  C   UNL     1      -2.387   4.672  25.581  0.00  0.00    +0.002 C 
ATOM     14  C   UNL     1      -1.983   3.952  25.586  0.00  0.00    +0.022 C 
ENDBRANCH   8   9
ENDBRANCH   4   5
ENDBRANCH   3   4
BRANCH  16  17
ATOM     17  C   UNL     1      -0.348  -1.221  24.606  0.00  0.00    +0.119 C 
BRANCH  17  18
ATOM     18  C   UNL     1      -1.063  -1.278  25.013  0.00  0.00    +0.244 C 
ATOM     19  O   UNL     1      -1.112  -1.034  25.799  0.00  0.00    -0.273 OA
ATOM     20  N   UNL     1      -1.730  -1.579  24.631  0.00  0.00    -0.200 NA
BRANCH  20  21
ATOM     21  C   UNL     1      -2.446  -1.637  25.038  0.00  0.00    +0.143 C 
BRANCH  21  22
ATOM     22  C   UNL     1      -3.125  -1.887  24.642  0.00  0.00    +0.019 A 
ATOM     23  C   UNL     1      -3.641  -1.331  24.316  0.00  0.00    +0.001 A 
ATOM     24  C   UNL     1      -4.320  -1.581  23.920  0.00  0.00    +0.020 A 
ATOM     25  C   UNL     1      -4.484  -2.385  23.850  0.00  0.00    +0.099 A 
ATOM     26  N   UNL     1      -3.969  -2.942  24.176  0.00  0.00    -0.243 NA
ATOM     27  C   UNL     1      -3.289  -2.691  24.572  0.00  0.00    +0.096 A 
ENDBRANCH  21  22
ENDBRANCH  20  21
ENDBRANCH  17  18
ENDBRANCH  16  17
TORSDOF 7
ENDMDL
MODEL 4
REMARK VINA RESULT:     -10.5      1.842      5.415
REMARK  Name = 
REMARK  7 active torsions:
REMARK  status: ('A' for Active; 'I' for Inactive)
REMARK    1  A    between atoms: C_3  and  C_4
REMARK    2  A    between atoms: C_4  and  N_5
REMARK    3  A    between atoms: N_8  and  C_9
REMARK    4  A    between atoms: C_16  and  C_17
REMARK    5  A    between atoms: C_17  and  C_18
REMARK    6  A    between atoms: N_20  and  C_21
REMARK    7  A    between atoms: C_21  and  C_22
REMARK                            x       y       z     vdW  Elec       q    Type
REMARK                         _______ _______ _______ _____ _____    ______ ____
ROOT
ATOM      1  O   UNL     1      -0.396  -0.944  24.916  0.00  0.00    -0.218 OA
ATOM      2  C   UNL     1      -1.172  -0.675  24.993  0.00  0.00    +0.213 C 
ATOM      3  C   UNL     1      -1.413   0.113  25.017  0.00  0.00    +0.170 C 
ATOM     15  O   UNL     1      -2.234   0.127  25.098  0.00  0.00    -0.351 OA
ATOM     16  C   UNL     1      -2.500  -0.653  25.125  0.00  0.00    +0.157 C 
ATOM     28  C   UNL     1      -1.844  -1.150  25.060  0.00  0.00    +0.212 C 
ATOM     29  O   UNL     1      -1.858  -1.975  25.062  0.00  0.00    -0.218 OA
ENDROOT
BRANCH   3   4
ATOM      4  C   UNL     1      -0.919   0.772  24.967  0.00  0.00    +0.149 C 
BRANCH   4   5
ATOM      5  N   UNL     1      -1.000   1.390  25.508  0.00  0.00    -0.185 NA
ATOM      6  C   UNL     1      -1.049   2.169  25.240  0.00  0.00    +0.339 C 
ATOM      7  O   UNL     1      -1.016   2.329  24.431  0.00  0.00    -0.249 OA
ATOM      8  N   UNL     1      -1.130   2.787  25.780  0.00  0.00    -0.189 NA
BRANCH   8   9
ATOM      9  C   UNL     1      -1.179   3.566  25.512  0.00  0.00    +0.097 C 
ATOM     10  C   UNL     1      -1.890   3.979  25.573  0.00  0.00    +0.022 C 
ATOM     11  C   UNL     1      -1.939   4.758  25.306  0.00  0.00    +0.002 C 
ATOM     12  C   UNL     1      -1.276   5.123  24.976  0.00  0.00    +0.000 C 
ATOM     13  C   UNL     1      -0.565   4.710  24.915  0.00  0.00    +0.002 C 
ATOM     14  C   UNL     1      -0.516   3.931  25.183  0.00  0.00    +0.022 C 
ENDBRANCH   8   9
ENDBRANCH   4   5
ENDBRANCH   3   4
BRANCH  16  17
ATOM     17  C   UNL     1      -3.286  -0.895  25.203  0.00  0.00    +0.119 C 
BRANCH  17  18
ATOM     18  C   UNL     1      -3.882  -0.496  24.796  0.00  0.00    +0.244 C 
ATOM     19  O   UNL     1      -4.118  -0.757  24.050  0.00  0.00    -0.273 OA
ATOM     20  N   UNL     1      -4.241   0.164  25.136  0.00  0.00    -0.200 NA
BRANCH  20  21
ATOM     21  C   UNL     1      -4.838   0.564  24.729  0.00  0.00    +0.143 C 
BRANCH  21  22
ATOM     22  C   UNL     1      -5.080   1.311  24.982  0.00  0.00    +0.019 A 
ATOM     23  C   UNL     1      -4.821   1.985  24.582  0.00  0.00    +0.001 A 
ATOM     24  C   UNL     1      -5.063   2.732  24.835  0.00  0.00    +0.020 A 
ATOM     25  C   UNL     1      -5.563   2.805  25.486  0.00  0.00    +0.099 A 
ATOM     26  N   UNL     1      -5.822   2.132  25.885  0.00  0.00    -0.243 NA
ATOM     27  C   UNL     1      -5.580   1.384  25.632  0.00  0.00    +0.096 A 
ENDBRANCH  21  22
ENDBRANCH  20  21
ENDBRANCH  17  18
ENDBRANCH  16  17
TORSDOF 7
ENDMDL
MODEL 5
REMARK VINA RESULT:     -10.5      1.097      4.941
REMARK  Name = 
REMARK  7 active torsions:
REMARK  status: ('A' for Active; 'I' for Inactive)
REMARK    1  A    between atoms: C_3  and  C_4
REMARK    2  A    between atoms: C_4  and  N_5
REMARK    3  A    between atoms: N_8  and  C_9
REMARK    4  A    between atoms: C_16  and  C_17
REMARK    5  A    between atoms: C_17  and  C_18
REMARK    6  A    between atoms: N_20  and  C_21
REMARK    7  A    between atoms: C_21  and  C_22
REMARK                            x       y       z     vdW  Elec       q    Type
REMARK                         _______ _______ _______ _____ _____    ______ ____
ROOT
ATOM      1  O   UNL     1      -6.042   3.413  25.911  0.00  0.00    -0.218 OA
ATOM      2  C   UNL     1      -5.569   2.786  25.659  0.00  0.00    +0.213 C 
ATOM      3  C   UNL     1      -4.785   2.840  25.409  0.00  0.00    +0.170 C 
ATOM     15  O   UNL     1      -4.529   2.081  25.208  0.00  0.00    -0.351 OA
ATOM     16  C   UNL     1      -5.155   1.559  25.334  0.00  0.00    +0.157 C 
ATOM     28  C   UNL     1      -5.799   1.995  25.613  0.00  0.00    +0.212 C 
ATOM     29  O   UNL     1      -6.540   1.691  25.810  0.00  0.00    -0.218 OA
ENDROOT
BRANCH   3   4
ATOM      4  C   UNL     1      -4.336   3.531  25.368  0.00  0.00    +0.149 C 
BRANCH   4   5
ATOM      5  N   UNL     1      -3.599   3.566  25.736  0.00  0.00    -0.185 NA
ATOM      6  C   UNL     1      -2.962   3.925  25.352  0.00  0.00    +0.339 C 
ATOM      7  O   UNL     1      -3.064   4.249  24.601  0.00  0.00    -0.249 OA
ATOM      8  N   UNL     1      -2.225   3.960  25.720  0.00  0.00    -0.189 NA
BRANCH   8   9
ATOM      9  C   UNL     1      -1.589   4.320  25.337  0.00  0.00    +0.097 C 
ATOM     10  C   UNL     1      -1.563   5.140  25.261  0.00  0.00    +0.022 C 
ATOM     11  C   UNL     1      -0.927   5.500  24.878  0.00  0.00    +0.002 C 
ATOM     12  C   UNL     1      -0.317   5.037  24.569  0.00  0.00    +0.000 C 
ATOM     13  C   UNL     1      -0.343   4.217  24.645  0.00  0.00    +0.002 C 
ATOM     14  C   UNL     1      -0.979   3.857  25.029  0.00  0.00    +0.022 C 
ENDBRANCH   8   9
ENDBRANCH   4   5
ENDBRANCH   3   4
BRANCH  16  17
ATOM     17  C   UNL     1      -5.141   0.744  25.204  0.00  0.00    +0.119 C 
BRANCH  17  18
ATOM     18  C   UNL     1      -4.607   0.423  24.664  0.00  0.00    +0.244 C 
ATOM     19  O   UNL     1      -4.409   0.840  23.980  0.00  0.00    -0.273 OA
ATOM     20  N   UNL     1      -4.270  -0.316  24.808  0.00  0.00    -0.200 NA
BRANCH  20  21
ATOM     21  C   UNL     1      -3.735  -0.638  24.268  0.00  0.00    +0.143 C 
BRANCH  21  22
ATOM     22  C   UNL     1      -3.436  -1.398  24.388  0.00  0.00    +0.019 A 
ATOM     23  C   UNL     1      -3.909  -2.056  24.229  0.00  0.00    +0.001 A 
ATOM     24  C   UNL     1      -3.610  -2.816  24.348  0.00  0.00    +0.020 A 
ATOM     25  C   UNL     1      -2.841  -2.918  24.626  0.00  0.00    +0.099 A 
ATOM     26  N   UNL     1      -2.369  -2.261  24.785  0.00  0.00    -0.243 NA
ATOM     27  C   UNL     1      -2.667  -1.500  24.666  0.00  0.00    +0.096 A 
ENDBRANCH  21  22
ENDBRANCH  20  21
ENDBRANCH  17  18
ENDBRANCH  16  17
TORSDOF 7
ENDMDL
MODEL 6
REMARK VINA RESULT:     -10.4      2.036      5.195
REMARK  Name = 
REMARK  7 active torsions:
REMARK  status: ('A' for Active; 'I' for Inactive)
REMARK    1  A    between atoms: C_3  and  C_4
REMARK    2  A    between atoms: C_4  and  N_5
REMARK    3  A    between atoms: N_8  and  C_9
REMARK    4  A    between atoms: C_16  and  C_17
REMARK    5  A    between atoms: C_17  and  C_18
REMARK    6  A    between atoms: N_20  and  C_21
REMARK    7  A    between atoms: C_21  and  C_22
REMARK                            x       y       z     vdW  Elec       q    Type
REMARK                         _______ _______ _______ _____ _____    ______ ____
ROOT
ATOM      1  O   UNL     1       0.087   2.541  24.070  0.00  0.00    -0.218 OA
ATOM      2  C   UNL     1      -0.295   1.827  24.223  0.00  0.00    +0.213 C 
ATOM      3  C   UNL     1      -1.077   1.737  24.471  0.00  0.00    +0.170 C 
ATOM     15  O   UNL     1      -1.226   0.930  24.557  0.00  0.00    -0.351 OA
ATOM     16  C   UNL     1      -0.537   0.521  24.363  0.00  0.00    +0.157 C 
ATOM     28  C   UNL     1       0.039   1.075  24.156  0.00  0.00    +0.212 C 
ATOM     29  O   UNL     1       0.813   0.906  23.925  0.00  0.00    -0.218 OA
ENDROOT
BRANCH   3   4
ATOM      4  C   UNL     1      -1.615   2.348  24.608  0.00  0.00    +0.149 C 
BRANCH   4   5
ATOM      5  N   UNL     1      -2.369   2.315  24.276  0.00  0.00    -0.185 NA
ATOM      6  C   UNL     1      -3.026   2.542  24.721  0.00  0.00    +0.339 C 
ATOM      7  O   UNL     1      -2.928   2.802  25.498  0.00  0.00    -0.249 OA
ATOM      8  N   UNL     1      -3.780   2.510  24.389  0.00  0.00    -0.189 NA
BRANCH   8   9
ATOM      9  C   UNL     1      -4.437   2.737  24.834  0.00  0.00    +0.097 C 
ATOM     10  C   UNL     1      -4.601   3.537  24.950  0.00  0.00    +0.022 C 
ATOM     11  C   UNL     1      -5.257   3.764  25.394  0.00  0.00    +0.002 C 
ATOM     12  C   UNL     1      -5.750   3.190  25.724  0.00  0.00    +0.000 C 
ATOM     13  C   UNL     1      -5.587   2.390  25.609  0.00  0.00    +0.002 C 
ATOM     14  C   UNL     1      -4.930   2.163  25.164  0.00  0.00    +0.022 C 
ENDBRANCH   8   9
ENDBRANCH   4   5
ENDBRANCH   3   4
BRANCH  16  17
ATOM     17  C   UNL     1      -0.440  -0.299  24.373  0.00  0.00    +0.119 C 
BRANCH  17  18
ATOM     18  C   UNL     1      -0.945  -0.767  24.827  0.00  0.00    +0.244 C 
ATOM     19  O   UNL     1      -0.784  -0.894  25.626  0.00  0.00    -0.273 OA
ATOM     20  N   UNL     1      -1.611  -1.110  24.481  0.00  0.00    -0.200 NA
BRANCH  20  21
ATOM     21  C   UNL     1      -2.116  -1.579  24.935  0.00  0.00    +0.143 C 
BRANCH  21  22
ATOM     22  C   UNL     1      -2.828  -1.846  24.615  0.00  0.00    +0.019 A 
ATOM     23  C   UNL     1      -3.460  -1.323  24.521  0.00  0.00    +0.001 A 
ATOM     24  C   UNL     1      -4.172  -1.590  24.201  0.00  0.00    +0.020 A 
ATOM     25  C   UNL     1      -4.252  -2.378  23.975  0.00  0.00    +0.099 A 
ATOM     26  N   UNL     1      -3.621  -2.901  24.068  0.00  0.00    -0.243 NA
ATOM     27  C   UNL     1      -2.908  -2.634  24.389  0.00  0.00    +0.096 A 
ENDBRANCH  21  22
ENDBRANCH  20  21
ENDBRANCH  17  18
ENDBRANCH  16  17
TORSDOF 7
ENDMDL
MODEL 7
REMARK VINA RESULT:     -10.0      1.721      4.191
REMARK  Name = 
REMARK  7 active torsions:
REMARK  status: ('A' for Active; 'I' for Inactive)
REMARK    1  A    between atoms: C_3  and  C_4
REMARK    2  A    between atoms: C_4  and  N_5
REMARK    3  A    between atoms: N_8  and  C_9
REMARK    4  A    between atoms: C_16  and  C_17
REMARK    5  A    between atoms: C_17  and  C_18
REMARK    6  A    between atoms: N_20  and  C_21
REMARK    7  A    between atoms: C_21  and  C_22
REMARK                            x       y       z     vdW  Elec       q    Type
REMARK                         _______ _______ _______ _____ _____    ______ ____
ROOT
ATOM      1  O   UNL     1      -3.284  -2.432  24.585  0.00  0.00    -0.218 OA
ATOM      2  C   UNL     1      -2.732  -1.822  24.640  0.00  0.00    +0.213 C 
ATOM      3  C   UNL     1      -2.902  -1.017  24.693  0.00  0.00    +0.170 C 
ATOM     15  O   UNL     1      -2.186  -0.608  24.737  0.00  0.00    -0.351 OA
ATOM     16  C   UNL     1      -1.575  -1.160  24.712  0.00  0.00    +0.157 C 
ATOM     28  C   UNL     1      -1.912  -1.912  24.652  0.00  0.00    +0.212 C 
ATOM     29  O   UNL     1      -1.500  -2.625  24.611  0.00  0.00    -0.218 OA
ENDROOT
BRANCH   3   4
ATOM      4  C   UNL     1      -3.655  -0.679  24.699  0.00  0.00    +0.149 C 
BRANCH   4   5
ATOM      5  N   UNL     1      -3.776   0.068  24.372  0.00  0.00    -0.185 NA
ATOM      6  C   UNL     1      -4.240   0.622  24.769  0.00  0.00    +0.339 C 
ATOM      7  O   UNL     1      -4.584   0.429  25.494  0.00  0.00    -0.249 OA
ATOM      8  N   UNL     1      -4.361   1.369  24.442  0.00  0.00    -0.189 NA
BRANCH   8   9
ATOM      9  C   UNL     1      -4.825   1.924  24.839  0.00  0.00    +0.097 C 
ATOM     10  C   UNL     1      -5.643   1.827  24.874  0.00  0.00    +0.022 C 
ATOM     11  C   UNL     1      -6.108   2.381  25.271  0.00  0.00    +0.002 C 
ATOM     12  C   UNL     1      -5.754   3.033  25.633  0.00  0.00    +0.000 C 
ATOM     13  C   UNL     1      -4.936   3.130  25.598  0.00  0.00    +0.002 C 
ATOM     14  C   UNL     1      -4.471   2.575  25.201  0.00  0.00    +0.022 C 
ENDBRANCH   8   9
ENDBRANCH   4   5
ENDBRANCH   3   4
BRANCH  16  17
ATOM     17  C   UNL     1      -0.767  -0.992  24.741  0.00  0.00    +0.119 C 
BRANCH  17  18
ATOM     18  C   UNL     1      -0.478  -0.298  24.401  0.00  0.00    +0.244 C 
ATOM     19  O   UNL     1      -0.214  -0.300  23.620  0.00  0.00    -0.273 OA
ATOM     20  N   UNL     1      -0.454   0.398  24.844  0.00  0.00    -0.200 NA
BRANCH  20  21
ATOM     21  C   UNL     1      -0.165   1.092  24.504  0.00  0.00    +0.143 C 
BRANCH  21  22
ATOM     22  C   UNL     1      -0.310   1.819  24.866  0.00  0.00    +0.019 A 
ATOM     23  C   UNL     1      -0.764   2.390  24.479  0.00  0.00    +0.001 A 
ATOM     24  C   UNL     1      -0.909   3.116  24.841  0.00  0.00    +0.020 A 
ATOM     25  C   UNL     1      -0.600   3.273  25.589  0.00  0.00    +0.099 A 
ATOM     26  N   UNL     1      -0.146   2.704  25.976  0.00  0.00    -0.243 NA
ATOM     27  C   UNL     1      -0.001   1.976  25.614  0.00  0.00    +0.096 A 
ENDBRANCH  21  22
ENDBRANCH  20  21
ENDBRANCH  17  18
ENDBRANCH  16  17
TORSDOF 7
ENDMDL
