MODEL 1
REMARK VINA RESULT:     -12.3      0.000      0.000
REMARK  Name = 
REMARK  4 active torsions:
REMARK  status: ('A' for Active; 'I' for Inactive)
REMARK    1  A    between atoms: C_6  and  C_7
REMARK    2  A    between atoms: C_7  and  N_8
REMARK    3  A    between atoms: C_18  and  C_20
REMARK    4  A    between atoms: C_23  and  C_26
REMARK                            x       y       z     vdW  Elec       q    Type
REMARK                         _______ _______ _______ _____ _____    ______ ____
ROOT
ATOM      8  N   UNL     1      -1.330   2.760  25.227  0.00  0.00    -0.255 N 
ATOM      9  C   UNL     1      -2.152   2.689  25.239  0.00  0.00    +0.117 C 
ATOM     10  C   UNL     1      -2.341   1.898  25.105  0.00  0.00    +0.116 C 
ATOM     11  C   UNL     1      -3.064   1.503  25.056  0.00  0.00    +0.115 C 
ATOM     12  N   UNL     1      -3.082   0.691  24.913  0.00  0.00    -0.273 N 
ATOM     13  C   UNL     1      -2.377   0.273  24.818  0.00  0.00    +0.115 C 
ATOM     14  C   UNL     1      -1.654   0.667  24.866  0.00  0.00    +0.116 C 
ATOM     15  N   UNL     1      -1.636   1.480  25.010  0.00  0.00    -0.261 N 
ATOM     16  C   UNL     1      -1.012   2.013  25.085  0.00  0.00    +0.308 C 
ATOM     17  O   UNL     1      -0.209   1.830  25.029  0.00  0.00    -0.252 OA
ATOM     18  C   UNL     1      -3.805   0.296  24.865  0.00  0.00    +0.249 C 
ATOM     19  O   UNL     1      -4.510   0.714  24.960  0.00  0.00    -0.270 OA
ENDROOT
BRANCH  18  20
ATOM     20  C   UNL     1      -3.824  -0.515  24.722  0.00  0.00    +0.054 A 
ATOM     21  C   UNL     1      -3.666  -1.047  25.334  0.00  0.00    +0.004 A 
ATOM     22  C   UNL     1      -3.685  -1.858  25.191  0.00  0.00    +0.004 A 
ATOM     23  C   UNL     1      -3.861  -2.140  24.435  0.00  0.00    +0.071 A 
ATOM     24  C   UNL     1      -4.018  -1.610  23.823  0.00  0.00    +0.004 A 
ATOM     25  C   UNL     1      -4.000  -0.797  23.967  0.00  0.00    +0.004 A 
BRANCH  23  26
ATOM     26  C   UNL     1      -3.879  -2.953  24.292  0.00  0.00    +0.419 C 
ATOM     27  F   UNL     1      -3.898  -3.764  24.148  0.00  0.00    -0.166 F 
ATOM     28  F   UNL     1      -3.352  -3.074  24.915  0.00  0.00    -0.166 F 
ATOM     29  F   UNL     1      -4.406  -2.830  23.669  0.00  0.00    -0.166 F 
ENDBRANCH  23  26
ENDBRANCH  18  20
BRANCH   8   7
ATOM      7  C   UNL     1      -0.902   3.457  25.337  0.00  0.00    +0.159 C 
BRANCH   7   6
ATOM      1  C   UNL     1      -0.316   4.940  24.513  0.00  0.00    +0.132 C 
ATOM      2  N   UNL     1      -1.019   4.867  24.940  0.00  0.00    -0.310 N 
ATOM      3  C   UNL     1      -1.575   5.464  25.062  0.00  0.00    +0.098 A 
ATOM      4  C   UNL     1      -2.189   5.151  25.516  0.00  0.00    +0.119 A 
ATOM      5  N   UNL     1      -2.011   4.361  25.675  0.00  0.00    -0.228 NA
ATOM      6  C   UNL     1      -1.287   4.186  25.318  0.00  0.00    +0.141 A 
ENDBRANCH   7   6
ENDBRANCH   8   7
TORSDOF 4
ENDMDL
MODEL 2
REMARK VINA RESULT:     -12.0      3.073      5.996
REMARK  Name = 
REMARK  4 active torsions:
REMARK  status: ('A' for Active; 'I' for Inactive)
REMARK    1  A    between atoms: C_6  and  C_7
REMARK    2  A    between atoms: C_7  and  N_8
REMARK    3  A    between atoms: C_18  and  C_20
REMARK    4  A    between atoms: C_23  and  C_26
REMARK                            x       y       z     vdW  Elec       q    Type
REMARK                         _______ _______ _______ _____ _____    ______ ____
ROOT
ATOM      8  N   UNL     1      -3.745  -0.381  24.576  0.00  0.00    -0.255 N 
ATOM      9  C   UNL     1      -2.938  -0.327  24.745  0.00  0.00    +0.117 C 
ATOM     10  C   UNL     1      -2.740   0.473  24.782  0.00  0.00    +0.116 C 
ATOM     11  C   UNL     1      -2.025   0.858  24.930  0.00  0.00    +0.115 C 
ATOM     12  N   UNL     1      -1.993   1.682  24.931  0.00  0.00    -0.273 N 
ATOM     13  C   UNL     1      -2.676   2.121  24.786  0.00  0.00    +0.115 C 
ATOM     14  C   UNL     1      -3.391   1.737  24.638  0.00  0.00    +0.116 C 
ATOM     15  N   UNL     1      -3.423   0.912  24.636  0.00  0.00    -0.261 N 
ATOM     16  C   UNL     1      -4.043   0.385  24.509  0.00  0.00    +0.308 C 
ATOM     17  O   UNL     1      -4.826   0.587  24.344  0.00  0.00    -0.252 OA
ATOM     18  C   UNL     1      -1.279   2.067  25.079  0.00  0.00    +0.249 C 
ATOM     19  O   UNL     1      -0.596   1.628  25.225  0.00  0.00    -0.270 OA
ENDROOT
BRANCH  18  20
ATOM     20  C   UNL     1      -1.247   2.891  25.081  0.00  0.00    +0.054 A 
ATOM     21  C   UNL     1      -1.493   3.313  25.746  0.00  0.00    +0.004 A 
ATOM     22  C   UNL     1      -1.461   4.137  25.748  0.00  0.00    +0.004 A 
ATOM     23  C   UNL     1      -1.182   4.540  25.084  0.00  0.00    +0.071 A 
ATOM     24  C   UNL     1      -0.935   4.119  24.419  0.00  0.00    +0.004 A 
ATOM     25  C   UNL     1      -0.968   3.294  24.417  0.00  0.00    +0.004 A 
BRANCH  23  26
ATOM     26  C   UNL     1      -1.150   5.365  25.086  0.00  0.00    +0.419 C 
ATOM     27  F   UNL     1      -1.118   6.189  25.087  0.00  0.00    -0.166 F 
ATOM     28  F   UNL     1      -0.397   5.336  24.751  0.00  0.00    -0.166 F 
ATOM     29  F   UNL     1      -1.904   5.393  25.420  0.00  0.00    -0.166 F 
ENDBRANCH  23  26
ENDBRANCH  18  20
BRANCH   8   7
ATOM      7  C   UNL     1      -4.176  -1.079  24.490  0.00  0.00    +0.159 C 
BRANCH   7   6
ATOM      1  C   UNL     1      -4.182  -2.596  23.531  0.00  0.00    +0.132 C 
ATOM      2  N   UNL     1      -3.848  -2.497  24.278  0.00  0.00    -0.310 N 
ATOM      3  C   UNL     1      -3.458  -3.078  24.715  0.00  0.00    +0.098 A 
ATOM      4  C   UNL     1      -3.214  -2.739  25.427  0.00  0.00    +0.119 A 
ATOM      5  N   UNL     1      -3.453  -1.949  25.429  0.00  0.00    -0.228 NA
ATOM      6  C   UNL     1      -3.845  -1.800  24.718  0.00  0.00    +0.141 A 
ENDBRANCH   7   6
ENDBRANCH   8   7
TORSDOF 4
ENDMDL
