MODEL 1
REMARK VINA RESULT:     -12.7      0.000      0.000
REMARK  Name = 
REMARK  6 active torsions:
REMARK  status: ('A' for Active; 'I' for Inactive)
REMARK    1  A    between atoms: C_2  and  C_5
REMARK    2  A    between atoms: C_8  and  C_11
REMARK    3  A    between atoms: C_13  and  C_14
REMARK    4  A    between atoms: C_14  and  C_15
REMARK    5  A    between atoms: C_20  and  C_21
REMARK    6  A    between atoms: C_21  and  C_22
REMARK                            x       y       z     vdW  Elec       q    Type
REMARK                         _______ _______ _______ _____ _____    ______ ____
ROOT
ATOM     11  C   UNL     1      -3.937   0.930  24.436  0.00  0.00    +0.177 A 
ATOM     12  C   UNL     1      -3.306   1.462  24.439  0.00  0.00    +0.058 A 
ATOM     13  C   UNL     1      -3.616   2.226  24.405  0.00  0.00    +0.101 A 
ATOM     25  N   UNL     1      -4.439   2.166  24.382  0.00  0.00    -0.081 NA
ATOM     26  O   UNL     1      -4.637   1.365  24.401  0.00  0.00    -0.354 OA
ENDROOT
BRANCH  11   8
ATOM      5  C   UNL     1      -3.758  -1.537  24.519  0.00  0.00    -0.023 A 
ATOM      6  C   UNL     1      -3.643  -1.091  25.204  0.00  0.00    -0.004 A 
ATOM      7  C   UNL     1      -3.702  -0.269  25.177  0.00  0.00    +0.003 A 
ATOM      8  C   UNL     1      -3.877   0.108  24.464  0.00  0.00    +0.037 A 
ATOM      9  C   UNL     1      -3.993  -0.337  23.779  0.00  0.00    +0.003 A 
ATOM     10  C   UNL     1      -3.933  -1.159  23.807  0.00  0.00    -0.004 A 
BRANCH   5   2
ATOM      1  C   UNL     1      -3.639  -3.182  24.574  0.00  0.00    +0.004 C 
ATOM      2  C   UNL     1      -3.699  -2.360  24.547  0.00  0.00    +0.019 C 
ATOM      3  C   UNL     1      -3.259  -2.304  25.243  0.00  0.00    +0.004 C 
ATOM      4  C   UNL     1      -4.138  -2.415  23.851  0.00  0.00    +0.004 C 
ENDBRANCH   5   2
ENDBRANCH  11   8
BRANCH  13  14
ATOM     14  C   UNL     1      -3.181   2.926  24.396  0.00  0.00    +0.051 C 
BRANCH  14  15
ATOM     15  C   UNL     1      -3.142   3.396  25.073  0.00  0.00    +0.024 C 
ATOM     16  C   UNL     1      -3.809   3.491  25.549  0.00  0.00    +0.089 C 
ATOM     17  N   UNL     1      -3.770   3.961  26.225  0.00  0.00    -0.218 NA
ATOM     18  C   UNL     1      -3.064   4.337  26.426  0.00  0.00    +0.089 C 
ATOM     19  C   UNL     1      -2.396   4.243  25.951  0.00  0.00    +0.019 C 
ATOM     20  C   UNL     1      -2.436   3.772  25.274  0.00  0.00    +0.014 C 
BRANCH  20  21
ATOM     21  C   UNL     1      -1.768   3.678  24.798  0.00  0.00    +0.114 C 
BRANCH  21  22
ATOM     22  C   UNL     1      -1.049   4.013  25.027  0.00  0.00    +0.365 C 
ATOM     23  O   UNL     1      -0.507   3.569  25.463  0.00  0.00    -0.246 OA
ATOM     24  O   UNL     1      -0.872   4.791  24.820  0.00  0.00    -0.246 OA
ENDBRANCH  21  22
ENDBRANCH  20  21
ENDBRANCH  14  15
ENDBRANCH  13  14
TORSDOF 6
ENDMDL
MODEL 2
REMARK VINA RESULT:     -12.2      1.497      2.130
REMARK  Name = 
REMARK  6 active torsions:
REMARK  status: ('A' for Active; 'I' for Inactive)
REMARK    1  A    between atoms: C_2  and  C_5
REMARK    2  A    between atoms: C_8  and  C_11
REMARK    3  A    between atoms: C_13  and  C_14
REMARK    4  A    between atoms: C_14  and  C_15
REMARK    5  A    between atoms: C_20  and  C_21
REMARK    6  A    between atoms: C_21  and  C_22
REMARK                            x       y       z     vdW  Elec       q    Type
REMARK                         _______ _______ _______ _____ _____    ______ ____
ROOT
ATOM     11  C   UNL     1      -3.389   0.671  23.901  0.00  0.00    +0.177 A 
ATOM     12  C   UNL     1      -3.859   1.266  24.227  0.00  0.00    +0.058 A 
ATOM     13  C   UNL     1      -3.635   1.984  23.887  0.00  0.00    +0.101 A 
ATOM     25  N   UNL     1      -3.026   1.833  23.352  0.00  0.00    -0.081 NA
ATOM     26  O   UNL     1      -2.874   1.022  23.360  0.00  0.00    -0.354 OA
ENDROOT
BRANCH  11   8
ATOM      5  C   UNL     1      -3.503  -1.739  24.449  0.00  0.00    -0.023 A 
ATOM      6  C   UNL     1      -2.835  -1.300  24.656  0.00  0.00    -0.004 A 
ATOM      7  C   UNL     1      -2.797  -0.497  24.473  0.00  0.00    +0.003 A 
ATOM      8  C   UNL     1      -3.427  -0.132  24.084  0.00  0.00    +0.037 A 
ATOM      9  C   UNL     1      -4.094  -0.571  23.878  0.00  0.00    +0.003 A 
ATOM     10  C   UNL     1      -4.132  -1.374  24.061  0.00  0.00    -0.004 A 
BRANCH   5   2
ATOM      1  C   UNL     1      -3.579  -3.347  24.815  0.00  0.00    +0.004 C 
ATOM      2  C   UNL     1      -3.541  -2.543  24.632  0.00  0.00    +0.019 C 
ATOM      3  C   UNL     1      -3.864  -2.697  23.889  0.00  0.00    +0.004 C 
ATOM      4  C   UNL     1      -3.218  -2.389  25.376  0.00  0.00    +0.004 C 
ENDBRANCH   5   2
ENDBRANCH  11   8
BRANCH  13  14
ATOM     14  C   UNL     1      -3.962   2.722  24.054  0.00  0.00    +0.051 C 
BRANCH  14  15
ATOM     15  C   UNL     1      -3.675   3.168  24.686  0.00  0.00    +0.024 C 
ATOM     16  C   UNL     1      -2.864   3.299  24.763  0.00  0.00    +0.089 C 
ATOM     17  N   UNL     1      -2.576   3.744  25.394  0.00  0.00    -0.218 NA
ATOM     18  C   UNL     1      -3.099   4.059  25.949  0.00  0.00    +0.089 C 
ATOM     19  C   UNL     1      -3.910   3.929  25.872  0.00  0.00    +0.019 C 
ATOM     20  C   UNL     1      -4.198   3.483  25.240  0.00  0.00    +0.014 C 
BRANCH  20  21
ATOM     21  C   UNL     1      -5.009   3.352  25.164  0.00  0.00    +0.114 C 
BRANCH  21  22
ATOM     22  C   UNL     1      -5.524   3.600  25.759  0.00  0.00    +0.365 C 
ATOM     23  O   UNL     1      -5.879   4.344  25.713  0.00  0.00    -0.246 OA
ATOM     24  O   UNL     1      -5.684   3.106  26.400  0.00  0.00    -0.246 OA
ENDBRANCH  21  22
ENDBRANCH  20  21
ENDBRANCH  14  15
ENDBRANCH  13  14
TORSDOF 6
ENDMDL
MODEL 3
REMARK VINA RESULT:     -11.6      1.156      1.555
REMARK  Name = 
REMARK  6 active torsions:
REMARK  status: ('A' for Active; 'I' for Inactive)
REMARK    1  A    between atoms: C_2  and  C_5
REMARK    2  A    between atoms: C_8  and  C_11
REMARK    3  A    between atoms: C_13  and  C_14
REMARK    4  A    between atoms: C_14  and  C_15
REMARK    5  A    between atoms: C_20  and  C_21
REMARK    6  A    between atoms: C_21  and  C_22
REMARK                            x       y       z     vdW  Elec       q    Type
REMARK                         _______ _______ _______ _____ _____    ______ ____
ROOT
ATOM     11  C   UNL     1      -3.248   0.746  24.774  0.00  0.00    +0.177 A 
ATOM     12  C   UNL     1      -2.583   1.155  24.507  0.00  0.00    +0.058 A 
ATOM     13  C   UNL     1      -2.654   1.941  24.747  0.00  0.00    +0.101 A 
ATOM     25  N   UNL     1      -3.362   2.018  25.162  0.00  0.00    -0.081 NA
ATOM     26  O   UNL     1      -3.729   1.279  25.179  0.00  0.00    -0.354 OA
ENDROOT
BRANCH  11   8
ATOM      5  C   UNL     1      -3.715  -1.659  24.423  0.00  0.00    -0.023 A 
ATOM      6  C   UNL     1      -3.305  -1.412  25.096  0.00  0.00    -0.004 A 
ATOM      7  C   UNL     1      -3.150  -0.610  25.213  0.00  0.00    +0.003 A 
ATOM      8  C   UNL     1      -3.404  -0.056  24.657  0.00  0.00    +0.037 A 
ATOM      9  C   UNL     1      -3.813  -0.302  23.985  0.00  0.00    +0.003 A 
ATOM     10  C   UNL     1      -3.968  -1.104  23.868  0.00  0.00    -0.004 A 
BRANCH   5   2
ATOM      1  C   UNL     1      -4.026  -3.262  24.188  0.00  0.00    +0.004 C 
ATOM      2  C   UNL     1      -3.871  -2.461  24.305  0.00  0.00    +0.019 C 
ATOM      3  C   UNL     1      -4.374  -2.272  23.680  0.00  0.00    +0.004 C 
ATOM      4  C   UNL     1      -3.367  -2.650  24.931  0.00  0.00    +0.004 C 
ENDBRANCH   5   2
ENDBRANCH  11   8
BRANCH  13  14
ATOM     14  C   UNL     1      -2.111   2.544  24.597  0.00  0.00    +0.051 C 
BRANCH  14  15
ATOM     15  C   UNL     1      -1.468   2.655  25.101  0.00  0.00    +0.024 C 
ATOM     16  C   UNL     1      -1.129   2.008  25.485  0.00  0.00    +0.089 C 
ATOM     17  N   UNL     1      -0.485   2.118  25.989  0.00  0.00    -0.218 NA
ATOM     18  C   UNL     1      -0.180   2.875  26.108  0.00  0.00    +0.089 C 
ATOM     19  C   UNL     1      -0.518   3.522  25.724  0.00  0.00    +0.019 C 
ATOM     20  C   UNL     1      -1.162   3.411  25.220  0.00  0.00    +0.014 C 
BRANCH  20  21
ATOM     21  C   UNL     1      -1.501   4.059  24.836  0.00  0.00    +0.114 C 
BRANCH  21  22
ATOM     22  C   UNL     1      -1.257   4.824  25.027  0.00  0.00    +0.365 C 
ATOM     23  O   UNL     1      -1.714   5.287  25.536  0.00  0.00    -0.246 OA
ATOM     24  O   UNL     1      -0.559   5.127  24.710  0.00  0.00    -0.246 OA
ENDBRANCH  21  22
ENDBRANCH  20  21
ENDBRANCH  14  15
ENDBRANCH  13  14
TORSDOF 6
ENDMDL
MODEL 4
REMARK VINA RESULT:     -11.1      1.578      5.388
REMARK  Name = 
REMARK  6 active torsions:
REMARK  status: ('A' for Active; 'I' for Inactive)
REMARK    1  A    between atoms: C_2  and  C_5
REMARK    2  A    between atoms: C_8  and  C_11
REMARK    3  A    between atoms: C_13  and  C_14
REMARK    4  A    between atoms: C_14  and  C_15
REMARK    5  A    between atoms: C_20  and  C_21
REMARK    6  A    between atoms: C_21  and  C_22
REMARK                            x       y       z     vdW  Elec       q    Type
REMARK                         _______ _______ _______ _____ _____    ______ ____
ROOT
ATOM     11  C   UNL     1      -3.498   1.927  24.923  0.00  0.00    +0.177 A 
ATOM     12  C   UNL     1      -3.317   1.187  24.605  0.00  0.00    +0.058 A 
ATOM     13  C   UNL     1      -3.980   0.702  24.695  0.00  0.00    +0.101 A 
ATOM     25  N   UNL     1      -4.569   1.143  25.068  0.00  0.00    -0.081 NA
ATOM     26  O   UNL     1      -4.271   1.899  25.210  0.00  0.00    -0.354 OA
ENDROOT
BRANCH  11   8
ATOM      5  C   UNL     1      -1.984   3.883  25.005  0.00  0.00    -0.023 A 
ATOM      6  C   UNL     1      -1.819   3.214  25.460  0.00  0.00    -0.004 A 
ATOM      7  C   UNL     1      -2.324   2.562  25.432  0.00  0.00    +0.003 A 
ATOM      8  C   UNL     1      -2.993   2.579  24.950  0.00  0.00    +0.037 A 
ATOM      9  C   UNL     1      -3.158   3.247  24.496  0.00  0.00    +0.003 A 
ATOM     10  C   UNL     1      -2.654   3.899  24.523  0.00  0.00    -0.004 A 
BRANCH   5   2
ATOM      1  C   UNL     1      -0.975   5.187  25.059  0.00  0.00    +0.004 C 
ATOM      2  C   UNL     1      -1.480   4.535  25.032  0.00  0.00    +0.019 C 
ATOM      3  C   UNL     1      -2.099   5.003  25.313  0.00  0.00    +0.004 C 
ATOM      4  C   UNL     1      -0.861   4.068  24.750  0.00  0.00    +0.004 C 
ENDBRANCH   5   2
ENDBRANCH  11   8
BRANCH  13  14
ATOM     14  C   UNL     1      -4.041  -0.084  24.453  0.00  0.00    +0.051 C 
BRANCH  14  15
ATOM     15  C   UNL     1      -3.806  -0.691  24.959  0.00  0.00    +0.024 C 
ATOM     16  C   UNL     1      -3.606  -0.521  25.742  0.00  0.00    +0.089 C 
ATOM     17  N   UNL     1      -3.371  -1.128  26.248  0.00  0.00    -0.218 NA
ATOM     18  C   UNL     1      -3.336  -1.905  25.973  0.00  0.00    +0.089 C 
ATOM     19  C   UNL     1      -3.536  -2.075  25.191  0.00  0.00    +0.019 C 
ATOM     20  C   UNL     1      -3.771  -1.467  24.684  0.00  0.00    +0.014 C 
BRANCH  20  21
ATOM     21  C   UNL     1      -3.971  -1.638  23.902  0.00  0.00    +0.114 C 
BRANCH  21  22
ATOM     22  C   UNL     1      -4.112  -2.418  23.673  0.00  0.00    +0.365 C 
ATOM     23  O   UNL     1      -4.886  -2.685  23.570  0.00  0.00    -0.246 OA
ATOM     24  O   UNL     1      -3.479  -2.932  23.548  0.00  0.00    -0.246 OA
ENDBRANCH  21  22
ENDBRANCH  20  21
ENDBRANCH  14  15
ENDBRANCH  13  14
TORSDOF 6
ENDMDL
