MODEL 1
REMARK VINA RESULT:     -12.4      0.000      0.000
REMARK  Name = 
REMARK  8 active torsions:
REMARK  status: ('A' for Active; 'I' for Inactive)
REMARK    1  A    between atoms: O_2  and  C_3
REMARK    2  A    between atoms: C_6  and  C_7
REMARK    3  A    between atoms: C_7  and  N_8
REMARK    4  A    between atoms: C_9  and  C_11
REMARK    5  A    between atoms: C_11  and  C_12
REMARK    6  A    between atoms: C_17  and  C_18
REMARK    7  A    between atoms: C_18  and  C_19
REMARK    8  A    between atoms: C_22  and  C_24
REMARK                            x       y       z     vdW  Elec       q    Type
REMARK                         _______ _______ _______ _____ _____    ______ ____
ROOT
ATOM     12  C   UNL     1      -0.259   1.516  25.058  0.00  0.00    +0.012 C 
ATOM     13  C   UNL     1       0.215   1.914  24.512  0.00  0.00    +0.019 C 
ATOM     14  C   UNL     1       0.509   1.514  23.853  0.00  0.00    +0.089 C 
ATOM     15  N   UNL     1       0.329   0.717  23.740  0.00  0.00    -0.218 NA
ATOM     16  C   UNL     1      -0.145   0.320  24.287  0.00  0.00    +0.089 C 
ATOM     17  C   UNL     1      -0.438   0.719  24.945  0.00  0.00    +0.024 C 
ENDROOT
BRANCH  12  11
ATOM     11  C   UNL     1      -0.552   1.917  25.717  0.00  0.00    +0.087 C 
BRANCH  11   9
ATOM      8  N   UNL     1      -1.693   2.769  25.607  0.00  0.00    -0.201 NA
ATOM      9  C   UNL     1      -0.874   2.671  25.632  0.00  0.00    +0.242 C 
ATOM     10  O   UNL     1      -0.378   3.327  25.571  0.00  0.00    -0.273 OA
BRANCH   8   7
ATOM      7  C   UNL     1      -2.016   3.524  25.522  0.00  0.00    +0.141 C 
BRANCH   7   6
ATOM      3  C   UNL     1      -4.471   3.814  25.413  0.00  0.00    +0.139 A 
ATOM      4  C   UNL     1      -4.055   3.564  24.745  0.00  0.00    +0.037 A 
ATOM      5  C   UNL     1      -3.237   3.468  24.782  0.00  0.00    +0.001 A 
ATOM      6  C   UNL     1      -2.835   3.620  25.485  0.00  0.00    -0.000 A 
ATOM     31  C   UNL     1      -3.251   3.870  26.152  0.00  0.00    +0.001 A 
ATOM     32  C   UNL     1      -4.069   3.967  26.116  0.00  0.00    +0.037 A 
BRANCH   3   2
ATOM      1  C   UNL     1      -5.789   3.293  25.602  0.00  0.00    +0.252 C 
ATOM      2  O   UNL     1      -5.290   3.911  25.376  0.00  0.00    -0.471 OA
ENDBRANCH   3   2
ENDBRANCH   7   6
ENDBRANCH   8   7
ENDBRANCH  11   9
ENDBRANCH  12  11
BRANCH  17  18
ATOM     18  C   UNL     1      -0.912   0.322  25.491  0.00  0.00    +0.051 C 
BRANCH  18  19
ATOM     19  C   UNL     1      -1.264  -0.396  25.287  0.00  0.00    +0.101 A 
ATOM     20  N   UNL     1      -0.912  -1.139  25.336  0.00  0.00    -0.081 NA
ATOM     21  O   UNL     1      -1.460  -1.699  25.077  0.00  0.00    -0.354 OA
ATOM     22  C   UNL     1      -2.152  -1.300  24.867  0.00  0.00    +0.177 A 
ATOM     23  C   UNL     1      -2.030  -0.494  24.997  0.00  0.00    +0.058 A 
BRANCH  22  24
ATOM     24  C   UNL     1      -2.843  -1.647  24.579  0.00  0.00    +0.037 A 
ATOM     25  C   UNL     1      -3.458  -1.172  24.304  0.00  0.00    +0.005 A 
ATOM     26  C   UNL     1      -4.150  -1.519  24.015  0.00  0.00    +0.030 A 
ATOM     27  C   UNL     1      -4.224  -2.341  24.002  0.00  0.00    +0.140 A 
ATOM     28  F   UNL     1      -4.915  -2.687  23.713  0.00  0.00    -0.204 F 
ATOM     29  C   UNL     1      -3.608  -2.815  24.277  0.00  0.00    +0.030 A 
ATOM     30  C   UNL     1      -2.917  -2.468  24.566  0.00  0.00    +0.005 A 
ENDBRANCH  22  24
ENDBRANCH  18  19
ENDBRANCH  17  18
TORSDOF 8
ENDMDL
MODEL 2
REMARK VINA RESULT:     -11.9      2.263      5.654
REMARK  Name = 
REMARK  8 active torsions:
REMARK  status: ('A' for Active; 'I' for Inactive)
REMARK    1  A    between atoms: O_2  and  C_3
REMARK    2  A    between atoms: C_6  and  C_7
REMARK    3  A    between atoms: C_7  and  N_8
REMARK    4  A    between atoms: C_9  and  C_11
REMARK    5  A    between atoms: C_11  and  C_12
REMARK    6  A    between atoms: C_17  and  C_18
REMARK    7  A    between atoms: C_18  and  C_19
REMARK    8  A    between atoms: C_22  and  C_24
REMARK                            x       y       z     vdW  Elec       q    Type
REMARK                         _______ _______ _______ _____ _____    ______ ____
ROOT
ATOM     12  C   UNL     1      -5.034   2.465  24.912  0.00  0.00    +0.012 C 
ATOM     13  C   UNL     1      -5.657   2.396  25.449  0.00  0.00    +0.019 C 
ATOM     14  C   UNL     1      -5.827   3.018  25.964  0.00  0.00    +0.089 C 
ATOM     15  N   UNL     1      -5.376   3.708  25.942  0.00  0.00    -0.218 NA
ATOM     16  C   UNL     1      -4.753   3.776  25.404  0.00  0.00    +0.089 C 
ATOM     17  C   UNL     1      -4.582   3.155  24.890  0.00  0.00    +0.024 C 
ENDROOT
BRANCH  12  11
ATOM     11  C   UNL     1      -4.864   1.843  24.398  0.00  0.00    +0.087 C 
BRANCH  11   9
ATOM      8  N   UNL     1      -4.465   0.486  24.600  0.00  0.00    -0.201 NA
ATOM      9  C   UNL     1      -5.050   1.069  24.611  0.00  0.00    +0.242 C 
ATOM     10  O   UNL     1      -5.820   0.876  24.836  0.00  0.00    -0.273 OA
BRANCH   8   7
ATOM      7  C   UNL     1      -4.651  -0.289  24.813  0.00  0.00    +0.141 C 
BRANCH   7   6
ATOM      3  C   UNL     1      -2.916  -2.050  24.705  0.00  0.00    +0.139 A 
ATOM      4  C   UNL     1      -3.534  -2.046  24.160  0.00  0.00    +0.037 A 
ATOM      5  C   UNL     1      -4.112  -1.460  24.196  0.00  0.00    +0.001 A 
ATOM      6  C   UNL     1      -4.072  -0.877  24.777  0.00  0.00    -0.000 A 
ATOM     31  C   UNL     1      -3.454  -0.880  25.322  0.00  0.00    +0.001 A 
ATOM     32  C   UNL     1      -2.875  -1.466  25.287  0.00  0.00    +0.037 A 
BRANCH   3   2
ATOM      1  C   UNL     1      -1.552  -2.434  24.517  0.00  0.00    +0.252 C 
ATOM      2  O   UNL     1      -2.336  -2.637  24.669  0.00  0.00    -0.471 OA
ENDBRANCH   3   2
ENDBRANCH   7   6
ENDBRANCH   8   7
ENDBRANCH  11   9
ENDBRANCH  12  11
BRANCH  17  18
ATOM     18  C   UNL     1      -3.960   3.223  24.353  0.00  0.00    +0.051 C 
BRANCH  18  19
ATOM     19  C   UNL     1      -3.212   3.453  24.616  0.00  0.00    +0.101 A 
ATOM     20  N   UNL     1      -2.942   4.228  24.688  0.00  0.00    -0.081 NA
ATOM     21  O   UNL     1      -2.166   4.202  24.969  0.00  0.00    -0.354 OA
ATOM     22  C   UNL     1      -1.958   3.410  25.069  0.00  0.00    +0.177 A 
ATOM     23  C   UNL     1      -2.605   2.947  24.851  0.00  0.00    +0.058 A 
BRANCH  22  24
ATOM     24  C   UNL     1      -1.230   3.131  25.341  0.00  0.00    +0.037 A 
ATOM     25  C   UNL     1      -0.604   3.032  24.814  0.00  0.00    +0.005 A 
ATOM     26  C   UNL     1       0.124   2.753  25.085  0.00  0.00    +0.030 A 
ATOM     27  C   UNL     1       0.224   2.572  25.884  0.00  0.00    +0.140 A 
ATOM     28  F   UNL     1       0.952   2.293  26.156  0.00  0.00    -0.204 F 
ATOM     29  C   UNL     1      -0.403   2.671  26.411  0.00  0.00    +0.030 A 
ATOM     30  C   UNL     1      -1.130   2.950  26.139  0.00  0.00    +0.005 A 
ENDBRANCH  22  24
ENDBRANCH  18  19
ENDBRANCH  17  18
TORSDOF 8
ENDMDL
MODEL 3
REMARK VINA RESULT:     -11.9      1.510      4.511
REMARK  Name = 
REMARK  8 active torsions:
REMARK  status: ('A' for Active; 'I' for Inactive)
REMARK    1  A    between atoms: O_2  and  C_3
REMARK    2  A    between atoms: C_6  and  C_7
REMARK    3  A    between atoms: C_7  and  N_8
REMARK    4  A    between atoms: C_9  and  C_11
REMARK    5  A    between atoms: C_11  and  C_12
REMARK    6  A    between atoms: C_17  and  C_18
REMARK    7  A    between atoms: C_18  and  C_19
REMARK    8  A    between atoms: C_22  and  C_24
REMARK                            x       y       z     vdW  Elec       q    Type
REMARK                         _______ _______ _______ _____ _____    ______ ____
ROOT
ATOM     12  C   UNL     1      -0.621   2.048  24.902  0.00  0.00    +0.012 C 
ATOM     13  C   UNL     1      -0.055   1.950  25.494  0.00  0.00    +0.019 C 
ATOM     14  C   UNL     1       0.033   2.526  26.079  0.00  0.00    +0.089 C 
ATOM     15  N   UNL     1      -0.444   3.199  26.071  0.00  0.00    -0.218 NA
ATOM     16  C   UNL     1      -1.010   3.296  25.478  0.00  0.00    +0.089 C 
ATOM     17  C   UNL     1      -1.098   2.721  24.894  0.00  0.00    +0.024 C 
ENDROOT
BRANCH  12  11
ATOM     11  C   UNL     1      -0.709   1.473  24.318  0.00  0.00    +0.087 C 
BRANCH  11   9
ATOM      8  N   UNL     1      -1.174   0.148  24.582  0.00  0.00    -0.201 NA
ATOM      9  C   UNL     1      -0.551   0.683  24.490  0.00  0.00    +0.242 C 
ATOM     10  O   UNL     1       0.228   0.425  24.571  0.00  0.00    -0.273 OA
BRANCH   8   7
ATOM      7  C   UNL     1      -1.016  -0.643  24.755  0.00  0.00    +0.141 C 
BRANCH   7   6
ATOM      3  C   UNL     1      -2.862  -2.290  24.794  0.00  0.00    +0.139 A 
ATOM      4  C   UNL     1      -2.150  -2.478  24.422  0.00  0.00    +0.037 A 
ATOM      5  C   UNL     1      -1.535  -1.929  24.408  0.00  0.00    +0.001 A 
ATOM      6  C   UNL     1      -1.631  -1.193  24.768  0.00  0.00    -0.000 A 
ATOM     31  C   UNL     1      -2.343  -1.006  25.140  0.00  0.00    +0.001 A 
ATOM     32  C   UNL     1      -2.959  -1.554  25.154  0.00  0.00    +0.037 A 
BRANCH   3   2
ATOM      1  C   UNL     1      -4.029  -2.858  24.193  0.00  0.00    +0.252 C 
ATOM      2  O   UNL     1      -3.478  -2.840  24.808  0.00  0.00    -0.471 OA
ENDBRANCH   3   2
ENDBRANCH   7   6
ENDBRANCH   8   7
ENDBRANCH  11   9
ENDBRANCH  12  11
BRANCH  17  18
ATOM     18  C   UNL     1      -1.664   2.819  24.302  0.00  0.00    +0.051 C 
BRANCH  18  19
ATOM     19  C   UNL     1      -2.434   3.042  24.499  0.00  0.00    +0.101 A 
ATOM     20  N   UNL     1      -2.703   3.814  24.602  0.00  0.00    -0.081 NA
ATOM     21  O   UNL     1      -3.505   3.781  24.795  0.00  0.00    -0.354 OA
ATOM     22  C   UNL     1      -3.731   2.988  24.811  0.00  0.00    +0.177 A 
ATOM     23  C   UNL     1      -3.068   2.530  24.628  0.00  0.00    +0.058 A 
BRANCH  22  24
ATOM     24  C   UNL     1      -4.486   2.702  24.980  0.00  0.00    +0.037 A 
ATOM     25  C   UNL     1      -4.994   3.138  25.462  0.00  0.00    +0.005 A 
ATOM     26  C   UNL     1      -5.749   2.853  25.631  0.00  0.00    +0.030 A 
ATOM     27  C   UNL     1      -5.996   2.130  25.317  0.00  0.00    +0.140 A 
ATOM     28  F   UNL     1      -6.752   1.844  25.486  0.00  0.00    -0.204 F 
ATOM     29  C   UNL     1      -5.489   1.695  24.835  0.00  0.00    +0.030 A 
ATOM     30  C   UNL     1      -4.733   1.980  24.666  0.00  0.00    +0.005 A 
ENDBRANCH  22  24
ENDBRANCH  18  19
ENDBRANCH  17  18
TORSDOF 8
ENDMDL
MODEL 4
REMARK VINA RESULT:     -11.8      1.800      3.815
REMARK  Name = 
REMARK  8 active torsions:
REMARK  status: ('A' for Active; 'I' for Inactive)
REMARK    1  A    between atoms: O_2  and  C_3
REMARK    2  A    between atoms: C_6  and  C_7
REMARK    3  A    between atoms: C_7  and  N_8
REMARK    4  A    between atoms: C_9  and  C_11
REMARK    5  A    between atoms: C_11  and  C_12
REMARK    6  A    between atoms: C_17  and  C_18
REMARK    7  A    between atoms: C_18  and  C_19
REMARK    8  A    between atoms: C_22  and  C_24
REMARK                            x       y       z     vdW  Elec       q    Type
REMARK                         _______ _______ _______ _____ _____    ______ ____
ROOT
ATOM     12  C   UNL     1      -4.751   2.811  24.705  0.00  0.00    +0.012 C 
ATOM     13  C   UNL     1      -5.074   3.410  25.171  0.00  0.00    +0.019 C 
ATOM     14  C   UNL     1      -5.661   3.231  25.724  0.00  0.00    +0.089 C 
ATOM     15  N   UNL     1      -5.923   2.453  25.810  0.00  0.00    -0.218 NA
ATOM     16  C   UNL     1      -5.598   1.855  25.343  0.00  0.00    +0.089 C 
ATOM     17  C   UNL     1      -5.013   2.034  24.791  0.00  0.00    +0.024 C 
ENDROOT
BRANCH  12  11
ATOM     11  C   UNL     1      -4.165   2.991  24.152  0.00  0.00    +0.087 C 
BRANCH  11   9
ATOM      8  N   UNL     1      -2.816   3.217  24.565  0.00  0.00    -0.201 NA
ATOM      9  C   UNL     1      -3.558   3.511  24.350  0.00  0.00    +0.242 C 
ATOM     10  O   UNL     1      -3.689   4.325  24.332  0.00  0.00    -0.273 OA
BRANCH   8   7
ATOM      7  C   UNL     1      -2.208   3.738  24.763  0.00  0.00    +0.141 C 
BRANCH   7   6
ATOM      3  C   UNL     1      -0.125   2.874  25.783  0.00  0.00    +0.139 A 
ATOM      4  C   UNL     1      -0.752   3.112  26.264  0.00  0.00    +0.037 A 
ATOM      5  C   UNL     1      -1.446   3.400  25.924  0.00  0.00    +0.001 A 
ATOM      6  C   UNL     1      -1.514   3.450  25.104  0.00  0.00    -0.000 A 
ATOM     31  C   UNL     1      -0.887   3.212  24.623  0.00  0.00    +0.001 A 
ATOM     32  C   UNL     1      -0.192   2.924  24.962  0.00  0.00    +0.037 A 
BRANCH   3   2
ATOM      1  C   UNL     1       0.585   2.384  26.923  0.00  0.00    +0.252 C 
ATOM      2  O   UNL     1       0.570   2.586  26.123  0.00  0.00    -0.471 OA
ENDBRANCH   3   2
ENDBRANCH   7   6
ENDBRANCH   8   7
ENDBRANCH  11   9
ENDBRANCH  12  11
BRANCH  17  18
ATOM     18  C   UNL     1      -4.689   1.436  24.325  0.00  0.00    +0.051 C 
BRANCH  18  19
ATOM     19  C   UNL     1      -4.499   0.706  24.663  0.00  0.00    +0.101 A 
ATOM     20  N   UNL     1      -4.452   0.544  25.470  0.00  0.00    -0.081 NA
ATOM     21  O   UNL     1      -4.246  -0.250  25.558  0.00  0.00    -0.354 OA
ATOM     22  C   UNL     1      -4.165  -0.578  24.805  0.00  0.00    +0.177 A 
ATOM     23  C   UNL     1      -4.322   0.014  24.251  0.00  0.00    +0.058 A 
BRANCH  22  24
ATOM     24  C   UNL     1      -3.964  -1.360  24.636  0.00  0.00    +0.037 A 
ATOM     25  C   UNL     1      -3.431  -1.763  25.120  0.00  0.00    +0.005 A 
ATOM     26  C   UNL     1      -3.230  -2.545  24.951  0.00  0.00    +0.030 A 
ATOM     27  C   UNL     1      -3.562  -2.924  24.297  0.00  0.00    +0.140 A 
ATOM     28  F   UNL     1      -3.360  -3.706  24.127  0.00  0.00    -0.204 F 
ATOM     29  C   UNL     1      -4.094  -2.521  23.813  0.00  0.00    +0.030 A 
ATOM     30  C   UNL     1      -4.296  -1.739  23.983  0.00  0.00    +0.005 A 
ENDBRANCH  22  24
ENDBRANCH  18  19
ENDBRANCH  17  18
TORSDOF 8
ENDMDL
MODEL 5
REMARK VINA RESULT:     -11.7      1.901      3.905
REMARK  Name = 
REMARK  8 active torsions:
REMARK  status: ('A' for Active; 'I' for Inactive)
REMARK    1  A    between atoms: O_2  and  C_3
REMARK    2  A    between atoms: C_6  and  C_7
REMARK    3  A    between atoms: C_7  and  N_8
REMARK    4  A    between atoms: C_9  and  C_11
REMARK    5  A    between atoms: C_11  and  C_12
REMARK    6  A    between atoms: C_17  and  C_18
REMARK    7  A    between atoms: C_18  and  C_19
REMARK    8  A    between atoms: C_22  and  C_24
REMARK                            x       y       z     vdW  Elec       q    Type
REMARK                         _______ _______ _______ _____ _____    ______ ____
ROOT
ATOM     12  C   UNL     1      -2.039  -1.442  25.177  0.00  0.00    +0.012 C 
ATOM     13  C   UNL     1      -1.549  -1.894  24.691  0.00  0.00    +0.019 C 
ATOM     14  C   UNL     1      -1.879  -2.435  24.162  0.00  0.00    +0.089 C 
ATOM     15  N   UNL     1      -2.698  -2.524  24.120  0.00  0.00    -0.218 NA
ATOM     16  C   UNL     1      -3.187  -2.071  24.607  0.00  0.00    +0.089 C 
ATOM     17  C   UNL     1      -2.858  -1.530  25.135  0.00  0.00    +0.024 C 
ENDROOT
BRANCH  12  11
ATOM     11  C   UNL     1      -1.708  -0.901  25.705  0.00  0.00    +0.087 C 
BRANCH  11   9
ATOM      8  N   UNL     1      -1.109   0.381  25.507  0.00  0.00    -0.201 NA
ATOM      9  C   UNL     1      -1.063  -0.443  25.476  0.00  0.00    +0.242 C 
ATOM     10  O   UNL     1      -0.369  -0.806  25.216  0.00  0.00    -0.273 OA
BRANCH   8   7
ATOM      7  C   UNL     1      -0.463   0.840  25.278  0.00  0.00    +0.141 C 
BRANCH   7   6
ATOM      3  C   UNL     1      -0.667   3.304  25.190  0.00  0.00    +0.139 A 
ATOM      4  C   UNL     1      -0.680   2.864  24.493  0.00  0.00    +0.037 A 
ATOM      5  C   UNL     1      -0.612   2.043  24.522  0.00  0.00    +0.001 A 
ATOM      6  C   UNL     1      -0.531   1.662  25.248  0.00  0.00    -0.000 A 
ATOM     31  C   UNL     1      -0.518   2.102  25.946  0.00  0.00    +0.001 A 
ATOM     32  C   UNL     1      -0.585   2.923  25.917  0.00  0.00    +0.037 A 
BRANCH   3   2
ATOM      1  C   UNL     1      -1.480   4.480  25.181  0.00  0.00    +0.252 C 
ATOM      2  O   UNL     1      -0.735   4.127  25.161  0.00  0.00    -0.471 OA
ENDBRANCH   3   2
ENDBRANCH   7   6
ENDBRANCH   8   7
ENDBRANCH  11   9
ENDBRANCH  12  11
BRANCH  17  18
ATOM     18  C   UNL     1      -3.347  -1.078  25.621  0.00  0.00    +0.051 C 
BRANCH  18  19
ATOM     19  C   UNL     1      -3.878  -0.541  25.287  0.00  0.00    +0.101 A 
ATOM     20  N   UNL     1      -4.397  -0.696  24.666  0.00  0.00    -0.081 NA
ATOM     21  O   UNL     1      -4.823  -0.006  24.511  0.00  0.00    -0.354 OA
ATOM     22  C   UNL     1      -4.566   0.575  25.037  0.00  0.00    +0.177 A 
ATOM     23  C   UNL     1      -3.981   0.245  25.517  0.00  0.00    +0.058 A 
BRANCH  22  24
ATOM     24  C   UNL     1      -4.844   1.351  25.076  0.00  0.00    +0.037 A 
ATOM     25  C   UNL     1      -5.579   1.509  25.415  0.00  0.00    +0.005 A 
ATOM     26  C   UNL     1      -5.857   2.285  25.454  0.00  0.00    +0.030 A 
ATOM     27  C   UNL     1      -5.400   2.902  25.153  0.00  0.00    +0.140 A 
ATOM     28  F   UNL     1      -5.678   3.679  25.192  0.00  0.00    -0.204 F 
ATOM     29  C   UNL     1      -4.665   2.744  24.814  0.00  0.00    +0.030 A 
ATOM     30  C   UNL     1      -4.387   1.968  24.775  0.00  0.00    +0.005 A 
ENDBRANCH  22  24
ENDBRANCH  18  19
ENDBRANCH  17  18
TORSDOF 8
ENDMDL
MODEL 6
REMARK VINA RESULT:     -11.5      2.174      4.317
REMARK  Name = 
REMARK  8 active torsions:
REMARK  status: ('A' for Active; 'I' for Inactive)
REMARK    1  A    between atoms: O_2  and  C_3
REMARK    2  A    between atoms: C_6  and  C_7
REMARK    3  A    between atoms: C_7  and  N_8
REMARK    4  A    between atoms: C_9  and  C_11
REMARK    5  A    between atoms: C_11  and  C_12
REMARK    6  A    between atoms: C_17  and  C_18
REMARK    7  A    between atoms: C_18  and  C_19
REMARK    8  A    between atoms: C_22  and  C_24
REMARK                            x       y       z     vdW  Elec       q    Type
REMARK                         _______ _______ _______ _____ _____    ______ ____
ROOT
ATOM     12  C   UNL     1      -2.100  -0.324  24.726  0.00  0.00    +0.012 C 
ATOM     13  C   UNL     1      -2.279  -0.914  25.275  0.00  0.00    +0.019 C 
ATOM     14  C   UNL     1      -1.726  -1.121  25.853  0.00  0.00    +0.089 C 
ATOM     15  N   UNL     1      -0.996  -0.737  25.881  0.00  0.00    -0.218 NA
ATOM     16  C   UNL     1      -0.819  -0.148  25.332  0.00  0.00    +0.089 C 
ATOM     17  C   UNL     1      -1.370   0.059  24.755  0.00  0.00    +0.024 C 
ENDROOT
BRANCH  12  11
ATOM     11  C   UNL     1      -2.652  -0.119  24.149  0.00  0.00    +0.087 C 
BRANCH  11   9
ATOM      8  N   UNL     1      -3.821   0.636  24.474  0.00  0.00    -0.201 NA
ATOM      9  C   UNL     1      -3.454  -0.091  24.336  0.00  0.00    +0.242 C 
ATOM     10  O   UNL     1      -3.891  -0.789  24.387  0.00  0.00    -0.273 OA
BRANCH   8   7
ATOM      7  C   UNL     1      -4.624   0.664  24.661  0.00  0.00    +0.141 C 
BRANCH   7   6
ATOM      3  C   UNL     1      -5.638   2.781  25.443  0.00  0.00    +0.139 A 
ATOM      4  C   UNL     1      -5.158   2.777  24.772  0.00  0.00    +0.037 A 
ATOM      5  C   UNL     1      -4.820   2.071  24.512  0.00  0.00    +0.001 A 
ATOM      6  C   UNL     1      -4.962   1.370  24.922  0.00  0.00    -0.000 A 
ATOM     31  C   UNL     1      -5.442   1.375  25.593  0.00  0.00    +0.001 A 
ATOM     32  C   UNL     1      -5.780   2.080  25.854  0.00  0.00    +0.037 A 
BRANCH   3   2
ATOM      1  C   UNL     1      -5.569   4.199  25.613  0.00  0.00    +0.252 C 
ATOM      2  O   UNL     1      -5.977   3.488  25.704  0.00  0.00    -0.471 OA
ENDBRANCH   3   2
ENDBRANCH   7   6
ENDBRANCH   8   7
ENDBRANCH  11   9
ENDBRANCH  12  11
BRANCH  17  18
ATOM     18  C   UNL     1      -1.192   0.648  24.206  0.00  0.00    +0.051 C 
BRANCH  18  19
ATOM     19  C   UNL     1      -0.881   1.369  24.461  0.00  0.00    +0.101 A 
ATOM     20  N   UNL     1      -0.110   1.499  24.722  0.00  0.00    -0.081 NA
ATOM     21  O   UNL     1      -0.041   2.297  24.922  0.00  0.00    -0.354 OA
ATOM     22  C   UNL     1      -0.769   2.659  24.785  0.00  0.00    +0.177 A 
ATOM     23  C   UNL     1      -1.289   2.085  24.500  0.00  0.00    +0.058 A 
BRANCH  22  24
ATOM     24  C   UNL     1      -0.946   3.455  24.910  0.00  0.00    +0.037 A 
ATOM     25  C   UNL     1      -0.462   4.041  24.590  0.00  0.00    +0.005 A 
ATOM     26  C   UNL     1      -0.639   4.837  24.716  0.00  0.00    +0.030 A 
ATOM     27  C   UNL     1      -1.301   5.046  25.162  0.00  0.00    +0.140 A 
ATOM     28  F   UNL     1      -1.479   5.843  25.288  0.00  0.00    -0.204 F 
ATOM     29  C   UNL     1      -1.785   4.461  25.482  0.00  0.00    +0.030 A 
ATOM     30  C   UNL     1      -1.608   3.664  25.356  0.00  0.00    +0.005 A 
ENDBRANCH  22  24
ENDBRANCH  18  19
ENDBRANCH  17  18
TORSDOF 8
ENDMDL
MODEL 7
REMARK VINA RESULT:     -11.5      1.466      4.009
REMARK  Name = 
REMARK  8 active torsions:
REMARK  status: ('A' for Active; 'I' for Inactive)
REMARK    1  A    between atoms: O_2  and  C_3
REMARK    2  A    between atoms: C_6  and  C_7
REMARK    3  A    between atoms: C_7  and  N_8
REMARK    4  A    between atoms: C_9  and  C_11
REMARK    5  A    between atoms: C_11  and  C_12
REMARK    6  A    between atoms: C_17  and  C_18
REMARK    7  A    between atoms: C_18  and  C_19
REMARK    8  A    between atoms: C_22  and  C_24
REMARK                            x       y       z     vdW  Elec       q    Type
REMARK                         _______ _______ _______ _____ _____    ______ ____
ROOT
ATOM     12  C   UNL     1      -3.047   3.454  24.868  0.00  0.00    +0.012 C 
ATOM     13  C   UNL     1      -2.761   3.943  25.467  0.00  0.00    +0.019 C 
ATOM     14  C   UNL     1      -3.238   4.122  26.116  0.00  0.00    +0.089 C 
ATOM     15  N   UNL     1      -4.001   3.812  26.166  0.00  0.00    -0.218 NA
ATOM     16  C   UNL     1      -4.287   3.322  25.566  0.00  0.00    +0.089 C 
ATOM     17  C   UNL     1      -3.810   3.143  24.917  0.00  0.00    +0.024 C 
ENDROOT
BRANCH  12  11
ATOM     11  C   UNL     1      -2.570   3.275  24.219  0.00  0.00    +0.087 C 
BRANCH  11   9
ATOM      8  N   UNL     1      -1.561   2.264  24.206  0.00  0.00    -0.201 NA
ATOM      9  C   UNL     1      -1.786   3.048  24.334  0.00  0.00    +0.242 C 
ATOM     10  O   UNL     1      -1.226   3.603  24.576  0.00  0.00    -0.273 OA
BRANCH   8   7
ATOM      7  C   UNL     1      -0.776   2.036  24.321  0.00  0.00    +0.141 C 
BRANCH   7   6
ATOM      3  C   UNL     1      -0.187  -0.365  24.409  0.00  0.00    +0.139 A 
ATOM      4  C   UNL     1      -0.137   0.046  23.695  0.00  0.00    +0.037 A 
ATOM      5  C   UNL     1      -0.333   0.846  23.666  0.00  0.00    +0.001 A 
ATOM      6  C   UNL     1      -0.579   1.236  24.350  0.00  0.00    -0.000 A 
ATOM     31  C   UNL     1      -0.629   0.824  25.063  0.00  0.00    +0.001 A 
ATOM     32  C   UNL     1      -0.433   0.024  25.093  0.00  0.00    +0.037 A 
BRANCH   3   2
ATOM      1  C   UNL     1      -0.288  -1.642  25.043  0.00  0.00    +0.252 C 
ATOM      2  O   UNL     1       0.010  -1.167  24.439  0.00  0.00    -0.471 OA
ENDBRANCH   3   2
ENDBRANCH   7   6
ENDBRANCH   8   7
ENDBRANCH  11   9
ENDBRANCH  12  11
BRANCH  17  18
ATOM     18  C   UNL     1      -4.096   2.655  24.318  0.00  0.00    +0.051 C 
BRANCH  18  19
ATOM     19  C   UNL     1      -4.379   1.901  24.500  0.00  0.00    +0.101 A 
ATOM     20  N   UNL     1      -5.129   1.723  24.791  0.00  0.00    -0.081 NA
ATOM     21  O   UNL     1      -5.176   0.905  24.894  0.00  0.00    -0.354 OA
ATOM     22  C   UNL     1      -4.453   0.578  24.666  0.00  0.00    +0.177 A 
ATOM     23  C   UNL     1      -3.960   1.194  24.422  0.00  0.00    +0.058 A 
BRANCH  22  24
ATOM     24  C   UNL     1      -4.258  -0.223  24.679  0.00  0.00    +0.037 A 
ATOM     25  C   UNL     1      -4.306  -0.671  23.988  0.00  0.00    +0.005 A 
ATOM     26  C   UNL     1      -4.110  -1.473  24.002  0.00  0.00    +0.030 A 
ATOM     27  C   UNL     1      -3.867  -1.826  24.707  0.00  0.00    +0.140 A 
ATOM     28  F   UNL     1      -3.672  -2.628  24.721  0.00  0.00    -0.204 F 
ATOM     29  C   UNL     1      -3.819  -1.378  25.397  0.00  0.00    +0.030 A 
ATOM     30  C   UNL     1      -4.015  -0.576  25.384  0.00  0.00    +0.005 A 
ENDBRANCH  22  24
ENDBRANCH  18  19
ENDBRANCH  17  18
TORSDOF 8
ENDMDL
MODEL 8
REMARK VINA RESULT:     -11.2      1.752      4.623
REMARK  Name = 
REMARK  8 active torsions:
REMARK  status: ('A' for Active; 'I' for Inactive)
REMARK    1  A    between atoms: O_2  and  C_3
REMARK    2  A    between atoms: C_6  and  C_7
REMARK    3  A    between atoms: C_7  and  N_8
REMARK    4  A    between atoms: C_9  and  C_11
REMARK    5  A    between atoms: C_11  and  C_12
REMARK    6  A    between atoms: C_17  and  C_18
REMARK    7  A    between atoms: C_18  and  C_19
REMARK    8  A    between atoms: C_22  and  C_24
REMARK                            x       y       z     vdW  Elec       q    Type
REMARK                         _______ _______ _______ _____ _____    ______ ____
ROOT
ATOM     12  C   UNL     1      -3.810   3.013  24.781  0.00  0.00    +0.012 C 
ATOM     13  C   UNL     1      -4.223   3.247  25.456  0.00  0.00    +0.019 C 
ATOM     14  C   UNL     1      -3.868   3.756  26.000  0.00  0.00    +0.089 C 
ATOM     15  N   UNL     1      -3.101   4.030  25.869  0.00  0.00    -0.218 NA
ATOM     16  C   UNL     1      -2.689   3.795  25.193  0.00  0.00    +0.089 C 
ATOM     17  C   UNL     1      -3.043   3.287  24.650  0.00  0.00    +0.024 C 
ENDROOT
BRANCH  12  11
ATOM     11  C   UNL     1      -4.165   2.504  24.237  0.00  0.00    +0.087 C 
BRANCH  11   9
ATOM      8  N   UNL     1      -4.275   1.101  24.484  0.00  0.00    -0.201 NA
ATOM      9  C   UNL     1      -4.604   1.858  24.502  0.00  0.00    +0.242 C 
ATOM     10  O   UNL     1      -5.371   1.968  24.785  0.00  0.00    -0.273 OA
BRANCH   8   7
ATOM      7  C   UNL     1      -4.714   0.455  24.749  0.00  0.00    +0.141 C 
BRANCH   7   6
ATOM      3  C   UNL     1      -3.659  -1.779  24.896  0.00  0.00    +0.139 A 
ATOM      4  C   UNL     1      -3.648  -1.274  25.549  0.00  0.00    +0.037 A 
ATOM      5  C   UNL     1      -4.000  -0.530  25.499  0.00  0.00    +0.001 A 
ATOM      6  C   UNL     1      -4.362  -0.290  24.799  0.00  0.00    -0.000 A 
ATOM     31  C   UNL     1      -4.372  -0.795  24.146  0.00  0.00    +0.001 A 
ATOM     32  C   UNL     1      -4.021  -1.540  24.195  0.00  0.00    +0.037 A 
BRANCH   3   2
ATOM      1  C   UNL     1      -2.704  -2.730  24.421  0.00  0.00    +0.252 C 
ATOM      2  O   UNL     1      -3.307  -2.524  24.945  0.00  0.00    -0.471 OA
ENDBRANCH   3   2
ENDBRANCH   7   6
ENDBRANCH   8   7
ENDBRANCH  11   9
ENDBRANCH  12  11
BRANCH  17  18
ATOM     18  C   UNL     1      -2.631   3.053  23.975  0.00  0.00    +0.051 C 
BRANCH  18  19
ATOM     19  C   UNL     1      -1.890   2.695  24.047  0.00  0.00    +0.101 A 
ATOM     20  N   UNL     1      -1.185   3.077  24.236  0.00  0.00    -0.081 NA
ATOM     21  O   UNL     1      -0.584   2.511  24.249  0.00  0.00    -0.354 OA
ATOM     22  C   UNL     1      -0.920   1.779  24.068  0.00  0.00    +0.177 A 
ATOM     23  C   UNL     1      -1.728   1.893  23.943  0.00  0.00    +0.058 A 
BRANCH  22  24
ATOM     24  C   UNL     1      -0.518   1.060  24.019  0.00  0.00    +0.037 A 
ATOM     25  C   UNL     1      -0.033   0.901  23.371  0.00  0.00    +0.005 A 
ATOM     26  C   UNL     1       0.369   0.182  23.323  0.00  0.00    +0.030 A 
ATOM     27  C   UNL     1       0.285  -0.378  23.924  0.00  0.00    +0.140 A 
ATOM     28  F   UNL     1       0.687  -1.097  23.876  0.00  0.00    -0.204 F 
ATOM     29  C   UNL     1      -0.199  -0.219  24.572  0.00  0.00    +0.030 A 
ATOM     30  C   UNL     1      -0.601   0.501  24.620  0.00  0.00    +0.005 A 
ENDBRANCH  22  24
ENDBRANCH  18  19
ENDBRANCH  17  18
TORSDOF 8
ENDMDL
