REMARK  Name = 
REMARK  5 active torsions:
REMARK  status: ('A' for Active; 'I' for Inactive)
REMARK    1  A    between atoms: N_3  and  C_4
REMARK    2  A    between atoms: C_9  and  C_10
REMARK    3  A    between atoms: C_10  and  C_11
REMARK    4  A    between atoms: C_11  and  C_12
REMARK    5  A    between atoms: N_24  and  C_25
REMARK                            x       y       z     vdW  Elec       q    Type
REMARK                         _______ _______ _______ _____ _____    ______ ____
ROOT
ATOM      4  C   UNL     1      -0.628  -0.698   0.000  0.00  0.00    +0.115 C 
ATOM      5  C   UNL     1      -0.143  -1.365   0.000  0.00  0.00    +0.049 C 
ATOM      6  C   UNL     1       0.641  -1.110   0.000  0.00  0.00    +0.138 C 
ATOM      7  N   UNL     1       0.641  -0.285   0.000  0.00  0.00    -0.265 NA
ATOM      8  C   UNL     1      -0.143  -0.030   0.000  0.00  0.00    +0.094 C 
ATOM      9  C   UNL     1       1.356   0.127   0.000  0.00  0.00    +0.080 C 
ATOM     20  C   UNL     1       2.070  -0.285   0.000  0.00  0.00    +0.131 C 
ATOM     21  N   UNL     1       2.070  -1.110   0.000  0.00  0.00    -0.203 NA
ATOM     22  C   UNL     1       1.356  -1.523   0.000  0.00  0.00    +0.256 C 
ATOM     23  O   UNL     1       1.356  -2.348   0.000  0.00  0.00    -0.272 OA
ENDROOT
BRANCH   4   3
ATOM      1  O   UNL     1      -1.453   0.731   0.000  0.00  0.00    -0.249 OA
ATOM      2  C   UNL     1      -1.866   0.017   0.000  0.00  0.00    +0.344 C 
ATOM      3  N   UNL     1      -1.453  -0.698   0.000  0.00  0.00    -0.187 NA
ATOM     24  N   UNL     1      -2.691   0.017   0.000  0.00  0.00    -0.160 NA
BRANCH  24  25
ATOM     25  C   UNL     1      -3.103  -0.698   0.000  0.00  0.00    +0.082 A 
ATOM     26  C   UNL     1      -2.768  -1.452   0.000  0.00  0.00    +0.052 A 
ATOM     27  S   UNL     1      -3.381  -2.004   0.000  0.00  0.00    -0.085 S 
ATOM     28  C   UNL     1      -4.095  -1.591   0.000  0.00  0.00    +0.037 A 
ATOM     29  C   UNL     1      -3.924  -0.784   0.000  0.00  0.00    +0.024 A 
ENDBRANCH  24  25
ENDBRANCH   4   3
BRANCH   9  10
ATOM     10  C   UNL     1       1.356   0.952   0.000  0.00  0.00    +0.027 C 
BRANCH  10  11
ATOM     11  C   UNL     1       2.070   1.365   0.000  0.00  0.00    +0.087 C 
BRANCH  11  12
ATOM     12  C   UNL     1       2.070   2.190   0.000  0.00  0.00    +0.226 C 
ATOM     13  O   UNL     1       1.356   2.602   0.000  0.00  0.00    -0.275 OA
ATOM     14  N   UNL     1       2.784   2.602   0.000  0.00  0.00    -0.280 N 
ATOM     15  C   UNL     1       2.784   3.427   0.000  0.00  0.00    +0.093 C 
ATOM     16  C   UNL     1       3.499   3.840   0.000  0.00  0.00    +0.022 C 
ATOM     17  C   UNL     1       4.213   3.427   0.000  0.00  0.00    +0.004 C 
ATOM     18  C   UNL     1       4.213   2.602   0.000  0.00  0.00    +0.022 C 
ATOM     19  C   UNL     1       3.499   2.190   0.000  0.00  0.00    +0.093 C 
ENDBRANCH  11  12
ENDBRANCH  10  11
ENDBRANCH   9  10
TORSDOF 5
