REMARK  Name = 
REMARK  6 active torsions:
REMARK  status: ('A' for Active; 'I' for Inactive)
REMARK    1  A    between atoms: C_1  and  N_2
REMARK    2  A    between atoms: C_1  and  C_25
REMARK    3  A    between atoms: C_6  and  C_7
REMARK    4  A    between atoms: C_9  and  C_12
REMARK    5  A    between atoms: C_15  and  O_16
REMARK    6  A    between atoms: O_16  and  C_17
REMARK                            x       y       z     vdW  Elec       q    Type
REMARK                         _______ _______ _______ _____ _____    ______ ____
ROOT
ATOM      7  C   UNL     1      -1.129   2.394   0.000  0.00  0.00    +0.251 A 
ATOM      8  N   UNL     1      -1.464   3.147   0.000  0.00  0.00    -0.190 NA
ATOM      9  C   UNL     1      -0.851   3.700   0.000  0.00  0.00    +0.205 A 
ATOM     10  N   UNL     1      -0.137   3.287   0.000  0.00  0.00    -0.056 NA
ATOM     11  O   UNL     1      -0.308   2.480   0.000  0.00  0.00    -0.336 OA
ENDROOT
BRANCH   9  12
ATOM     12  C   UNL     1      -0.937   4.520   0.000  0.00  0.00    +0.058 A 
ATOM     13  C   UNL     1      -1.691   4.856   0.000  0.00  0.00    +0.010 A 
ATOM     14  C   UNL     1      -1.777   5.676   0.000  0.00  0.00    +0.058 A 
ATOM     15  C   UNL     1      -1.110   6.161   0.000  0.00  0.00    +0.225 A 
ATOM     23  N   UNL     1      -0.356   5.825   0.000  0.00  0.00    -0.210 NA
ATOM     24  C   UNL     1      -0.270   5.005   0.000  0.00  0.00    +0.105 A 
BRANCH  15  16
ATOM     16  O   UNL     1      -1.196   6.981   0.000  0.00  0.00    -0.464 OA
BRANCH  16  17
ATOM     17  C   UNL     1      -0.528   7.466   0.000  0.00  0.00    +0.168 C 
ATOM     18  C   UNL     1      -0.615   8.287   0.000  0.00  0.00    +0.044 C 
ATOM     19  C   UNL     1       0.053   8.772   0.000  0.00  0.00    +0.004 C 
ATOM     20  C   UNL     1       0.806   8.436   0.000  0.00  0.00    +0.000 C 
ATOM     21  C   UNL     1       0.893   7.616   0.000  0.00  0.00    +0.004 C 
ATOM     22  C   UNL     1       0.225   7.131   0.000  0.00  0.00    +0.044 C 
ENDBRANCH  16  17
ENDBRANCH  15  16
ENDBRANCH   9  12
BRANCH   7   6
ATOM      2  N   UNL     1      -1.205   0.926   0.000  0.00  0.00    -0.263 NA
ATOM      3  C   UNL     1      -1.819   0.374   0.000  0.00  0.00    +0.073 C 
ATOM      4  C   UNL     1      -2.533   0.786   0.000  0.00  0.00    +0.019 C 
ATOM      5  C   UNL     1      -2.361   1.593   0.000  0.00  0.00    +0.027 C 
ATOM      6  C   UNL     1      -1.541   1.679   0.000  0.00  0.00    +0.138 C 
BRANCH   2   1
ATOM      1  C   UNL     1      -0.398   0.754   0.000  0.00  0.00    +0.101 C 
BRANCH   1  25
ATOM     25  C   UNL     1      -0.143  -0.030   0.000  0.00  0.00    +0.014 A 
ATOM     26  C   UNL     1      -0.628  -0.698   0.000  0.00  0.00    +0.096 A 
ATOM     27  N   UNL     1      -0.143  -1.365   0.000  0.00  0.00    -0.244 NA
ATOM     28  C   UNL     1       0.641  -1.110   0.000  0.00  0.00    +0.081 A 
ATOM     29  C   UNL     1       0.641  -0.285   0.000  0.00  0.00    +0.016 A 
ATOM     30  C   UNL     1       1.356   0.127   0.000  0.00  0.00    +0.001 A 
ATOM     31  C   UNL     1       2.070  -0.285   0.000  0.00  0.00    +0.000 A 
ATOM     32  C   UNL     1       2.070  -1.110   0.000  0.00  0.00    +0.002 A 
ATOM     33  C   UNL     1       1.356  -1.523   0.000  0.00  0.00    +0.019 A 
ENDBRANCH   1  25
ENDBRANCH   2   1
ENDBRANCH   7   6
TORSDOF 6
