MODEL 1
REMARK VINA RESULT:     -10.2      0.000      0.000
REMARK  Name = 
REMARK  10 active torsions:
REMARK  status: ('A' for Active; 'I' for Inactive)
REMARK    1  A    between atoms: O_2  and  C_3
REMARK    2  A    between atoms: C_3  and  C_4
REMARK    3  A    between atoms: C_9  and  N_29
REMARK    4  A    between atoms: C_11  and  C_12
REMARK    5  A    between atoms: N_14  and  C_15
REMARK    6  A    between atoms: C_15  and  C_16
REMARK    7  A    between atoms: C_15  and  C_26
REMARK    8  A    between atoms: C_16  and  C_17
REMARK    9  A    between atoms: C_32  and  C_33
REMARK   10  A    between atoms: C_36  and  C_37
REMARK                            x       y       z     vdW  Elec       q    Type
REMARK                         _______ _______ _______ _____ _____    ______ ____
ROOT
ATOM      4  C   UNL     1      -5.004   2.090  25.165  0.00  0.00    +0.256 C 
ATOM      5  O   UNL     1      -5.638   2.235  25.673  0.00  0.00    -0.272 OA
ATOM      6  N   UNL     1      -4.790   1.314  24.984  0.00  0.00    -0.271 N 
ATOM      7  C   UNL     1      -5.210   0.683  25.309  0.00  0.00    +0.096 C 
ATOM      8  C   UNL     1      -4.996  -0.092  25.128  0.00  0.00    +0.046 C 
ATOM      9  C   UNL     1      -4.362  -0.238  24.621  0.00  0.00    +0.111 C 
ATOM     10  C   UNL     1      -3.942   0.393  24.295  0.00  0.00    +0.054 C 
ATOM     11  C   UNL     1      -4.156   1.169  24.477  0.00  0.00    +0.155 C 
ENDROOT
BRANCH   9  29
ATOM     29  N   UNL     1      -4.148  -1.014  24.439  0.00  0.00    -0.229 N 
ATOM     30  N   UNL     1      -4.423  -1.455  23.798  0.00  0.00    -0.064 NA
ATOM     31  N   UNL     1      -4.067  -2.198  23.830  0.00  0.00    -0.124 NA
ATOM     32  C   UNL     1      -3.572  -2.216  24.490  0.00  0.00    +0.183 A 
ATOM     36  C   UNL     1      -3.623  -1.484  24.866  0.00  0.00    +0.160 A 
BRANCH  32  33
ATOM     33  C   UNL     1      -3.108  -2.855  24.730  0.00  0.00    +0.305 C 
ATOM     34  N   UNL     1      -2.348  -2.951  24.425  0.00  0.00    -0.082 NA
ATOM     35  O   UNL     1      -3.405  -3.397  25.276  0.00  0.00    -0.265 OA
ENDBRANCH  32  33
BRANCH  36  37
ATOM     37  C   UNL     1      -3.217  -1.261  25.550  0.00  0.00    +0.303 C 
ATOM     38  N   UNL     1      -2.447  -0.972  25.496  0.00  0.00    -0.082 NA
ATOM     39  O   UNL     1      -3.583  -1.328  26.286  0.00  0.00    -0.265 OA
ENDBRANCH  36  37
ENDBRANCH   9  29
BRANCH  11  12
ATOM     12  C   UNL     1      -3.735   1.800  24.151  0.00  0.00    +0.260 C 
ATOM     13  O   UNL     1      -4.069   2.554  24.137  0.00  0.00    -0.272 OA
ATOM     14  N   UNL     1      -2.981   1.677  23.840  0.00  0.00    -0.196 NA
BRANCH  14  15
ATOM     15  C   UNL     1      -2.561   2.307  23.515  0.00  0.00    +0.179 C 
BRANCH  15  26
ATOM     26  C   UNL     1      -2.663   2.503  22.719  0.00  0.00    +0.281 C 
ATOM     27  N   UNL     1      -2.573   1.926  22.137  0.00  0.00    -0.086 NA
ATOM     28  O   UNL     1      -2.854   3.278  22.508  0.00  0.00    -0.270 OA
ENDBRANCH  15  26
BRANCH  15  16
ATOM     16  C   UNL     1      -2.040   2.742  23.984  0.00  0.00    +0.059 C 
BRANCH  16  17
ATOM     17  C   UNL     1      -1.318   2.415  24.211  0.00  0.00    +0.001 A 
ATOM     18  C   UNL     1      -0.862   1.890  23.766  0.00  0.00    +0.095 A 
ATOM     19  N   UNL     1      -0.186   1.706  24.202  0.00  0.00    -0.244 NA
ATOM     20  C   UNL     1      -0.225   2.117  24.916  0.00  0.00    +0.081 A 
ATOM     21  C   UNL     1      -0.924   2.555  24.921  0.00  0.00    +0.015 A 
ATOM     22  C   UNL     1      -1.111   3.025  25.573  0.00  0.00    +0.001 A 
ATOM     23  C   UNL     1      -0.600   3.057  26.219  0.00  0.00    +0.000 A 
ATOM     24  C   UNL     1       0.099   2.619  26.214  0.00  0.00    +0.002 A 
ATOM     25  C   UNL     1       0.287   2.149  25.563  0.00  0.00    +0.019 A 
ENDBRANCH  16  17
ENDBRANCH  15  16
ENDBRANCH  14  15
ENDBRANCH  11  12
BRANCH   4   3
ATOM      3  C   UNL     1      -4.583   2.720  24.840  0.00  0.00    +0.227 C 
BRANCH   3   2
ATOM      1  C   UNL     1      -4.705   3.999  25.467  0.00  0.00    +0.175 C 
ATOM      2  O   UNL     1      -4.902   3.481  24.856  0.00  0.00    -0.342 OA
ENDBRANCH   3   2
ENDBRANCH   4   3
TORSDOF 10
ENDMDL
MODEL 2
REMARK VINA RESULT:     -10.2      1.727      3.655
REMARK  Name = 
REMARK  10 active torsions:
REMARK  status: ('A' for Active; 'I' for Inactive)
REMARK    1  A    between atoms: O_2  and  C_3
REMARK    2  A    between atoms: C_3  and  C_4
REMARK    3  A    between atoms: C_9  and  N_29
REMARK    4  A    between atoms: C_11  and  C_12
REMARK    5  A    between atoms: N_14  and  C_15
REMARK    6  A    between atoms: C_15  and  C_16
REMARK    7  A    between atoms: C_15  and  C_26
REMARK    8  A    between atoms: C_16  and  C_17
REMARK    9  A    between atoms: C_32  and  C_33
REMARK   10  A    between atoms: C_36  and  C_37
REMARK                            x       y       z     vdW  Elec       q    Type
REMARK                         _______ _______ _______ _____ _____    ______ ____
ROOT
ATOM      4  C   UNL     1      -0.870   3.339  25.316  0.00  0.00    +0.256 C 
ATOM      5  O   UNL     1      -0.304   3.718  25.782  0.00  0.00    -0.272 OA
ATOM      6  N   UNL     1      -0.786   2.537  25.136  0.00  0.00    -0.271 N 
ATOM      7  C   UNL     1      -0.137   2.116  25.421  0.00  0.00    +0.096 C 
ATOM      8  C   UNL     1      -0.054   1.316  25.241  0.00  0.00    +0.046 C 
ATOM      9  C   UNL     1      -0.619   0.936  24.775  0.00  0.00    +0.111 C 
ATOM     10  C   UNL     1      -1.268   1.358  24.490  0.00  0.00    +0.054 C 
ATOM     11  C   UNL     1      -1.352   2.159  24.670  0.00  0.00    +0.155 C 
ENDROOT
BRANCH   9  29
ATOM     29  N   UNL     1      -0.536   0.135  24.595  0.00  0.00    -0.229 N 
ATOM     30  N   UNL     1      -0.138  -0.176  23.943  0.00  0.00    -0.064 NA
ATOM     31  N   UNL     1      -0.192  -0.998  23.981  0.00  0.00    -0.124 NA
ATOM     32  C   UNL     1      -0.623  -1.195  24.656  0.00  0.00    +0.183 A 
ATOM     36  C   UNL     1      -0.836  -0.494  25.035  0.00  0.00    +0.160 A 
BRANCH  32  33
ATOM     33  C   UNL     1      -0.809  -1.959  24.906  0.00  0.00    +0.305 C 
ATOM     34  N   UNL     1      -1.476  -2.340  24.608  0.00  0.00    -0.082 NA
ATOM     35  O   UNL     1      -0.328  -2.341  25.456  0.00  0.00    -0.265 OA
ENDBRANCH  32  33
BRANCH  36  37
ATOM     37  C   UNL     1      -1.272  -0.434  25.733  0.00  0.00    +0.303 C 
ATOM     38  N   UNL     1      -2.096  -0.462  25.708  0.00  0.00    -0.082 NA
ATOM     39  O   UNL     1      -0.884  -0.347  26.456  0.00  0.00    -0.265 OA
ENDBRANCH  36  37
ENDBRANCH   9  29
BRANCH  11  12
ATOM     12  C   UNL     1      -2.001   2.581  24.384  0.00  0.00    +0.260 C 
ATOM     13  O   UNL     1      -2.011   3.404  24.432  0.00  0.00    -0.272 OA
ATOM     14  N   UNL     1      -2.640   2.179  24.051  0.00  0.00    -0.196 NA
BRANCH  14  15
ATOM     15  C   UNL     1      -3.288   2.601  23.765  0.00  0.00    +0.179 C 
BRANCH  15  26
ATOM     26  C   UNL     1      -3.327   2.806  22.967  0.00  0.00    +0.281 C 
ATOM     27  N   UNL     1      -3.030   2.294  22.394  0.00  0.00    -0.086 NA
ATOM     28  O   UNL     1      -3.663   3.527  22.743  0.00  0.00    -0.270 OA
ENDBRANCH  15  26
BRANCH  15  16
ATOM     16  C   UNL     1      -3.898   2.817  24.277  0.00  0.00    +0.059 C 
BRANCH  16  17
ATOM     17  C   UNL     1      -4.448   2.255  24.524  0.00  0.00    +0.001 A 
ATOM     18  C   UNL     1      -4.525   1.488  24.229  0.00  0.00    +0.095 A 
ATOM     19  N   UNL     1      -5.143   1.120  24.633  0.00  0.00    -0.244 NA
ATOM     20  C   UNL     1      -5.448   1.659  25.177  0.00  0.00    +0.081 A 
ATOM     21  C   UNL     1      -5.019   2.360  25.110  0.00  0.00    +0.015 A 
ATOM     22  C   UNL     1      -5.204   3.004  25.592  0.00  0.00    +0.001 A 
ATOM     23  C   UNL     1      -5.817   2.947  26.140  0.00  0.00    +0.000 A 
ATOM     24  C   UNL     1      -6.246   2.245  26.207  0.00  0.00    +0.002 A 
ATOM     25  C   UNL     1      -6.062   1.601  25.726  0.00  0.00    +0.019 A 
ENDBRANCH  16  17
ENDBRANCH  15  16
ENDBRANCH  14  15
ENDBRANCH  11  12
BRANCH   4   3
ATOM      3  C   UNL     1      -1.518   3.760  25.030  0.00  0.00    +0.227 C 
BRANCH   3   2
ATOM      1  C   UNL     1      -1.493   5.188  25.077  0.00  0.00    +0.175 C 
ATOM      2  O   UNL     1      -1.742   4.467  25.391  0.00  0.00    -0.342 OA
ENDBRANCH   3   2
ENDBRANCH   4   3
TORSDOF 10
ENDMDL
MODEL 3
REMARK VINA RESULT:      -9.2      1.858      5.263
REMARK  Name = 
REMARK  10 active torsions:
REMARK  status: ('A' for Active; 'I' for Inactive)
REMARK    1  A    between atoms: O_2  and  C_3
REMARK    2  A    between atoms: C_3  and  C_4
REMARK    3  A    between atoms: C_9  and  N_29
REMARK    4  A    between atoms: C_11  and  C_12
REMARK    5  A    between atoms: N_14  and  C_15
REMARK    6  A    between atoms: C_15  and  C_16
REMARK    7  A    between atoms: C_15  and  C_26
REMARK    8  A    between atoms: C_16  and  C_17
REMARK    9  A    between atoms: C_32  and  C_33
REMARK   10  A    between atoms: C_36  and  C_37
REMARK                            x       y       z     vdW  Elec       q    Type
REMARK                         _______ _______ _______ _____ _____    ______ ____
ROOT
ATOM      4  C   UNL     1      -0.108   1.682  23.936  0.00  0.00    +0.256 C 
ATOM      5  O   UNL     1       0.413   2.148  23.498  0.00  0.00    -0.272 OA
ATOM      6  N   UNL     1      -0.771   2.025  24.290  0.00  0.00    -0.271 N 
ATOM      7  C   UNL     1      -0.911   2.833  24.206  0.00  0.00    +0.096 C 
ATOM      8  C   UNL     1      -1.573   3.175  24.559  0.00  0.00    +0.046 C 
ATOM      9  C   UNL     1      -2.094   2.709  24.997  0.00  0.00    +0.111 C 
ATOM     10  C   UNL     1      -1.954   1.900  25.081  0.00  0.00    +0.054 C 
ATOM     11  C   UNL     1      -1.292   1.558  24.727  0.00  0.00    +0.155 C 
ENDROOT
BRANCH   9  29
ATOM     29  N   UNL     1      -2.756   3.052  25.351  0.00  0.00    -0.229 N 
ATOM     30  N   UNL     1      -2.775   3.422  26.088  0.00  0.00    -0.064 NA
ATOM     31  N   UNL     1      -3.546   3.683  26.222  0.00  0.00    -0.124 NA
ATOM     32  C   UNL     1      -4.004   3.474  25.568  0.00  0.00    +0.183 A 
ATOM     36  C   UNL     1      -3.515   3.084  25.030  0.00  0.00    +0.160 A 
BRANCH  32  33
ATOM     33  C   UNL     1      -4.808   3.628  25.470  0.00  0.00    +0.305 C 
ATOM     34  N   UNL     1      -5.369   3.108  25.779  0.00  0.00    -0.082 NA
ATOM     35  O   UNL     1      -5.052   4.303  25.063  0.00  0.00    -0.265 OA
ENDBRANCH  32  33
BRANCH  36  37
ATOM     37  C   UNL     1      -3.746   2.779  24.298  0.00  0.00    +0.303 C 
ATOM     38  N   UNL     1      -3.677   3.242  23.619  0.00  0.00    -0.082 NA
ATOM     39  O   UNL     1      -4.046   2.012  24.247  0.00  0.00    -0.265 OA
ENDBRANCH  36  37
ENDBRANCH   9  29
BRANCH  11  12
ATOM     12  C   UNL     1      -1.151   0.749  24.811  0.00  0.00    +0.260 C 
ATOM     13  O   UNL     1      -0.578   0.380  24.346  0.00  0.00    -0.272 OA
ATOM     14  N   UNL     1      -1.583   0.310  25.359  0.00  0.00    -0.196 NA
BRANCH  14  15
ATOM     15  C   UNL     1      -1.442  -0.498  25.443  0.00  0.00    +0.179 C 
BRANCH  15  26
ATOM     26  C   UNL     1      -0.951  -0.770  26.048  0.00  0.00    +0.281 C 
ATOM     27  N   UNL     1      -1.000  -0.438  26.800  0.00  0.00    -0.086 NA
ATOM     28  O   UNL     1      -0.410  -1.376  25.898  0.00  0.00    -0.270 OA
ENDBRANCH  15  26
BRANCH  15  16
ATOM     16  C   UNL     1      -1.792  -1.034  24.922  0.00  0.00    +0.059 C 
BRANCH  16  17
ATOM     17  C   UNL     1      -2.562  -1.296  25.055  0.00  0.00    +0.001 A 
ATOM     18  C   UNL     1      -3.087  -0.995  25.616  0.00  0.00    +0.095 A 
ATOM     19  N   UNL     1      -3.793  -1.418  25.558  0.00  0.00    -0.244 NA
ATOM     20  C   UNL     1      -3.704  -1.980  24.962  0.00  0.00    +0.081 A 
ATOM     21  C   UNL     1      -2.944  -1.905  24.651  0.00  0.00    +0.015 A 
ATOM     22  C   UNL     1      -2.698  -2.402  24.040  0.00  0.00    +0.001 A 
ATOM     23  C   UNL     1      -3.211  -2.973  23.740  0.00  0.00    +0.000 A 
ATOM     24  C   UNL     1      -3.972  -3.048  24.051  0.00  0.00    +0.002 A 
ATOM     25  C   UNL     1      -4.219  -2.552  24.662  0.00  0.00    +0.019 A 
ENDBRANCH  16  17
ENDBRANCH  15  16
ENDBRANCH  14  15
ENDBRANCH  11  12
BRANCH   4   3
ATOM      3  C   UNL     1       0.032   0.873  24.020  0.00  0.00    +0.227 C 
BRANCH   3   2
ATOM      1  C   UNL     1       0.821   0.145  23.077  0.00  0.00    +0.175 C 
ATOM      2  O   UNL     1       0.758   0.555  23.790  0.00  0.00    -0.342 OA
ENDBRANCH   3   2
ENDBRANCH   4   3
TORSDOF 10
ENDMDL
MODEL 4
REMARK VINA RESULT:      -8.3      1.833      4.365
REMARK  Name = 
REMARK  10 active torsions:
REMARK  status: ('A' for Active; 'I' for Inactive)
REMARK    1  A    between atoms: O_2  and  C_3
REMARK    2  A    between atoms: C_3  and  C_4
REMARK    3  A    between atoms: C_9  and  N_29
REMARK    4  A    between atoms: C_11  and  C_12
REMARK    5  A    between atoms: N_14  and  C_15
REMARK    6  A    between atoms: C_15  and  C_16
REMARK    7  A    between atoms: C_15  and  C_26
REMARK    8  A    between atoms: C_16  and  C_17
REMARK    9  A    between atoms: C_32  and  C_33
REMARK   10  A    between atoms: C_36  and  C_37
REMARK                            x       y       z     vdW  Elec       q    Type
REMARK                         _______ _______ _______ _____ _____    ______ ____
ROOT
ATOM      4  C   UNL     1      -4.037  -1.103  24.278  0.00  0.00    +0.256 C 
ATOM      5  O   UNL     1      -4.756  -1.455  24.077  0.00  0.00    -0.272 OA
ATOM      6  N   UNL     1      -4.010  -0.299  24.463  0.00  0.00    -0.271 N 
ATOM      7  C   UNL     1      -4.701   0.152  24.446  0.00  0.00    +0.096 C 
ATOM      8  C   UNL     1      -4.673   0.955  24.630  0.00  0.00    +0.046 C 
ATOM      9  C   UNL     1      -3.955   1.308  24.831  0.00  0.00    +0.111 C 
ATOM     10  C   UNL     1      -3.264   0.857  24.848  0.00  0.00    +0.054 C 
ATOM     11  C   UNL     1      -3.292   0.054  24.664  0.00  0.00    +0.155 C 
ENDROOT
BRANCH   9  29
ATOM     29  N   UNL     1      -3.928   2.112  25.016  0.00  0.00    -0.229 N 
ATOM     30  N   UNL     1      -4.103   2.447  25.749  0.00  0.00    -0.064 NA
ATOM     31  N   UNL     1      -4.004   3.264  25.685  0.00  0.00    -0.124 NA
ATOM     32  C   UNL     1      -3.767   3.433  24.913  0.00  0.00    +0.183 A 
ATOM     36  C   UNL     1      -3.720   2.721  24.500  0.00  0.00    +0.160 A 
BRANCH  32  33
ATOM     33  C   UNL     1      -3.606   4.183  24.609  0.00  0.00    +0.305 C 
ATOM     34  N   UNL     1      -2.876   4.539  24.753  0.00  0.00    -0.082 NA
ATOM     35  O   UNL     1      -4.175   4.577  24.160  0.00  0.00    -0.265 OA
ENDBRANCH  32  33
BRANCH  36  37
ATOM     37  C   UNL     1      -3.504   2.634  23.708  0.00  0.00    +0.303 C 
ATOM     38  N   UNL     1      -4.083   2.630  23.121  0.00  0.00    -0.082 NA
ATOM     39  O   UNL     1      -2.709   2.550  23.505  0.00  0.00    -0.265 OA
ENDBRANCH  36  37
ENDBRANCH   9  29
BRANCH  11  12
ATOM     12  C   UNL     1      -2.601  -0.398  24.681  0.00  0.00    +0.260 C 
ATOM     13  O   UNL     1      -2.604  -1.166  24.382  0.00  0.00    -0.272 OA
ATOM     14  N   UNL     1      -1.908  -0.080  24.996  0.00  0.00    -0.196 NA
BRANCH  14  15
ATOM     15  C   UNL     1      -1.218  -0.531  25.013  0.00  0.00    +0.179 C 
BRANCH  15  26
ATOM     26  C   UNL     1      -1.016  -0.949  25.696  0.00  0.00    +0.281 C 
ATOM     27  N   UNL     1      -1.147  -0.616  26.438  0.00  0.00    -0.086 NA
ATOM     28  O   UNL     1      -0.682  -1.702  25.633  0.00  0.00    -0.270 OA
ENDBRANCH  15  26
BRANCH  15  16
ATOM     16  C   UNL     1      -0.730  -0.564  24.349  0.00  0.00    +0.059 C 
BRANCH  16  17
ATOM     17  C   UNL     1      -0.190   0.042  24.203  0.00  0.00    +0.001 A 
ATOM     18  C   UNL     1      -0.155   0.766  24.597  0.00  0.00    +0.095 A 
ATOM     19  N   UNL     1       0.467   1.201  24.275  0.00  0.00    -0.244 NA
ATOM     20  C   UNL     1       0.817   0.747  23.682  0.00  0.00    +0.081 A 
ATOM     21  C   UNL     1       0.410   0.030  23.638  0.00  0.00    +0.015 A 
ATOM     22  C   UNL     1       0.641  -0.541  23.088  0.00  0.00    +0.001 A 
ATOM     23  C   UNL     1       1.276  -0.395  22.583  0.00  0.00    +0.000 A 
ATOM     24  C   UNL     1       1.682   0.322  22.628  0.00  0.00    +0.002 A 
ATOM     25  C   UNL     1       1.453   0.893  23.177  0.00  0.00    +0.019 A 
ENDBRANCH  16  17
ENDBRANCH  15  16
ENDBRANCH  14  15
ENDBRANCH  11  12
BRANCH   4   3
ATOM      3  C   UNL     1      -3.347  -1.553  24.295  0.00  0.00    +0.227 C 
BRANCH   3   2
ATOM      1  C   UNL     1      -3.519  -2.968  24.398  0.00  0.00    +0.175 C 
ATOM      2  O   UNL     1      -3.335  -2.302  23.949  0.00  0.00    -0.342 OA
ENDBRANCH   3   2
ENDBRANCH   4   3
TORSDOF 10
ENDMDL
MODEL 5
REMARK VINA RESULT:      -8.0      1.790      5.137
REMARK  Name = 
REMARK  10 active torsions:
REMARK  status: ('A' for Active; 'I' for Inactive)
REMARK    1  A    between atoms: O_2  and  C_3
REMARK    2  A    between atoms: C_3  and  C_4
REMARK    3  A    between atoms: C_9  and  N_29
REMARK    4  A    between atoms: C_11  and  C_12
REMARK    5  A    between atoms: N_14  and  C_15
REMARK    6  A    between atoms: C_15  and  C_16
REMARK    7  A    between atoms: C_15  and  C_26
REMARK    8  A    between atoms: C_16  and  C_17
REMARK    9  A    between atoms: C_32  and  C_33
REMARK   10  A    between atoms: C_36  and  C_37
REMARK                            x       y       z     vdW  Elec       q    Type
REMARK                         _______ _______ _______ _____ _____    ______ ____
ROOT
ATOM      4  C   UNL     1      -1.096  -0.684  25.097  0.00  0.00    +0.256 C 
ATOM      5  O   UNL     1      -0.423  -1.130  25.267  0.00  0.00    -0.272 OA
ATOM      6  N   UNL     1      -1.026   0.124  24.941  0.00  0.00    -0.271 N 
ATOM      7  C   UNL     1      -0.284   0.484  24.956  0.00  0.00    +0.096 C 
ATOM      8  C   UNL     1      -0.215   1.292  24.801  0.00  0.00    +0.046 C 
ATOM      9  C   UNL     1      -0.887   1.739  24.630  0.00  0.00    +0.111 C 
ATOM     10  C   UNL     1      -1.629   1.378  24.616  0.00  0.00    +0.054 C 
ATOM     11  C   UNL     1      -1.699   0.571  24.771  0.00  0.00    +0.155 C 
ENDROOT
BRANCH   9  29
ATOM     29  N   UNL     1      -0.818   2.546  24.475  0.00  0.00    -0.229 N 
ATOM     30  N   UNL     1      -0.649   2.885  23.742  0.00  0.00    -0.064 NA
ATOM     31  N   UNL     1      -0.632   3.705  23.840  0.00  0.00    -0.124 NA
ATOM     32  C   UNL     1      -0.791   3.871  24.632  0.00  0.00    +0.183 A 
ATOM     36  C   UNL     1      -0.905   3.154  25.024  0.00  0.00    +0.160 A 
BRANCH  32  33
ATOM     33  C   UNL     1      -0.828   4.622  24.972  0.00  0.00    +0.305 C 
ATOM     34  N   UNL     1      -1.556   4.994  25.072  0.00  0.00    -0.082 NA
ATOM     35  O   UNL     1      -0.135   5.000  25.211  0.00  0.00    -0.265 OA
ENDBRANCH  32  33
BRANCH  36  37
ATOM     37  C   UNL     1      -1.077   3.063  25.827  0.00  0.00    +0.303 C 
ATOM     38  N   UNL     1      -0.469   2.915  26.364  0.00  0.00    -0.082 NA
ATOM     39  O   UNL     1      -1.857   3.120  26.090  0.00  0.00    -0.265 OA
ENDBRANCH  36  37
ENDBRANCH   9  29
BRANCH  11  12
ATOM     12  C   UNL     1      -2.441   0.210  24.757  0.00  0.00    +0.260 C 
ATOM     13  O   UNL     1      -2.574  -0.476  25.196  0.00  0.00    -0.272 OA
ATOM     14  N   UNL     1      -3.048   0.534  24.303  0.00  0.00    -0.196 NA
BRANCH  14  15
ATOM     15  C   UNL     1      -3.790   0.173  24.289  0.00  0.00    +0.179 C 
BRANCH  15  26
ATOM     26  C   UNL     1      -3.953  -0.410  23.728  0.00  0.00    +0.281 C 
ATOM     27  N   UNL     1      -4.398  -1.071  23.938  0.00  0.00    -0.086 NA
ATOM     28  O   UNL     1      -3.669  -0.331  22.957  0.00  0.00    -0.270 OA
ENDBRANCH  15  26
BRANCH  15  16
ATOM     16  C   UNL     1      -4.368   0.396  24.834  0.00  0.00    +0.059 C 
BRANCH  16  17
ATOM     17  C   UNL     1      -4.721   1.139  24.781  0.00  0.00    +0.001 A 
ATOM     18  C   UNL     1      -4.597   1.694  24.183  0.00  0.00    +0.095 A 
ATOM     19  N   UNL     1      -5.060   2.356  24.349  0.00  0.00    -0.244 NA
ATOM     20  C   UNL     1      -5.470   2.211  25.049  0.00  0.00    +0.081 A 
ATOM     21  C   UNL     1      -5.260   1.459  25.316  0.00  0.00    +0.015 A 
ATOM     22  C   UNL     1      -5.589   1.163  26.013  0.00  0.00    +0.001 A 
ATOM     23  C   UNL     1      -6.125   1.618  26.443  0.00  0.00    +0.000 A 
ATOM     24  C   UNL     1      -6.334   2.370  26.176  0.00  0.00    +0.002 A 
ATOM     25  C   UNL     1      -6.007   2.667  25.479  0.00  0.00    +0.019 A 
ENDBRANCH  16  17
ENDBRANCH  15  16
ENDBRANCH  14  15
ENDBRANCH  11  12
BRANCH   4   3
ATOM      3  C   UNL     1      -1.837  -1.044  25.082  0.00  0.00    +0.227 C 
BRANCH   3   2
ATOM      1  C   UNL     1      -1.778  -2.468  24.982  0.00  0.00    +0.175 C 
ATOM      2  O   UNL     1      -1.940  -1.789  25.421  0.00  0.00    -0.342 OA
ENDBRANCH   3   2
ENDBRANCH   4   3
TORSDOF 10
ENDMDL
MODEL 6
REMARK VINA RESULT:      -7.7      2.401      3.920
REMARK  Name = 
REMARK  10 active torsions:
REMARK  status: ('A' for Active; 'I' for Inactive)
REMARK    1  A    between atoms: O_2  and  C_3
REMARK    2  A    between atoms: C_3  and  C_4
REMARK    3  A    between atoms: C_9  and  N_29
REMARK    4  A    between atoms: C_11  and  C_12
REMARK    5  A    between atoms: N_14  and  C_15
REMARK    6  A    between atoms: C_15  and  C_16
REMARK    7  A    between atoms: C_15  and  C_26
REMARK    8  A    between atoms: C_16  and  C_17
REMARK    9  A    between atoms: C_32  and  C_33
REMARK   10  A    between atoms: C_36  and  C_37
REMARK                            x       y       z     vdW  Elec       q    Type
REMARK                         _______ _______ _______ _____ _____    ______ ____
ROOT
ATOM      4  C   UNL     1       0.809   0.516  23.475  0.00  0.00    +0.256 C 
ATOM      5  O   UNL     1       1.269   0.126  22.912  0.00  0.00    -0.272 OA
ATOM      6  N   UNL     1       0.070   0.213  23.684  0.00  0.00    -0.271 N 
ATOM      7  C   UNL     1      -0.207  -0.479  23.331  0.00  0.00    +0.096 C 
ATOM      8  C   UNL     1      -0.946  -0.781  23.540  0.00  0.00    +0.046 C 
ATOM      9  C   UNL     1      -1.407  -0.392  24.103  0.00  0.00    +0.111 C 
ATOM     10  C   UNL     1      -1.129   0.300  24.457  0.00  0.00    +0.054 C 
ATOM     11  C   UNL     1      -0.390   0.602  24.247  0.00  0.00    +0.155 C 
ENDROOT
BRANCH   9  29
ATOM     29  N   UNL     1      -2.145  -0.695  24.312  0.00  0.00    -0.229 N 
ATOM     30  N   UNL     1      -2.876  -0.354  24.137  0.00  0.00    -0.064 NA
ATOM     31  N   UNL     1      -3.464  -0.840  24.451  0.00  0.00    -0.124 NA
ATOM     32  C   UNL     1      -3.098  -1.480  24.819  0.00  0.00    +0.183 A 
ATOM     36  C   UNL     1      -2.283  -1.390  24.733  0.00  0.00    +0.160 A 
BRANCH  32  33
ATOM     33  C   UNL     1      -3.480  -2.101  25.205  0.00  0.00    +0.305 C 
ATOM     34  N   UNL     1      -3.799  -2.724  24.769  0.00  0.00    -0.082 NA
ATOM     35  O   UNL     1      -3.542  -2.099  26.027  0.00  0.00    -0.265 OA
ENDBRANCH  32  33
BRANCH  36  37
ATOM     37  C   UNL     1      -1.705  -1.906  25.019  0.00  0.00    +0.303 C 
ATOM     38  N   UNL     1      -1.494  -2.572  24.580  0.00  0.00    -0.082 NA
ATOM     39  O   UNL     1      -1.340  -1.757  25.744  0.00  0.00    -0.265 OA
ENDBRANCH  36  37
ENDBRANCH   9  29
BRANCH  11  12
ATOM     12  C   UNL     1      -0.112   1.294  24.601  0.00  0.00    +0.260 C 
ATOM     13  O   UNL     1       0.572   1.656  24.316  0.00  0.00    -0.272 OA
ATOM     14  N   UNL     1      -0.519   1.624  25.239  0.00  0.00    -0.196 NA
BRANCH  14  15
ATOM     15  C   UNL     1      -0.241   2.315  25.592  0.00  0.00    +0.179 C 
BRANCH  15  26
ATOM     26  C   UNL     1       0.182   2.274  26.299  0.00  0.00    +0.281 C 
ATOM     27  N   UNL     1      -0.105   1.825  26.927  0.00  0.00    -0.086 NA
ATOM     28  O   UNL     1       0.895   2.685  26.376  0.00  0.00    -0.270 OA
ENDBRANCH  15  26
BRANCH  15  16
ATOM     16  C   UNL     1      -0.386   3.046  25.239  0.00  0.00    +0.059 C 
BRANCH  16  17
ATOM     17  C   UNL     1      -1.077   3.460  25.415  0.00  0.00    +0.001 A 
ATOM     18  C   UNL     1      -1.737   3.157  25.807  0.00  0.00    +0.095 A 
ATOM     19  N   UNL     1      -2.298   3.760  25.864  0.00  0.00    -0.244 NA
ATOM     20  C   UNL     1      -1.985   4.434  25.509  0.00  0.00    +0.081 A 
ATOM     21  C   UNL     1      -1.230   4.249  25.231  0.00  0.00    +0.015 A 
ATOM     22  C   UNL     1      -0.780   4.824  24.846  0.00  0.00    +0.001 A 
ATOM     23  C   UNL     1      -1.084   5.583  24.739  0.00  0.00    +0.000 A 
ATOM     24  C   UNL     1      -1.839   5.768  25.017  0.00  0.00    +0.002 A 
ATOM     25  C   UNL     1      -2.289   5.194  25.402  0.00  0.00    +0.019 A 
ENDBRANCH  16  17
ENDBRANCH  15  16
ENDBRANCH  14  15
ENDBRANCH  11  12
BRANCH   4   3
ATOM      3  C   UNL     1       1.086   1.207  23.829  0.00  0.00    +0.227 C 
BRANCH   3   2
ATOM      1  C   UNL     1       2.465   1.264  23.458  0.00  0.00    +0.175 C 
ATOM      2  O   UNL     1       1.720   1.616  23.494  0.00  0.00    -0.342 OA
ENDBRANCH   3   2
ENDBRANCH   4   3
TORSDOF 10
ENDMDL
