REMARK  Name = 
REMARK  3 active torsions:
REMARK  status: ('A' for Active; 'I' for Inactive)
REMARK    1  A    between atoms: C_7  and  C_8
REMARK    2  A    between atoms: N_10  and  C_11
REMARK    3  A    between atoms: C_17  and  C_18
REMARK                            x       y       z     vdW  Elec       q    Type
REMARK                         _______ _______ _______ _____ _____    ______ ____
ROOT
ATOM     11  C   UNL     1       0.715  -1.238   0.000  0.00  0.00    +0.133 C 
ATOM     12  C   UNL     1       1.382  -1.722   0.000  0.00  0.00    +0.202 C 
ATOM     13  O   UNL     1       2.167  -1.468   0.000  0.00  0.00    -0.219 OA
ATOM     14  C   UNL     1       1.127  -2.507   0.000  0.00  0.00    +0.184 C 
ATOM     15  O   UNL     1       1.612  -3.175   0.000  0.00  0.00    -0.220 OA
ATOM     16  C   UNL     1       0.302  -2.507   0.000  0.00  0.00    +0.042 C 
ATOM     17  C   UNL     1       0.047  -1.722   0.000  0.00  0.00    +0.049 C 
ENDROOT
BRANCH  17  18
ATOM     18  C   UNL     1      -0.738  -1.468   0.000  0.00  0.00    -0.002 A 
ATOM     19  C   UNL     1      -1.351  -2.019   0.000  0.00  0.00    -0.001 A 
ATOM     20  C   UNL     1      -2.135  -1.765   0.000  0.00  0.00    +0.020 A 
ATOM     21  C   UNL     1      -2.307  -0.958   0.000  0.00  0.00    +0.099 A 
ATOM     22  N   UNL     1      -1.694  -0.406   0.000  0.00  0.00    -0.243 NA
ATOM     23  C   UNL     1      -0.909  -0.660   0.000  0.00  0.00    +0.095 A 
ENDBRANCH  17  18
BRANCH  11  10
ATOM      8  C   UNL     1       1.429   0.000   0.000  0.00  0.00    +0.265 C 
ATOM      9  O   UNL     1       2.143  -0.412   0.000  0.00  0.00    -0.268 OA
ATOM     10  N   UNL     1       0.715  -0.412   0.000  0.00  0.00    -0.200 NA
BRANCH   8   7
ATOM      1  C   UNL     1       0.000   0.825   0.000  0.00  0.00    +0.031 C 
ATOM      2  C   UNL     1       0.715   1.238   0.000  0.00  0.00    -0.017 A 
ATOM      3  C   UNL     1       0.715   2.062   0.000  0.00  0.00    -0.004 A 
ATOM      4  C   UNL     1       1.429   2.475   0.000  0.00  0.00    -0.000 A 
ATOM      5  C   UNL     1       2.143   2.062   0.000  0.00  0.00    +0.000 A 
ATOM      6  C   UNL     1       2.143   1.238   0.000  0.00  0.00    +0.004 A 
ATOM      7  C   UNL     1       1.429   0.825   0.000  0.00  0.00    +0.051 A 
ENDBRANCH   8   7
ENDBRANCH  11  10
TORSDOF 3
