REMARK  Name = 
REMARK  6 active torsions:
REMARK  status: ('A' for Active; 'I' for Inactive)
REMARK    1  A    between atoms: O_2  and  C_3
REMARK    2  A    between atoms: C_7  and  C_9
REMARK    3  A    between atoms: N_13  and  C_14
REMARK    4  A    between atoms: C_18  and  N_22
REMARK    5  A    between atoms: N_22  and  S_23
REMARK    6  A    between atoms: S_23  and  C_26
REMARK                            x       y       z     vdW  Elec       q    Type
REMARK                         _______ _______ _______ _____ _____    ______ ____
ROOT
ATOM     14  C   UNL     1      -3.488   0.058   0.000  0.00  0.00    +0.167 C 
ATOM     15  C   UNL     1      -3.402   0.878   0.000  0.00  0.00    +0.169 C 
ATOM     16  O   UNL     1      -2.595   1.050   0.000  0.00  0.00    -0.350 OA
ATOM     17  C   UNL     1      -2.183   0.336   0.000  0.00  0.00    +0.164 C 
ATOM     18  C   UNL     1      -1.429   0.000   0.000  0.00  0.00    +0.157 C 
ATOM     19  C   UNL     1      -1.515  -0.821   0.000  0.00  0.00    +0.164 C 
ATOM     20  O   UNL     1      -2.322  -0.992   0.000  0.00  0.00    -0.350 OA
ATOM     21  C   UNL     1      -2.735  -0.278   0.000  0.00  0.00    +0.169 C 
ENDROOT
BRANCH  14  13
ATOM      9  C   UNL     1      -4.289  -1.175   0.000  0.00  0.00    +0.184 A 
ATOM     10  N   UNL     1      -5.096  -1.347   0.000  0.00  0.00    -0.108 NA
ATOM     11  N   UNL     1      -5.508  -0.632   0.000  0.00  0.00    -0.023 NA
ATOM     12  N   UNL     1      -4.957  -0.019   0.000  0.00  0.00    -0.043 NA
ATOM     13  N   UNL     1      -4.203  -0.354   0.000  0.00  0.00    -0.210 N 
BRANCH   9   7
ATOM      3  C   UNL     1      -2.278  -2.024   0.000  0.00  0.00    +0.139 A 
ATOM      4  C   UNL     1      -2.450  -2.831   0.000  0.00  0.00    +0.037 A 
ATOM      5  C   UNL     1      -3.234  -3.086   0.000  0.00  0.00    +0.003 A 
ATOM      6  C   UNL     1      -3.848  -2.534   0.000  0.00  0.00    +0.003 A 
ATOM      7  C   UNL     1      -3.676  -1.727   0.000  0.00  0.00    +0.040 A 
ATOM      8  C   UNL     1      -2.891  -1.472   0.000  0.00  0.00    +0.040 A 
BRANCH   3   2
ATOM      1  C   UNL     1      -0.880  -2.321   0.000  0.00  0.00    +0.252 C 
ATOM      2  O   UNL     1      -1.494  -1.769   0.000  0.00  0.00    -0.471 OA
ENDBRANCH   3   2
ENDBRANCH   9   7
ENDBRANCH  14  13
BRANCH  18  22
ATOM     22  N   UNL     1      -0.715   0.412   0.000  0.00  0.00    -0.074 NA
BRANCH  22  23
ATOM     23  S   UNL     1       0.000   0.000   0.000  0.00  0.00    +0.077 S 
ATOM     24  O   UNL     1      -0.412  -0.715   0.000  0.00  0.00    -0.152 OA
ATOM     25  O   UNL     1       0.412   0.715   0.000  0.00  0.00    -0.152 OA
BRANCH  23  26
ATOM     26  C   UNL     1       0.715  -0.412   0.000  0.00  0.00    +0.124 A 
ATOM     27  C   UNL     1       1.429   0.000   0.000  0.00  0.00    +0.020 A 
ATOM     28  C   UNL     1       2.143  -0.412   0.000  0.00  0.00    +0.001 A 
ATOM     29  C   UNL     1       2.858   0.000   0.000  0.00  0.00    +0.000 A 
ATOM     30  C   UNL     1       3.572  -0.412   0.000  0.00  0.00    +0.000 A 
ATOM     31  C   UNL     1       3.572  -1.238   0.000  0.00  0.00    +0.000 A 
ATOM     32  C   UNL     1       2.858  -1.650   0.000  0.00  0.00    +0.000 A 
ATOM     33  C   UNL     1       2.143  -1.238   0.000  0.00  0.00    +0.000 A 
ATOM     34  C   UNL     1       1.429  -1.650   0.000  0.00  0.00    +0.001 A 
ATOM     35  C   UNL     1       0.715  -1.238   0.000  0.00  0.00    +0.020 A 
ENDBRANCH  23  26
ENDBRANCH  22  23
ENDBRANCH  18  22
TORSDOF 6
