REMARK  Name = 
REMARK  5 active torsions:
REMARK  status: ('A' for Active; 'I' for Inactive)
REMARK    1  A    between atoms: O_2  and  C_3
REMARK    2  A    between atoms: C_6  and  S_9
REMARK    3  A    between atoms: S_9  and  N_12
REMARK    4  A    between atoms: N_12  and  C_13
REMARK    5  A    between atoms: C_19  and  C_20
REMARK                            x       y       z     vdW  Elec       q    Type
REMARK                         _______ _______ _______ _____ _____    ______ ____
ROOT
ATOM     13  C   UNL     1       0.715  -1.238   0.000  0.00  0.00    +0.135 C 
ATOM     14  C   UNL     1       1.382  -1.722   0.000  0.00  0.00    +0.200 C 
ATOM     15  O   UNL     1       2.167  -1.468   0.000  0.00  0.00    -0.219 OA
ATOM     16  C   UNL     1       1.127  -2.507   0.000  0.00  0.00    +0.184 C 
ATOM     17  O   UNL     1       1.612  -3.175   0.000  0.00  0.00    -0.220 OA
ATOM     18  C   UNL     1       0.302  -2.507   0.000  0.00  0.00    +0.041 C 
ATOM     19  C   UNL     1       0.047  -1.722   0.000  0.00  0.00    +0.045 C 
ENDROOT
BRANCH  19  20
ATOM     20  C   UNL     1      -0.738  -1.468   0.000  0.00  0.00    -0.025 A 
ATOM     21  C   UNL     1      -1.351  -2.019   0.000  0.00  0.00    -0.005 A 
ATOM     22  C   UNL     1      -2.135  -1.765   0.000  0.00  0.00    -0.000 A 
ATOM     23  C   UNL     1      -2.307  -0.958   0.000  0.00  0.00    -0.000 A 
ATOM     24  C   UNL     1      -1.694  -0.406   0.000  0.00  0.00    -0.005 A 
ATOM     25  C   UNL     1      -0.909  -0.660   0.000  0.00  0.00    -0.026 A 
ATOM     26  C   UNL     1      -0.296  -0.108   0.000  0.00  0.00    +0.031 C 
ENDBRANCH  19  20
BRANCH  13  12
ATOM     12  N   UNL     1       0.715  -0.412   0.000  0.00  0.00    -0.076 NA
BRANCH  12   9
ATOM      9  S   UNL     1       1.429   0.000   0.000  0.00  0.00    +0.077 S 
ATOM     10  O   UNL     1       1.016   0.715   0.000  0.00  0.00    -0.152 OA
ATOM     11  O   UNL     1       1.841  -0.715   0.000  0.00  0.00    -0.152 OA
BRANCH   9   6
ATOM      3  C   UNL     1       3.572   1.238   0.000  0.00  0.00    +0.139 A 
ATOM      4  C   UNL     1       3.572   0.412   0.000  0.00  0.00    +0.038 A 
ATOM      5  C   UNL     1       2.858   0.000   0.000  0.00  0.00    +0.023 A 
ATOM      6  C   UNL     1       2.143   0.412   0.000  0.00  0.00    +0.124 A 
ATOM      7  C   UNL     1       2.143   1.238   0.000  0.00  0.00    +0.023 A 
ATOM      8  C   UNL     1       2.858   1.650   0.000  0.00  0.00    +0.038 A 
BRANCH   3   2
ATOM      1  C   UNL     1       4.287   2.475   0.000  0.00  0.00    +0.252 C 
ATOM      2  O   UNL     1       4.287   1.650   0.000  0.00  0.00    -0.471 OA
ENDBRANCH   3   2
ENDBRANCH   9   6
ENDBRANCH  12   9
ENDBRANCH  13  12
TORSDOF 5
