REMARK  Name = 
REMARK  2 active torsions:
REMARK  status: ('A' for Active; 'I' for Inactive)
REMARK    1  A    between atoms: S_2  and  N_5
REMARK    2  A    between atoms: N_5  and  C_6
REMARK                            x       y       z     vdW  Elec       q    Type
REMARK                         _______ _______ _______ _____ _____    ______ ____
ROOT
ATOM      6  C   UNL     1       6.124   0.851   0.000  0.00  0.00    +0.101 C 
ATOM      7  C   UNL     1       5.940   1.655   0.000  0.00  0.00    +0.041 C 
ATOM      8  C   UNL     1       5.152   1.899   0.000  0.00  0.00    +0.096 C 
ATOM      9  N   UNL     1       4.547   1.337   0.000  0.00  0.00    -0.269 N 
ATOM     10  C   UNL     1       4.731   0.533   0.000  0.00  0.00    +0.155 C 
ATOM     11  C   UNL     1       5.519   0.290   0.000  0.00  0.00    +0.049 C 
ATOM     12  C   UNL     1       4.216  -0.112   0.000  0.00  0.00    +0.264 C 
ATOM     13  O   UNL     1       4.574  -0.855   0.000  0.00  0.00    -0.271 OA
ATOM     14  N   UNL     1       3.391  -0.112   0.000  0.00  0.00    -0.178 NA
ATOM     15  C   UNL     1       2.877   0.533   0.000  0.00  0.00    +0.078 A 
ATOM     16  C   UNL     1       2.088   0.290   0.000  0.00  0.00    +0.017 A 
ATOM     17  C   UNL     1       1.484   0.851   0.000  0.00  0.00    +0.008 A 
ATOM     18  C   UNL     1       1.667   1.655   0.000  0.00  0.00    +0.035 A 
ATOM     19 BR   UNL     1       1.062   2.216   0.000  0.00  0.00    -0.049 Br
ATOM     20  C   UNL     1       2.456   1.899   0.000  0.00  0.00    +0.013 A 
ATOM     21  C   UNL     1       3.060   1.337   0.000  0.00  0.00    +0.069 A 
ATOM     22  C   UNL     1       3.804   1.695   0.000  0.00  0.00    +0.251 C 
ATOM     23  O   UNL     1       3.804   2.520   0.000  0.00  0.00    -0.270 OA
ENDROOT
BRANCH   6   5
ATOM      5  N   UNL     1       6.912   0.608   0.000  0.00  0.00    -0.083 NA
BRANCH   5   2
ATOM      1  C   UNL     1       7.279  -1.001   0.000  0.00  0.00    +0.197 C 
ATOM      2  S   UNL     1       7.096  -0.197   0.000  0.00  0.00    +0.059 S 
ATOM      3  O   UNL     1       7.900  -0.013   0.000  0.00  0.00    -0.156 OA
ATOM      4  O   UNL     1       6.291  -0.380   0.000  0.00  0.00    -0.156 OA
ENDBRANCH   5   2
ENDBRANCH   6   5
TORSDOF 2
