MODEL 1
REMARK VINA RESULT:      -8.9      0.000      0.000
REMARK  Name = 
REMARK  7 active torsions:
REMARK  status: ('A' for Active; 'I' for Inactive)
REMARK    1  A    between atoms: O_2  and  C_3
REMARK    2  A    between atoms: C_3  and  C_4
REMARK    3  A    between atoms: C_4  and  O_5
REMARK    4  A    between atoms: O_5  and  C_6
REMARK    5  A    between atoms: C_9  and  C_12
REMARK    6  A    between atoms: C_15  and  C_17
REMARK    7  A    between atoms: N_21  and  C_22
REMARK                            x       y       z     vdW  Elec       q    Type
REMARK                         _______ _______ _______ _____ _____    ______ ____
ROOT
ATOM     12  C   UNL     1      -1.241   0.170  24.544  0.00  0.00    +0.205 A 
ATOM     13  N   UNL     1      -1.294   0.067  25.361  0.00  0.00    -0.056 NA
ATOM     14  O   UNL     1      -2.084   0.151  25.578  0.00  0.00    -0.336 OA
ATOM     15  C   UNL     1      -2.521   0.305  24.895  0.00  0.00    +0.251 A 
ATOM     16  N   UNL     1      -2.000   0.317  24.257  0.00  0.00    -0.190 NA
ENDROOT
BRANCH  12   9
ATOM      6  C   UNL     1       0.830   0.057  23.194  0.00  0.00    +0.225 A 
ATOM      7  C   UNL     1       0.508  -0.631  23.513  0.00  0.00    +0.058 A 
ATOM      8  C   UNL     1      -0.182  -0.594  23.963  0.00  0.00    +0.010 A 
ATOM      9  C   UNL     1      -0.551   0.133  24.094  0.00  0.00    +0.058 A 
ATOM     10  C   UNL     1      -0.228   0.822  23.775  0.00  0.00    +0.105 A 
ATOM     11  N   UNL     1       0.463   0.785  23.325  0.00  0.00    -0.210 NA
BRANCH   6   5
ATOM      5  O   UNL     1       1.521   0.020  22.744  0.00  0.00    -0.457 OA
BRANCH   5   4
ATOM      4  C   UNL     1       2.210   0.385  23.014  0.00  0.00    +0.239 C 
BRANCH   4   3
ATOM      3  C   UNL     1       2.920   0.278  22.608  0.00  0.00    +0.189 C 
BRANCH   3   2
ATOM      1  C   UNL     1       4.315   0.551  22.754  0.00  0.00    +0.174 C 
ATOM      2  O   UNL     1       3.536   0.818  22.704  0.00  0.00    -0.347 OA
ENDBRANCH   3   2
ENDBRANCH   4   3
ENDBRANCH   5   4
ENDBRANCH   6   5
ENDBRANCH  12   9
BRANCH  15  17
ATOM     17  C   UNL     1      -3.337   0.427  24.858  0.00  0.00    +0.138 C 
ATOM     18  C   UNL     1      -3.719   1.157  24.849  0.00  0.00    +0.027 C 
ATOM     19  C   UNL     1      -4.532   1.019  24.810  0.00  0.00    +0.019 C 
ATOM     20  C   UNL     1      -4.651   0.203  24.796  0.00  0.00    +0.072 C 
ATOM     21  N   UNL     1      -3.913  -0.164  24.825  0.00  0.00    -0.268 NA
BRANCH  21  22
ATOM     22  C   UNL     1      -3.774  -0.977  24.823  0.00  0.00    +0.063 C 
ATOM     23  C   UNL     1      -3.786  -1.394  24.110  0.00  0.00    +0.048 C 
ATOM     24  C   UNL     1      -3.646  -2.208  24.107  0.00  0.00    +0.144 C 
ATOM     25  O   UNL     1      -3.496  -2.603  24.815  0.00  0.00    -0.354 OA
ATOM     26  C   UNL     1      -3.484  -2.186  25.527  0.00  0.00    +0.144 C 
ATOM     27  C   UNL     1      -3.623  -1.373  25.530  0.00  0.00    +0.048 C 
ENDBRANCH  21  22
ENDBRANCH  15  17
TORSDOF 7
ENDMDL
MODEL 2
REMARK VINA RESULT:      -8.6      2.716      4.728
REMARK  Name = 
REMARK  7 active torsions:
REMARK  status: ('A' for Active; 'I' for Inactive)
REMARK    1  A    between atoms: O_2  and  C_3
REMARK    2  A    between atoms: C_3  and  C_4
REMARK    3  A    between atoms: C_4  and  O_5
REMARK    4  A    between atoms: O_5  and  C_6
REMARK    5  A    between atoms: C_9  and  C_12
REMARK    6  A    between atoms: C_15  and  C_17
REMARK    7  A    between atoms: N_21  and  C_22
REMARK                            x       y       z     vdW  Elec       q    Type
REMARK                         _______ _______ _______ _____ _____    ______ ____
ROOT
ATOM     12  C   UNL     1      -0.905   1.851  25.458  0.00  0.00    +0.205 A 
ATOM     13  N   UNL     1      -0.633   2.127  26.186  0.00  0.00    -0.056 NA
ATOM     14  O   UNL     1      -0.630   2.951  26.163  0.00  0.00    -0.336 OA
ATOM     15  C   UNL     1      -0.901   3.185  25.418  0.00  0.00    +0.251 A 
ATOM     16  N   UNL     1      -1.070   2.506  24.984  0.00  0.00    -0.190 NA
ENDROOT
BRANCH  12   9
ATOM      6  C   UNL     1      -1.177  -0.522  24.811  0.00  0.00    +0.225 A 
ATOM      7  C   UNL     1      -1.346  -0.283  25.581  0.00  0.00    +0.058 A 
ATOM      8  C   UNL     1      -1.255   0.508  25.797  0.00  0.00    +0.010 A 
ATOM      9  C   UNL     1      -0.995   1.060  25.243  0.00  0.00    +0.058 A 
ATOM     10  C   UNL     1      -0.826   0.821  24.471  0.00  0.00    +0.105 A 
ATOM     11  N   UNL     1      -0.917   0.030  24.255  0.00  0.00    -0.210 NA
BRANCH   6   5
ATOM      5  O   UNL     1      -1.268  -1.313  24.595  0.00  0.00    -0.457 OA
BRANCH   5   4
ATOM      4  C   UNL     1      -1.999  -1.685  24.686  0.00  0.00    +0.239 C 
BRANCH   4   3
ATOM      3  C   UNL     1      -2.131  -2.426  24.348  0.00  0.00    +0.189 C 
BRANCH   3   2
ATOM      1  C   UNL     1      -3.484  -2.871  24.255  0.00  0.00    +0.174 C 
ATOM      2  O   UNL     1      -2.747  -2.900  24.622  0.00  0.00    -0.347 OA
ENDBRANCH   3   2
ENDBRANCH   4   3
ENDBRANCH   5   4
ENDBRANCH   6   5
ENDBRANCH  12   9
BRANCH  15  17
ATOM     17  C   UNL     1      -0.986   3.963  25.157  0.00  0.00    +0.138 C 
ATOM     18  C   UNL     1      -0.389   4.438  24.845  0.00  0.00    +0.027 C 
ATOM     19  C   UNL     1      -0.719   5.171  24.657  0.00  0.00    +0.019 C 
ATOM     20  C   UNL     1      -1.519   5.148  24.853  0.00  0.00    +0.072 C 
ATOM     21  N   UNL     1      -1.685   4.402  25.162  0.00  0.00    -0.268 NA
BRANCH  21  22
ATOM     22  C   UNL     1      -2.420   4.139  25.429  0.00  0.00    +0.063 C 
ATOM     23  C   UNL     1      -2.956   3.806  24.897  0.00  0.00    +0.048 C 
ATOM     24  C   UNL     1      -3.691   3.542  25.163  0.00  0.00    +0.144 C 
ATOM     25  O   UNL     1      -3.890   3.612  25.962  0.00  0.00    -0.354 OA
ATOM     26  C   UNL     1      -3.354   3.945  26.493  0.00  0.00    +0.144 C 
ATOM     27  C   UNL     1      -2.619   4.208  26.226  0.00  0.00    +0.048 C 
ENDBRANCH  21  22
ENDBRANCH  15  17
TORSDOF 7
ENDMDL
MODEL 3
REMARK VINA RESULT:      -8.5      1.038      2.154
REMARK  Name = 
REMARK  7 active torsions:
REMARK  status: ('A' for Active; 'I' for Inactive)
REMARK    1  A    between atoms: O_2  and  C_3
REMARK    2  A    between atoms: C_3  and  C_4
REMARK    3  A    between atoms: C_4  and  O_5
REMARK    4  A    between atoms: O_5  and  C_6
REMARK    5  A    between atoms: C_9  and  C_12
REMARK    6  A    between atoms: C_15  and  C_17
REMARK    7  A    between atoms: N_21  and  C_22
REMARK                            x       y       z     vdW  Elec       q    Type
REMARK                         _______ _______ _______ _____ _____    ______ ____
ROOT
ATOM     12  C   UNL     1      -1.137   0.436  24.540  0.00  0.00    +0.205 A 
ATOM     13  N   UNL     1      -1.178   0.748  25.303  0.00  0.00    -0.056 NA
ATOM     14  O   UNL     1      -1.969   0.749  25.536  0.00  0.00    -0.336 OA
ATOM     15  C   UNL     1      -2.418   0.438  24.917  0.00  0.00    +0.251 A 
ATOM     16  N   UNL     1      -1.903   0.245  24.302  0.00  0.00    -0.190 NA
ENDROOT
BRANCH  12   9
ATOM      6  C   UNL     1       0.922   0.128  23.202  0.00  0.00    +0.225 A 
ATOM      7  C   UNL     1       0.506  -0.529  23.475  0.00  0.00    +0.058 A 
ATOM      8  C   UNL     1      -0.180  -0.426  23.921  0.00  0.00    +0.010 A 
ATOM      9  C   UNL     1      -0.451   0.333  24.094  0.00  0.00    +0.058 A 
ATOM     10  C   UNL     1      -0.034   0.991  23.820  0.00  0.00    +0.105 A 
ATOM     11  N   UNL     1       0.652   0.889  23.374  0.00  0.00    -0.210 NA
BRANCH   6   5
ATOM      5  O   UNL     1       1.608   0.026  22.756  0.00  0.00    -0.457 OA
BRANCH   5   4
ATOM      4  C   UNL     1       2.297   0.434  22.958  0.00  0.00    +0.239 C 
BRANCH   4   3
ATOM      3  C   UNL     1       3.008   0.257  22.579  0.00  0.00    +0.189 C 
BRANCH   3   2
ATOM      1  C   UNL     1       4.392   0.497  22.836  0.00  0.00    +0.174 C 
ATOM      2  O   UNL     1       3.644   0.778  22.632  0.00  0.00    -0.347 OA
ENDBRANCH   3   2
ENDBRANCH   4   3
ENDBRANCH   5   4
ENDBRANCH   6   5
ENDBRANCH  12   9
BRANCH  15  17
ATOM     17  C   UNL     1      -3.237   0.338  24.915  0.00  0.00    +0.138 C 
ATOM     18  C   UNL     1      -3.642  -0.355  25.103  0.00  0.00    +0.027 C 
ATOM     19  C   UNL     1      -4.450  -0.205  25.029  0.00  0.00    +0.019 C 
ATOM     20  C   UNL     1      -4.544   0.580  24.795  0.00  0.00    +0.072 C 
ATOM     21  N   UNL     1      -3.795   0.917  24.724  0.00  0.00    -0.268 NA
BRANCH  21  22
ATOM     22  C   UNL     1      -3.630   1.694  24.502  0.00  0.00    +0.063 C 
ATOM     23  C   UNL     1      -3.545   1.884  23.703  0.00  0.00    +0.048 C 
ATOM     24  C   UNL     1      -3.380   2.662  23.480  0.00  0.00    +0.144 C 
ATOM     25  O   UNL     1      -3.300   3.248  24.056  0.00  0.00    -0.354 OA
ATOM     26  C   UNL     1      -3.385   3.057  24.853  0.00  0.00    +0.144 C 
ATOM     27  C   UNL     1      -3.550   2.279  25.076  0.00  0.00    +0.048 C 
ENDBRANCH  21  22
ENDBRANCH  15  17
TORSDOF 7
ENDMDL
MODEL 4
REMARK VINA RESULT:      -8.3      2.872      5.194
REMARK  Name = 
REMARK  7 active torsions:
REMARK  status: ('A' for Active; 'I' for Inactive)
REMARK    1  A    between atoms: O_2  and  C_3
REMARK    2  A    between atoms: C_3  and  C_4
REMARK    3  A    between atoms: C_4  and  O_5
REMARK    4  A    between atoms: O_5  and  C_6
REMARK    5  A    between atoms: C_9  and  C_12
REMARK    6  A    between atoms: C_15  and  C_17
REMARK    7  A    between atoms: N_21  and  C_22
REMARK                            x       y       z     vdW  Elec       q    Type
REMARK                         _______ _______ _______ _____ _____    ______ ____
ROOT
ATOM     12  C   UNL     1      -3.569   1.922  24.317  0.00  0.00    +0.205 A 
ATOM     13  N   UNL     1      -3.524   2.483  23.714  0.00  0.00    -0.056 NA
ATOM     14  O   UNL     1      -3.305   3.203  24.051  0.00  0.00    -0.336 OA
ATOM     15  C   UNL     1      -3.215   3.087  24.864  0.00  0.00    +0.251 A 
ATOM     16  N   UNL     1      -3.378   2.295  25.027  0.00  0.00    -0.190 NA
ENDROOT
BRANCH  12   9
ATOM      6  C   UNL     1      -4.171  -0.463  24.042  0.00  0.00    +0.225 A 
ATOM      7  C   UNL     1      -4.537  -0.010  24.626  0.00  0.00    +0.058 A 
ATOM      8  C   UNL     1      -4.337   0.785  24.717  0.00  0.00    +0.010 A 
ATOM      9  C   UNL     1      -3.770   1.127  24.225  0.00  0.00    +0.058 A 
ATOM     10  C   UNL     1      -3.403   0.673  23.641  0.00  0.00    +0.105 A 
ATOM     11  N   UNL     1      -3.604  -0.122  23.550  0.00  0.00    -0.210 NA
BRANCH   6   5
ATOM      5  O   UNL     1      -4.372  -1.258  23.951  0.00  0.00    -0.457 OA
BRANCH   5   4
ATOM      4  C   UNL     1      -3.903  -1.845  24.295  0.00  0.00    +0.239 C 
BRANCH   4   3
ATOM      3  C   UNL     1      -4.014  -2.635  24.088  0.00  0.00    +0.189 C 
BRANCH   3   2
ATOM      1  C   UNL     1      -2.853  -3.338  24.535  0.00  0.00    +0.174 C 
ATOM      2  O   UNL     1      -3.671  -3.232  24.542  0.00  0.00    -0.347 OA
ENDBRANCH   3   2
ENDBRANCH   4   3
ENDBRANCH   5   4
ENDBRANCH   6   5
ENDBRANCH  12   9
BRANCH  15  17
ATOM     17  C   UNL     1      -3.000   3.662  25.414  0.00  0.00    +0.138 C 
ATOM     18  C   UNL     1      -3.516   4.152  25.830  0.00  0.00    +0.027 C 
ATOM     19  C   UNL     1      -3.064   4.641  26.318  0.00  0.00    +0.019 C 
ATOM     20  C   UNL     1      -2.269   4.453  26.202  0.00  0.00    +0.072 C 
ATOM     21  N   UNL     1      -2.229   3.848  25.644  0.00  0.00    -0.268 NA
BRANCH  21  22
ATOM     22  C   UNL     1      -1.540   3.491  25.363  0.00  0.00    +0.063 C 
ATOM     23  C   UNL     1      -1.214   2.850  25.769  0.00  0.00    +0.048 C 
ATOM     24  C   UNL     1      -0.526   2.492  25.489  0.00  0.00    +0.144 C 
ATOM     25  O   UNL     1      -0.163   2.774  24.803  0.00  0.00    -0.354 OA
ATOM     26  C   UNL     1      -0.489   3.414  24.398  0.00  0.00    +0.144 C 
ATOM     27  C   UNL     1      -1.178   3.773  24.678  0.00  0.00    +0.048 C 
ENDBRANCH  21  22
ENDBRANCH  15  17
TORSDOF 7
ENDMDL
MODEL 5
REMARK VINA RESULT:      -8.2      1.944      3.244
REMARK  Name = 
REMARK  7 active torsions:
REMARK  status: ('A' for Active; 'I' for Inactive)
REMARK    1  A    between atoms: O_2  and  C_3
REMARK    2  A    between atoms: C_3  and  C_4
REMARK    3  A    between atoms: C_4  and  O_5
REMARK    4  A    between atoms: O_5  and  C_6
REMARK    5  A    between atoms: C_9  and  C_12
REMARK    6  A    between atoms: C_15  and  C_17
REMARK    7  A    between atoms: N_21  and  C_22
REMARK                            x       y       z     vdW  Elec       q    Type
REMARK                         _______ _______ _______ _____ _____    ______ ____
ROOT
ATOM     12  C   UNL     1      -2.777   1.230  23.987  0.00  0.00    +0.205 A 
ATOM     13  N   UNL     1      -3.223   1.479  23.340  0.00  0.00    -0.056 NA
ATOM     14  O   UNL     1      -3.950   1.748  23.619  0.00  0.00    -0.336 OA
ATOM     15  C   UNL     1      -3.953   1.666  24.441  0.00  0.00    +0.251 A 
ATOM     16  N   UNL     1      -3.228   1.346  24.667  0.00  0.00    -0.190 NA
ENDROOT
BRANCH  12   9
ATOM      6  C   UNL     1      -0.485   0.298  23.903  0.00  0.00    +0.225 A 
ATOM      7  C   UNL     1      -1.095  -0.138  24.246  0.00  0.00    +0.058 A 
ATOM      8  C   UNL     1      -1.859   0.172  24.274  0.00  0.00    +0.010 A 
ATOM      9  C   UNL     1      -2.013   0.919  23.959  0.00  0.00    +0.058 A 
ATOM     10  C   UNL     1      -1.402   1.356  23.616  0.00  0.00    +0.105 A 
ATOM     11  N   UNL     1      -0.638   1.045  23.588  0.00  0.00    -0.210 NA
BRANCH   6   5
ATOM      5  O   UNL     1       0.279  -0.013  23.875  0.00  0.00    -0.457 OA
BRANCH   5   4
ATOM      4  C   UNL     1       0.725   0.051  23.184  0.00  0.00    +0.239 C 
BRANCH   4   3
ATOM      3  C   UNL     1       1.529  -0.136  23.193  0.00  0.00    +0.189 C 
BRANCH   3   2
ATOM      1  C   UNL     1       2.755   0.141  22.514  0.00  0.00    +0.174 C 
ATOM      2  O   UNL     1       1.967  -0.104  22.495  0.00  0.00    -0.347 OA
ENDBRANCH   3   2
ENDBRANCH   4   3
ENDBRANCH   5   4
ENDBRANCH   6   5
ENDBRANCH  12   9
BRANCH  15  17
ATOM     17  C   UNL     1      -4.573   1.870  24.946  0.00  0.00    +0.138 C 
ATOM     18  C   UNL     1      -5.211   1.388  25.149  0.00  0.00    +0.027 C 
ATOM     19  C   UNL     1      -5.696   1.813  25.664  0.00  0.00    +0.019 C 
ATOM     20  C   UNL     1      -5.358   2.556  25.779  0.00  0.00    +0.072 C 
ATOM     21  N   UNL     1      -4.664   2.592  25.336  0.00  0.00    -0.268 NA
BRANCH  21  22
ATOM     22  C   UNL     1      -4.150   3.235  25.289  0.00  0.00    +0.063 C 
ATOM     23  C   UNL     1      -4.217   3.770  24.663  0.00  0.00    +0.048 C 
ATOM     24  C   UNL     1      -3.702   4.414  24.615  0.00  0.00    +0.144 C 
ATOM     25  O   UNL     1      -3.122   4.523  25.192  0.00  0.00    -0.354 OA
ATOM     26  C   UNL     1      -3.056   3.988  25.816  0.00  0.00    +0.144 C 
ATOM     27  C   UNL     1      -3.570   3.344  25.864  0.00  0.00    +0.048 C 
ENDBRANCH  21  22
ENDBRANCH  15  17
TORSDOF 7
ENDMDL
MODEL 6
REMARK VINA RESULT:      -7.9      3.069      4.165
REMARK  Name = 
REMARK  7 active torsions:
REMARK  status: ('A' for Active; 'I' for Inactive)
REMARK    1  A    between atoms: O_2  and  C_3
REMARK    2  A    between atoms: C_3  and  C_4
REMARK    3  A    between atoms: C_4  and  O_5
REMARK    4  A    between atoms: O_5  and  C_6
REMARK    5  A    between atoms: C_9  and  C_12
REMARK    6  A    between atoms: C_15  and  C_17
REMARK    7  A    between atoms: N_21  and  C_22
REMARK                            x       y       z     vdW  Elec       q    Type
REMARK                         _______ _______ _______ _____ _____    ______ ____
ROOT
ATOM     12  C   UNL     1      -4.103   1.010  24.784  0.00  0.00    +0.205 A 
ATOM     13  N   UNL     1      -4.730   0.736  25.244  0.00  0.00    -0.056 NA
ATOM     14  O   UNL     1      -4.793  -0.078  25.132  0.00  0.00    -0.336 OA
ATOM     15  C   UNL     1      -4.203  -0.308  24.601  0.00  0.00    +0.251 A 
ATOM     16  N   UNL     1      -3.778   0.365  24.387  0.00  0.00    -0.190 NA
ENDROOT
BRANCH  12   9
ATOM      6  C   UNL     1      -3.334   3.357  24.622  0.00  0.00    +0.225 A 
ATOM      7  C   UNL     1      -3.372   2.888  23.945  0.00  0.00    +0.058 A 
ATOM      8  C   UNL     1      -3.628   2.106  23.999  0.00  0.00    +0.010 A 
ATOM      9  C   UNL     1      -3.847   1.792  24.730  0.00  0.00    +0.058 A 
ATOM     10  C   UNL     1      -3.809   2.262  25.408  0.00  0.00    +0.105 A 
ATOM     11  N   UNL     1      -3.552   3.044  25.354  0.00  0.00    -0.210 NA
BRANCH   6   5
ATOM      5  O   UNL     1      -3.077   4.139  24.568  0.00  0.00    -0.457 OA
BRANCH   5   4
ATOM      4  C   UNL     1      -2.397   4.379  24.971  0.00  0.00    +0.239 C 
BRANCH   4   3
ATOM      3  C   UNL     1      -2.047   5.105  24.792  0.00  0.00    +0.189 C 
BRANCH   3   2
ATOM      1  C   UNL     1      -0.633   5.311  24.798  0.00  0.00    +0.174 C 
ATOM      2  O   UNL     1      -1.361   5.339  25.186  0.00  0.00    -0.347 OA
ENDBRANCH   3   2
ENDBRANCH   4   3
ENDBRANCH   5   4
ENDBRANCH   6   5
ENDBRANCH  12   9
BRANCH  15  17
ATOM     17  C   UNL     1      -4.066  -1.076  24.334  0.00  0.00    +0.138 C 
ATOM     18  C   UNL     1      -4.499  -1.474  23.757  0.00  0.00    +0.027 C 
ATOM     19  C   UNL     1      -4.171  -2.225  23.664  0.00  0.00    +0.019 C 
ATOM     20  C   UNL     1      -3.534  -2.291  24.184  0.00  0.00    +0.072 C 
ATOM     21  N   UNL     1      -3.468  -1.582  24.598  0.00  0.00    -0.268 NA
BRANCH  21  22
ATOM     22  C   UNL     1      -2.906  -1.406  25.175  0.00  0.00    +0.063 C 
ATOM     23  C   UNL     1      -3.093  -1.498  25.974  0.00  0.00    +0.048 C 
ATOM     24  C   UNL     1      -2.531  -1.323  26.552  0.00  0.00    +0.144 C 
ATOM     25  O   UNL     1      -1.782  -1.055  26.332  0.00  0.00    -0.354 OA
ATOM     26  C   UNL     1      -1.595  -0.963  25.534  0.00  0.00    +0.144 C 
ATOM     27  C   UNL     1      -2.158  -1.139  24.955  0.00  0.00    +0.048 C 
ENDBRANCH  21  22
ENDBRANCH  15  17
TORSDOF 7
ENDMDL
