MODEL 1
REMARK VINA RESULT:     -11.8      0.000      0.000
REMARK  Name = 
REMARK  7 active torsions:
REMARK  status: ('A' for Active; 'I' for Inactive)
REMARK    1  A    between atoms: C_2  and  C_3
REMARK    2  A    between atoms: C_3  and  C_4
REMARK    3  A    between atoms: C_9  and  C_10
REMARK    4  A    between atoms: C_10  and  C_11
REMARK    5  A    between atoms: C_14  and  C_15
REMARK    6  A    between atoms: C_15  and  C_16
REMARK    7  A    between atoms: N_23  and  C_24
REMARK                            x       y       z     vdW  Elec       q    Type
REMARK                         _______ _______ _______ _____ _____    ______ ____
ROOT
ATOM      4  C   UNL     1      -4.070   2.874  24.846  0.00  0.00    +0.012 C 
ATOM      5  C   UNL     1      -4.423   3.477  25.285  0.00  0.00    +0.019 C 
ATOM      6  C   UNL     1      -5.142   3.344  25.667  0.00  0.00    +0.089 C 
ATOM      7  N   UNL     1      -5.509   2.607  25.609  0.00  0.00    -0.218 NA
ATOM      8  C   UNL     1      -5.156   2.003  25.170  0.00  0.00    +0.089 C 
ATOM      9  C   UNL     1      -4.437   2.137  24.789  0.00  0.00    +0.024 C 
ENDROOT
BRANCH   4   3
ATOM      3  C   UNL     1      -3.351   3.007  24.464  0.00  0.00    +0.087 C 
BRANCH   3   2
ATOM      1  O   UNL     1      -3.278   4.435  24.452  0.00  0.00    -0.273 OA
ATOM      2  C   UNL     1      -2.931   3.703  24.608  0.00  0.00    +0.241 C 
ATOM     23  N   UNL     1      -2.163   3.667  24.908  0.00  0.00    -0.207 NA
BRANCH  23  24
ATOM     24  C   UNL     1      -1.743   4.362  25.052  0.00  0.00    +0.095 C 
ATOM     25  C   UNL     1      -1.042   4.795  25.008  0.00  0.00    +0.023 C 
ATOM     26  C   UNL     1      -1.715   5.132  25.346  0.00  0.00    +0.023 C 
ENDBRANCH  23  24
ENDBRANCH   3   2
ENDBRANCH   4   3
BRANCH   9  10
ATOM     10  C   UNL     1      -4.084   1.534  24.350  0.00  0.00    +0.051 C 
BRANCH  10  11
ATOM     11  C   UNL     1      -4.167   0.748  24.588  0.00  0.00    +0.100 A 
ATOM     12  N   UNL     1      -4.801   0.251  24.406  0.00  0.00    -0.082 NA
ATOM     13  O   UNL     1      -4.657  -0.482  24.754  0.00  0.00    -0.358 OA
ATOM     14  C   UNL     1      -3.935  -0.439  25.151  0.00  0.00    +0.154 A 
ATOM     22  C   UNL     1      -3.632   0.321  25.048  0.00  0.00    +0.054 A 
BRANCH  14  15
ATOM     15  C   UNL     1      -3.578  -1.050  25.577  0.00  0.00    +0.067 C 
BRANCH  15  16
ATOM     16  C   UNL     1      -3.176  -1.650  25.179  0.00  0.00    +0.008 C 
ATOM     17  C   UNL     1      -2.365  -1.582  25.042  0.00  0.00    +0.000 C 
ATOM     18  C   UNL     1      -1.963  -2.182  24.645  0.00  0.00    +0.000 C 
ATOM     19  C   UNL     1      -2.371  -2.851  24.385  0.00  0.00    +0.000 C 
ATOM     20  C   UNL     1      -3.181  -2.919  24.522  0.00  0.00    +0.000 C 
ATOM     21  C   UNL     1      -3.583  -2.318  24.920  0.00  0.00    +0.000 C 
ENDBRANCH  15  16
ENDBRANCH  14  15
ENDBRANCH  10  11
ENDBRANCH   9  10
TORSDOF 7
ENDMDL
MODEL 2
REMARK VINA RESULT:     -11.5      0.976      5.036
REMARK  Name = 
REMARK  7 active torsions:
REMARK  status: ('A' for Active; 'I' for Inactive)
REMARK    1  A    between atoms: C_2  and  C_3
REMARK    2  A    between atoms: C_3  and  C_4
REMARK    3  A    between atoms: C_9  and  C_10
REMARK    4  A    between atoms: C_10  and  C_11
REMARK    5  A    between atoms: C_14  and  C_15
REMARK    6  A    between atoms: C_15  and  C_16
REMARK    7  A    between atoms: N_23  and  C_24
REMARK                            x       y       z     vdW  Elec       q    Type
REMARK                         _______ _______ _______ _____ _____    ______ ____
ROOT
ATOM      4  C   UNL     1      -4.690   1.031  24.820  0.00  0.00    +0.012 C 
ATOM      5  C   UNL     1      -5.306   0.669  25.231  0.00  0.00    +0.019 C 
ATOM      6  C   UNL     1      -5.954   1.115  25.481  0.00  0.00    +0.089 C 
ATOM      7  N   UNL     1      -5.984   1.923  25.320  0.00  0.00    -0.218 NA
ATOM      8  C   UNL     1      -5.367   2.286  24.909  0.00  0.00    +0.089 C 
ATOM      9  C   UNL     1      -4.720   1.840  24.660  0.00  0.00    +0.024 C 
ENDROOT
BRANCH   4   3
ATOM      3  C   UNL     1      -4.042   0.585  24.570  0.00  0.00    +0.087 C 
BRANCH   3   2
ATOM      1  O   UNL     1      -4.154  -0.577  25.396  0.00  0.00    -0.273 OA
ATOM      2  C   UNL     1      -4.051  -0.236  24.651  0.00  0.00    +0.241 C 
ATOM     23  N   UNL     1      -3.957  -0.717  23.987  0.00  0.00    -0.207 NA
BRANCH  23  24
ATOM     24  C   UNL     1      -3.966  -1.538  24.068  0.00  0.00    +0.095 C 
ATOM     25  C   UNL     1      -3.623  -2.231  24.356  0.00  0.00    +0.023 C 
ATOM     26  C   UNL     1      -4.323  -2.266  23.920  0.00  0.00    +0.023 C 
ENDBRANCH  23  24
ENDBRANCH   3   2
ENDBRANCH   4   3
BRANCH   9  10
ATOM     10  C   UNL     1      -4.102   2.203  24.249  0.00  0.00    +0.051 C 
BRANCH  10  11
ATOM     11  C   UNL     1      -3.801   2.925  24.510  0.00  0.00    +0.100 A 
ATOM     12  N   UNL     1      -4.055   3.672  24.269  0.00  0.00    -0.082 NA
ATOM     13  O   UNL     1      -3.604   4.235  24.668  0.00  0.00    -0.358 OA
ATOM     14  C   UNL     1      -3.072   3.837  25.156  0.00  0.00    +0.154 A 
ATOM     22  C   UNL     1      -3.194   3.027  25.059  0.00  0.00    +0.054 A 
BRANCH  14  15
ATOM     15  C   UNL     1      -2.515   4.187  25.655  0.00  0.00    +0.067 C 
BRANCH  15  16
ATOM     16  C   UNL     1      -1.783   4.421  25.357  0.00  0.00    +0.008 C 
ATOM     17  C   UNL     1      -1.661   5.206  25.132  0.00  0.00    +0.000 C 
ATOM     18  C   UNL     1      -0.929   5.440  24.834  0.00  0.00    +0.000 C 
ATOM     19  C   UNL     1      -0.318   4.890  24.760  0.00  0.00    +0.000 C 
ATOM     20  C   UNL     1      -0.439   4.106  24.985  0.00  0.00    +0.000 C 
ATOM     21  C   UNL     1      -1.172   3.872  25.283  0.00  0.00    +0.000 C 
ENDBRANCH  15  16
ENDBRANCH  14  15
ENDBRANCH  10  11
ENDBRANCH   9  10
TORSDOF 7
ENDMDL
MODEL 3
REMARK VINA RESULT:     -11.5      2.361      3.097
REMARK  Name = 
REMARK  7 active torsions:
REMARK  status: ('A' for Active; 'I' for Inactive)
REMARK    1  A    between atoms: C_2  and  C_3
REMARK    2  A    between atoms: C_3  and  C_4
REMARK    3  A    between atoms: C_9  and  C_10
REMARK    4  A    between atoms: C_10  and  C_11
REMARK    5  A    between atoms: C_14  and  C_15
REMARK    6  A    between atoms: C_15  and  C_16
REMARK    7  A    between atoms: N_23  and  C_24
REMARK                            x       y       z     vdW  Elec       q    Type
REMARK                         _______ _______ _______ _____ _____    ______ ____
ROOT
ATOM      4  C   UNL     1      -0.498   1.622  24.978  0.00  0.00    +0.012 C 
ATOM      5  C   UNL     1      -0.128   1.902  24.297  0.00  0.00    +0.019 C 
ATOM      6  C   UNL     1       0.097   1.375  23.702  0.00  0.00    +0.089 C 
ATOM      7  N   UNL     1      -0.049   0.568  23.790  0.00  0.00    -0.218 NA
ATOM      8  C   UNL     1      -0.419   0.287  24.473  0.00  0.00    +0.089 C 
ATOM      9  C   UNL     1      -0.643   0.814  25.066  0.00  0.00    +0.024 C 
ENDROOT
BRANCH   4   3
ATOM      3  C   UNL     1      -0.722   2.148  25.573  0.00  0.00    +0.087 C 
BRANCH   3   2
ATOM      1  O   UNL     1       0.033   3.340  25.348  0.00  0.00    -0.273 OA
ATOM      2  C   UNL     1      -0.695   2.961  25.435  0.00  0.00    +0.241 C 
ATOM     23  N   UNL     1      -1.394   3.395  25.385  0.00  0.00    -0.207 NA
BRANCH  23  24
ATOM     24  C   UNL     1      -1.366   4.208  25.247  0.00  0.00    +0.095 C 
ATOM     25  C   UNL     1      -1.713   4.955  25.306  0.00  0.00    +0.023 C 
ATOM     26  C   UNL     1      -0.973   4.869  24.951  0.00  0.00    +0.023 C 
ENDBRANCH  23  24
ENDBRANCH   3   2
ENDBRANCH   4   3
BRANCH   9  10
ATOM     10  C   UNL     1      -1.013   0.533  25.749  0.00  0.00    +0.051 C 
BRANCH  10  11
ATOM     11  C   UNL     1      -1.450  -0.166  25.723  0.00  0.00    +0.100 A 
ATOM     12  N   UNL     1      -1.141  -0.929  25.658  0.00  0.00    -0.082 NA
ATOM     13  O   UNL     1      -1.772  -1.459  25.653  0.00  0.00    -0.358 OA
ATOM     14  C   UNL     1      -2.471  -1.025  25.714  0.00  0.00    +0.154 A 
ATOM     22  C   UNL     1      -2.272  -0.226  25.758  0.00  0.00    +0.054 A 
BRANCH  14  15
ATOM     15  C   UNL     1      -3.235  -1.336  25.730  0.00  0.00    +0.067 C 
BRANCH  15  16
ATOM     16  C   UNL     1      -3.553  -1.687  25.054  0.00  0.00    +0.008 C 
ATOM     17  C   UNL     1      -3.977  -1.230  24.513  0.00  0.00    +0.000 C 
ATOM     18  C   UNL     1      -4.294  -1.581  23.838  0.00  0.00    +0.000 C 
ATOM     19  C   UNL     1      -4.187  -2.388  23.702  0.00  0.00    +0.000 C 
ATOM     20  C   UNL     1      -3.763  -2.844  24.243  0.00  0.00    +0.000 C 
ATOM     21  C   UNL     1      -3.446  -2.493  24.919  0.00  0.00    +0.000 C 
ENDBRANCH  15  16
ENDBRANCH  14  15
ENDBRANCH  10  11
ENDBRANCH   9  10
TORSDOF 7
ENDMDL
MODEL 4
REMARK VINA RESULT:     -10.9      1.600      1.892
REMARK  Name = 
REMARK  7 active torsions:
REMARK  status: ('A' for Active; 'I' for Inactive)
REMARK    1  A    between atoms: C_2  and  C_3
REMARK    2  A    between atoms: C_3  and  C_4
REMARK    3  A    between atoms: C_9  and  C_10
REMARK    4  A    between atoms: C_10  and  C_11
REMARK    5  A    between atoms: C_14  and  C_15
REMARK    6  A    between atoms: C_15  and  C_16
REMARK    7  A    between atoms: N_23  and  C_24
REMARK                            x       y       z     vdW  Elec       q    Type
REMARK                         _______ _______ _______ _____ _____    ______ ____
ROOT
ATOM      4  C   UNL     1      -2.766   2.451  24.215  0.00  0.00    +0.012 C 
ATOM      5  C   UNL     1      -3.063   2.785  23.522  0.00  0.00    +0.019 C 
ATOM      6  C   UNL     1      -3.087   2.341  22.827  0.00  0.00    +0.089 C 
ATOM      7  N   UNL     1      -2.816   1.562  22.826  0.00  0.00    -0.218 NA
ATOM      8  C   UNL     1      -2.519   1.227  23.520  0.00  0.00    +0.089 C 
ATOM      9  C   UNL     1      -2.495   1.672  24.214  0.00  0.00    +0.024 C 
ENDROOT
BRANCH   4   3
ATOM      3  C   UNL     1      -2.741   2.896  24.910  0.00  0.00    +0.087 C 
BRANCH   3   2
ATOM      1  O   UNL     1      -3.048   4.254  24.586  0.00  0.00    -0.273 OA
ATOM      2  C   UNL     1      -2.522   3.690  24.883  0.00  0.00    +0.241 C 
ATOM     23  N   UNL     1      -1.778   3.923  25.152  0.00  0.00    -0.207 NA
BRANCH  23  24
ATOM     24  C   UNL     1      -1.559   4.718  25.125  0.00  0.00    +0.095 C 
ATOM     25  C   UNL     1      -1.011   5.301  24.925  0.00  0.00    +0.023 C 
ATOM     26  C   UNL     1      -1.726   5.510  25.278  0.00  0.00    +0.023 C 
ENDBRANCH  23  24
ENDBRANCH   3   2
ENDBRANCH   4   3
BRANCH   9  10
ATOM     10  C   UNL     1      -2.198   1.338  24.908  0.00  0.00    +0.051 C 
BRANCH  10  11
ATOM     11  C   UNL     1      -2.252   0.523  25.030  0.00  0.00    +0.100 A 
ATOM     12  N   UNL     1      -1.644  -0.025  24.919  0.00  0.00    -0.082 NA
ATOM     13  O   UNL     1      -1.939  -0.772  25.104  0.00  0.00    -0.358 OA
ATOM     14  C   UNL     1      -2.729  -0.687  25.328  0.00  0.00    +0.154 A 
ATOM     22  C   UNL     1      -2.922   0.114  25.282  0.00  0.00    +0.054 A 
BRANCH  14  15
ATOM     15  C   UNL     1      -3.236  -1.296  25.558  0.00  0.00    +0.067 C 
BRANCH  15  16
ATOM     16  C   UNL     1      -3.508  -1.840  25.000  0.00  0.00    +0.008 C 
ATOM     17  C   UNL     1      -3.199  -2.606  24.988  0.00  0.00    +0.000 C 
ATOM     18  C   UNL     1      -3.470  -3.150  24.431  0.00  0.00    +0.000 C 
ATOM     19  C   UNL     1      -4.050  -2.929  23.886  0.00  0.00    +0.000 C 
ATOM     20  C   UNL     1      -4.358  -2.165  23.899  0.00  0.00    +0.000 C 
ATOM     21  C   UNL     1      -4.087  -1.620  24.457  0.00  0.00    +0.000 C 
ENDBRANCH  15  16
ENDBRANCH  14  15
ENDBRANCH  10  11
ENDBRANCH   9  10
TORSDOF 7
ENDMDL
MODEL 5
REMARK VINA RESULT:     -10.3      1.848      5.379
REMARK  Name = 
REMARK  7 active torsions:
REMARK  status: ('A' for Active; 'I' for Inactive)
REMARK    1  A    between atoms: C_2  and  C_3
REMARK    2  A    between atoms: C_3  and  C_4
REMARK    3  A    between atoms: C_9  and  C_10
REMARK    4  A    between atoms: C_10  and  C_11
REMARK    5  A    between atoms: C_14  and  C_15
REMARK    6  A    between atoms: C_15  and  C_16
REMARK    7  A    between atoms: N_23  and  C_24
REMARK                            x       y       z     vdW  Elec       q    Type
REMARK                         _______ _______ _______ _____ _____    ______ ____
ROOT
ATOM      4  C   UNL     1      -1.079  -0.370  24.849  0.00  0.00    +0.012 C 
ATOM      5  C   UNL     1      -0.590  -0.795  24.339  0.00  0.00    +0.019 C 
ATOM      6  C   UNL     1      -0.060  -0.397  23.848  0.00  0.00    +0.089 C 
ATOM      7  N   UNL     1      -0.019   0.427  23.868  0.00  0.00    -0.218 NA
ATOM      8  C   UNL     1      -0.508   0.852  24.379  0.00  0.00    +0.089 C 
ATOM      9  C   UNL     1      -1.038   0.453  24.869  0.00  0.00    +0.024 C 
ENDROOT
BRANCH   4   3
ATOM      3  C   UNL     1      -1.610  -0.768  25.340  0.00  0.00    +0.087 C 
BRANCH   3   2
ATOM      1  O   UNL     1      -1.527  -2.112  24.859  0.00  0.00    -0.273 OA
ATOM      2  C   UNL     1      -1.980  -1.456  25.075  0.00  0.00    +0.241 C 
ATOM     23  N   UNL     1      -2.802  -1.490  25.025  0.00  0.00    -0.207 NA
BRANCH  23  24
ATOM     24  C   UNL     1      -3.172  -2.178  24.760  0.00  0.00    +0.095 C 
ATOM     25  C   UNL     1      -3.367  -2.972  24.870  0.00  0.00    +0.023 C 
ATOM     26  C   UNL     1      -3.618  -2.576  24.192  0.00  0.00    +0.023 C 
ENDBRANCH  23  24
ENDBRANCH   3   2
ENDBRANCH   4   3
BRANCH   9  10
ATOM     10  C   UNL     1      -1.528   0.879  25.380  0.00  0.00    +0.051 C 
BRANCH  10  11
ATOM     11  C   UNL     1      -1.853   1.597  25.136  0.00  0.00    +0.100 A 
ATOM     12  N   UNL     1      -1.516   2.343  25.242  0.00  0.00    -0.082 NA
ATOM     13  O   UNL     1      -2.027   2.902  24.916  0.00  0.00    -0.358 OA
ATOM     14  C   UNL     1      -2.679   2.502  24.608  0.00  0.00    +0.154 A 
ATOM     22  C   UNL     1      -2.572   1.696  24.744  0.00  0.00    +0.054 A 
BRANCH  14  15
ATOM     15  C   UNL     1      -3.327   2.848  24.231  0.00  0.00    +0.067 C 
BRANCH  15  16
ATOM     16  C   UNL     1      -4.037   2.950  24.638  0.00  0.00    +0.008 C 
ATOM     17  C   UNL     1      -4.629   2.378  24.582  0.00  0.00    +0.000 C 
ATOM     18  C   UNL     1      -5.339   2.480  24.988  0.00  0.00    +0.000 C 
ATOM     19  C   UNL     1      -5.458   3.153  25.451  0.00  0.00    +0.000 C 
ATOM     20  C   UNL     1      -4.866   3.724  25.507  0.00  0.00    +0.000 C 
ATOM     21  C   UNL     1      -4.155   3.622  25.100  0.00  0.00    +0.000 C 
ENDBRANCH  15  16
ENDBRANCH  14  15
ENDBRANCH  10  11
ENDBRANCH   9  10
TORSDOF 7
ENDMDL
