MODEL 1
REMARK VINA RESULT:     -12.5      0.000      0.000
REMARK  Name = 
REMARK  5 active torsions:
REMARK  status: ('A' for Active; 'I' for Inactive)
REMARK    1  A    between atoms: C_7  and  C_8
REMARK    2  A    between atoms: C_8  and  N_9
REMARK    3  A    between atoms: C_13  and  C_14
REMARK    4  A    between atoms: C_16  and  C_19
REMARK    5  A    between atoms: C_22  and  C_25
REMARK                            x       y       z     vdW  Elec       q    Type
REMARK                         _______ _______ _______ _____ _____    ______ ____
ROOT
ATOM     14  C   UNL     1      -3.901   2.790  25.078  0.00  0.00    +0.251 A 
ATOM     15  N   UNL     1      -3.752   1.997  25.249  0.00  0.00    -0.190 NA
ATOM     16  C   UNL     1      -4.000   1.546  24.605  0.00  0.00    +0.205 A 
ATOM     17  N   UNL     1      -4.302   2.059  24.036  0.00  0.00    -0.056 NA
ATOM     18  O   UNL     1      -4.242   2.828  24.327  0.00  0.00    -0.336 OA
ENDROOT
BRANCH  16  19
ATOM     19  C   UNL     1      -3.953   0.724  24.542  0.00  0.00    +0.058 A 
ATOM     20  C   UNL     1      -4.353   0.246  25.083  0.00  0.00    +0.006 A 
ATOM     21  C   UNL     1      -4.307  -0.576  25.019  0.00  0.00    +0.019 A 
ATOM     22  C   UNL     1      -3.860  -0.918  24.416  0.00  0.00    +0.081 A 
ATOM     23  N   UNL     1      -3.460  -0.440  23.876  0.00  0.00    -0.244 NA
ATOM     24  C   UNL     1      -3.507   0.381  23.939  0.00  0.00    +0.102 A 
BRANCH  22  25
ATOM     25  C   UNL     1      -3.814  -1.740  24.353  0.00  0.00    +0.021 A 
ATOM     26  C   UNL     1      -3.309  -2.163  24.850  0.00  0.00    +0.022 A 
ATOM     27  C   UNL     1      -3.263  -2.985  24.787  0.00  0.00    +0.099 A 
ATOM     28  N   UNL     1      -3.720  -3.382  24.227  0.00  0.00    -0.242 NA
ATOM     29  C   UNL     1      -4.224  -2.959  23.730  0.00  0.00    +0.099 A 
ATOM     30  C   UNL     1      -4.271  -2.137  23.793  0.00  0.00    +0.022 A 
ENDBRANCH  22  25
ENDBRANCH  16  19
BRANCH  14  13
ATOM      9  N   UNL     1      -3.004   3.790  25.672  0.00  0.00    -0.263 NA
ATOM     10  C   UNL     1      -3.092   4.408  26.212  0.00  0.00    +0.073 C 
ATOM     11  C   UNL     1      -3.884   4.431  26.443  0.00  0.00    +0.019 C 
ATOM     12  C   UNL     1      -4.284   3.828  26.046  0.00  0.00    +0.027 C 
ATOM     13  C   UNL     1      -3.739   3.432  25.570  0.00  0.00    +0.138 C 
BRANCH   9   8
ATOM      8  C   UNL     1      -2.301   3.569  25.301  0.00  0.00    +0.099 C 
BRANCH   8   7
ATOM      1  C   UNL     1      -0.720   3.114  25.180  0.00  0.00    +0.031 C 
ATOM      2  C   UNL     1      -0.928   3.907  25.088  0.00  0.00    -0.024 A 
ATOM      3  C   UNL     1      -0.347   4.473  24.935  0.00  0.00    -0.005 A 
ATOM      4  C   UNL     1      -0.557   5.265  24.843  0.00  0.00    -0.000 A 
ATOM      5  C   UNL     1      -1.347   5.492  24.903  0.00  0.00    -0.000 A 
ATOM      6  C   UNL     1      -1.929   4.928  25.056  0.00  0.00    -0.003 A 
ATOM      7  C   UNL     1      -1.719   4.134  25.148  0.00  0.00    -0.010 A 
ENDBRANCH   8   7
ENDBRANCH   9   8
ENDBRANCH  14  13
TORSDOF 5
ENDMDL
MODEL 2
REMARK VINA RESULT:     -11.6      1.940      6.267
REMARK  Name = 
REMARK  5 active torsions:
REMARK  status: ('A' for Active; 'I' for Inactive)
REMARK    1  A    between atoms: C_7  and  C_8
REMARK    2  A    between atoms: C_8  and  N_9
REMARK    3  A    between atoms: C_13  and  C_14
REMARK    4  A    between atoms: C_16  and  C_19
REMARK    5  A    between atoms: C_22  and  C_25
REMARK                            x       y       z     vdW  Elec       q    Type
REMARK                         _______ _______ _______ _____ _____    ______ ____
ROOT
ATOM     14  C   UNL     1      -0.741  -0.418  24.574  0.00  0.00    +0.251 A 
ATOM     15  N   UNL     1      -1.011   0.297  24.886  0.00  0.00    -0.190 NA
ATOM     16  C   UNL     1      -0.688   0.909  24.437  0.00  0.00    +0.205 A 
ATOM     17  N   UNL     1      -0.219   0.573  23.849  0.00  0.00    -0.056 NA
ATOM     18  O   UNL     1      -0.251  -0.246  23.933  0.00  0.00    -0.336 OA
ENDROOT
BRANCH  16  19
ATOM     19  C   UNL     1      -0.813   1.716  24.557  0.00  0.00    +0.058 A 
ATOM     20  C   UNL     1      -0.532   2.079  25.242  0.00  0.00    +0.006 A 
ATOM     21  C   UNL     1      -0.657   2.886  25.362  0.00  0.00    +0.019 A 
ATOM     22  C   UNL     1      -1.062   3.329  24.796  0.00  0.00    +0.081 A 
ATOM     23  N   UNL     1      -1.343   2.966  24.111  0.00  0.00    -0.244 NA
ATOM     24  C   UNL     1      -1.218   2.159  23.991  0.00  0.00    +0.102 A 
BRANCH  22  25
ATOM     25  C   UNL     1      -1.187   4.136  24.916  0.00  0.00    +0.021 A 
ATOM     26  C   UNL     1      -0.615   4.681  24.680  0.00  0.00    +0.022 A 
ATOM     27  C   UNL     1      -0.740   5.488  24.799  0.00  0.00    +0.099 A 
ATOM     28  N   UNL     1      -1.437   5.750  25.155  0.00  0.00    -0.242 NA
ATOM     29  C   UNL     1      -2.009   5.205  25.392  0.00  0.00    +0.099 A 
ATOM     30  C   UNL     1      -1.884   4.398  25.272  0.00  0.00    +0.022 A 
ENDBRANCH  22  25
ENDBRANCH  16  19
BRANCH  14  13
ATOM      9  N   UNL     1      -1.671  -1.526  24.828  0.00  0.00    -0.263 NA
ATOM     10  C   UNL     1      -1.608  -2.276  25.167  0.00  0.00    +0.073 C 
ATOM     11  C   UNL     1      -0.824  -2.383  25.403  0.00  0.00    +0.019 C 
ATOM     12  C   UNL     1      -0.404  -1.700  25.209  0.00  0.00    +0.027 C 
ATOM     13  C   UNL     1      -0.928  -1.170  24.854  0.00  0.00    +0.138 C 
BRANCH   9   8
ATOM      8  C   UNL     1      -2.358  -1.191  24.518  0.00  0.00    +0.099 C 
BRANCH   8   7
ATOM      1  C   UNL     1      -3.815  -0.506  24.157  0.00  0.00    +0.031 C 
ATOM      2  C   UNL     1      -3.735  -1.328  24.160  0.00  0.00    -0.024 A 
ATOM      3  C   UNL     1      -4.383  -1.807  23.982  0.00  0.00    -0.005 A 
ATOM      4  C   UNL     1      -4.303  -2.627  23.984  0.00  0.00    -0.000 A 
ATOM      5  C   UNL     1      -3.574  -2.970  24.165  0.00  0.00    -0.000 A 
ATOM      6  C   UNL     1      -2.926  -2.492  24.342  0.00  0.00    -0.003 A 
ATOM      7  C   UNL     1      -3.007  -1.670  24.340  0.00  0.00    -0.010 A 
ENDBRANCH   8   7
ENDBRANCH   9   8
ENDBRANCH  14  13
TORSDOF 5
ENDMDL
MODEL 3
REMARK VINA RESULT:     -11.0      1.642      2.436
REMARK  Name = 
REMARK  5 active torsions:
REMARK  status: ('A' for Active; 'I' for Inactive)
REMARK    1  A    between atoms: C_7  and  C_8
REMARK    2  A    between atoms: C_8  and  N_9
REMARK    3  A    between atoms: C_13  and  C_14
REMARK    4  A    between atoms: C_16  and  C_19
REMARK    5  A    between atoms: C_22  and  C_25
REMARK                            x       y       z     vdW  Elec       q    Type
REMARK                         _______ _______ _______ _____ _____    ______ ____
ROOT
ATOM     14  C   UNL     1      -0.534   1.553  25.254  0.00  0.00    +0.251 A 
ATOM     15  N   UNL     1      -1.135   1.003  25.385  0.00  0.00    -0.190 NA
ATOM     16  C   UNL     1      -1.182   0.514  24.723  0.00  0.00    +0.205 A 
ATOM     17  N   UNL     1      -0.611   0.761  24.182  0.00  0.00    -0.056 NA
ATOM     18  O   UNL     1      -0.210   1.402  24.510  0.00  0.00    -0.336 OA
ENDROOT
BRANCH  16  19
ATOM     19  C   UNL     1      -1.709  -0.113  24.619  0.00  0.00    +0.058 A 
ATOM     20  C   UNL     1      -2.518   0.036  24.547  0.00  0.00    +0.006 A 
ATOM     21  C   UNL     1      -3.045  -0.590  24.444  0.00  0.00    +0.019 A 
ATOM     22  C   UNL     1      -2.763  -1.365  24.412  0.00  0.00    +0.081 A 
ATOM     23  N   UNL     1      -1.955  -1.514  24.483  0.00  0.00    -0.244 NA
ATOM     24  C   UNL     1      -1.428  -0.887  24.587  0.00  0.00    +0.102 A 
BRANCH  22  25
ATOM     25  C   UNL     1      -3.290  -1.992  24.308  0.00  0.00    +0.021 A 
ATOM     26  C   UNL     1      -3.138  -2.721  24.663  0.00  0.00    +0.022 A 
ATOM     27  C   UNL     1      -3.665  -3.347  24.559  0.00  0.00    +0.099 A 
ATOM     28  N   UNL     1      -4.343  -3.245  24.101  0.00  0.00    -0.242 NA
ATOM     29  C   UNL     1      -4.495  -2.516  23.746  0.00  0.00    +0.099 A 
ATOM     30  C   UNL     1      -3.968  -1.889  23.849  0.00  0.00    +0.022 A 
ENDBRANCH  22  25
ENDBRANCH  16  19
BRANCH  14  13
ATOM      9  N   UNL     1      -0.655   2.886  25.860  0.00  0.00    -0.263 NA
ATOM     10  C   UNL     1      -0.243   3.304  26.440  0.00  0.00    +0.073 C 
ATOM     11  C   UNL     1       0.369   2.822  26.713  0.00  0.00    +0.019 C 
ATOM     12  C   UNL     1       0.335   2.108  26.302  0.00  0.00    +0.027 C 
ATOM     13  C   UNL     1      -0.299   2.147  25.775  0.00  0.00    +0.138 C 
BRANCH   9   8
ATOM      8  C   UNL     1      -1.309   3.160  25.439  0.00  0.00    +0.099 C 
BRANCH   8   7
ATOM      1  C   UNL     1      -2.761   3.879  25.750  0.00  0.00    +0.031 C 
ATOM      2  C   UNL     1      -2.132   4.329  25.462  0.00  0.00    -0.024 A 
ATOM      3  C   UNL     1      -2.228   5.137  25.329  0.00  0.00    -0.005 A 
ATOM      4  C   UNL     1      -1.599   5.586  25.042  0.00  0.00    -0.000 A 
ATOM      5  C   UNL     1      -0.873   5.226  24.886  0.00  0.00    -0.000 A 
ATOM      6  C   UNL     1      -0.776   4.418  25.018  0.00  0.00    -0.003 A 
ATOM      7  C   UNL     1      -1.406   3.969  25.306  0.00  0.00    -0.010 A 
ENDBRANCH   8   7
ENDBRANCH   9   8
ENDBRANCH  14  13
TORSDOF 5
ENDMDL
MODEL 4
REMARK VINA RESULT:     -10.5      3.074      5.586
REMARK  Name = 
REMARK  5 active torsions:
REMARK  status: ('A' for Active; 'I' for Inactive)
REMARK    1  A    between atoms: C_7  and  C_8
REMARK    2  A    between atoms: C_8  and  N_9
REMARK    3  A    between atoms: C_13  and  C_14
REMARK    4  A    between atoms: C_16  and  C_19
REMARK    5  A    between atoms: C_22  and  C_25
REMARK                            x       y       z     vdW  Elec       q    Type
REMARK                         _______ _______ _______ _____ _____    ______ ____
ROOT
ATOM     14  C   UNL     1      -2.265   0.896  24.852  0.00  0.00    +0.251 A 
ATOM     15  N   UNL     1      -1.711   0.743  24.260  0.00  0.00    -0.190 NA
ATOM     16  C   UNL     1      -0.959   0.864  24.577  0.00  0.00    +0.205 A 
ATOM     17  N   UNL     1      -1.049   1.090  25.365  0.00  0.00    -0.056 NA
ATOM     18  O   UNL     1      -1.855   1.110  25.534  0.00  0.00    -0.336 OA
ENDROOT
BRANCH  16  19
ATOM     19  C   UNL     1      -0.243   0.774  24.177  0.00  0.00    +0.058 A 
ATOM     20  C   UNL     1      -0.056   0.051  23.826  0.00  0.00    +0.006 A 
ATOM     21  C   UNL     1       0.660  -0.039  23.425  0.00  0.00    +0.019 A 
ATOM     22  C   UNL     1       1.188   0.593  23.376  0.00  0.00    +0.081 A 
ATOM     23  N   UNL     1       1.001   1.315  23.727  0.00  0.00    -0.244 NA
ATOM     24  C   UNL     1       0.285   1.406  24.128  0.00  0.00    +0.102 A 
BRANCH  22  25
ATOM     25  C   UNL     1       1.904   0.502  22.976  0.00  0.00    +0.021 A 
ATOM     26  C   UNL     1       1.952  -0.004  22.326  0.00  0.00    +0.022 A 
ATOM     27  C   UNL     1       2.668  -0.094  21.925  0.00  0.00    +0.099 A 
ATOM     28  N   UNL     1       3.335   0.321  22.175  0.00  0.00    -0.242 NA
ATOM     29  C   UNL     1       3.288   0.827  22.825  0.00  0.00    +0.099 A 
ATOM     30  C   UNL     1       2.572   0.918  23.225  0.00  0.00    +0.022 A 
ENDBRANCH  22  25
ENDBRANCH  16  19
BRANCH  14  13
ATOM      9  N   UNL     1      -3.538   0.162  24.877  0.00  0.00    -0.263 NA
ATOM     10  C   UNL     1      -4.328   0.359  24.746  0.00  0.00    +0.073 C 
ATOM     11  C   UNL     1      -4.363   1.163  24.562  0.00  0.00    +0.019 C 
ATOM     12  C   UNL     1      -3.594   1.462  24.579  0.00  0.00    +0.027 C 
ATOM     13  C   UNL     1      -3.084   0.843  24.774  0.00  0.00    +0.138 C 
BRANCH   9   8
ATOM      8  C   UNL     1      -3.251  -0.585  25.076  0.00  0.00    +0.099 C 
BRANCH   8   7
ATOM      1  C   UNL     1      -3.068  -2.064  25.785  0.00  0.00    +0.031 C 
ATOM      2  C   UNL     1      -3.476  -1.997  25.070  0.00  0.00    -0.024 A 
ATOM      3  C   UNL     1      -3.792  -2.669  24.710  0.00  0.00    -0.005 A 
ATOM      4  C   UNL     1      -4.199  -2.602  23.996  0.00  0.00    -0.000 A 
ATOM      5  C   UNL     1      -4.290  -1.863  23.642  0.00  0.00    -0.000 A 
ATOM      6  C   UNL     1      -3.975  -1.190  24.001  0.00  0.00    -0.003 A 
ATOM      7  C   UNL     1      -3.567  -1.258  24.716  0.00  0.00    -0.010 A 
ENDBRANCH   8   7
ENDBRANCH   9   8
ENDBRANCH  14  13
TORSDOF 5
ENDMDL
MODEL 5
REMARK VINA RESULT:     -10.5      3.045      4.865
REMARK  Name = 
REMARK  5 active torsions:
REMARK  status: ('A' for Active; 'I' for Inactive)
REMARK    1  A    between atoms: C_7  and  C_8
REMARK    2  A    between atoms: C_8  and  N_9
REMARK    3  A    between atoms: C_13  and  C_14
REMARK    4  A    between atoms: C_16  and  C_19
REMARK    5  A    between atoms: C_22  and  C_25
REMARK                            x       y       z     vdW  Elec       q    Type
REMARK                         _______ _______ _______ _____ _____    ______ ____
ROOT
ATOM     14  C   UNL     1      -2.558   0.031  24.809  0.00  0.00    +0.251 A 
ATOM     15  N   UNL     1      -1.994   0.029  24.206  0.00  0.00    -0.190 NA
ATOM     16  C   UNL     1      -1.251   0.118  24.552  0.00  0.00    +0.205 A 
ATOM     17  N   UNL     1      -1.355   0.174  25.368  0.00  0.00    -0.056 NA
ATOM     18  O   UNL     1      -2.162   0.121  25.526  0.00  0.00    -0.336 OA
ENDROOT
BRANCH  16  19
ATOM     19  C   UNL     1      -0.530   0.145  24.152  0.00  0.00    +0.058 A 
ATOM     20  C   UNL     1      -0.222   0.870  23.908  0.00  0.00    +0.006 A 
ATOM     21  C   UNL     1       0.500   0.898  23.508  0.00  0.00    +0.019 A 
ATOM     22  C   UNL     1       0.912   0.201  23.352  0.00  0.00    +0.081 A 
ATOM     23  N   UNL     1       0.604  -0.525  23.597  0.00  0.00    -0.244 NA
ATOM     24  C   UNL     1      -0.117  -0.552  23.997  0.00  0.00    +0.102 A 
BRANCH  22  25
ATOM     25  C   UNL     1       1.634   0.228  22.952  0.00  0.00    +0.021 A 
ATOM     26  C   UNL     1       1.721  -0.166  22.233  0.00  0.00    +0.022 A 
ATOM     27  C   UNL     1       2.442  -0.138  21.833  0.00  0.00    +0.099 A 
ATOM     28  N   UNL     1       3.075   0.283  22.152  0.00  0.00    -0.242 NA
ATOM     29  C   UNL     1       2.988   0.676  22.872  0.00  0.00    +0.099 A 
ATOM     30  C   UNL     1       2.267   0.649  23.272  0.00  0.00    +0.022 A 
ENDBRANCH  22  25
ENDBRANCH  16  19
BRANCH  14  13
ATOM      9  N   UNL     1      -3.915   0.576  24.660  0.00  0.00    -0.263 NA
ATOM     10  C   UNL     1      -4.667   0.252  24.563  0.00  0.00    +0.073 C 
ATOM     11  C   UNL     1      -4.590  -0.570  24.552  0.00  0.00    +0.019 C 
ATOM     12  C   UNL     1      -3.791  -0.753  24.643  0.00  0.00    +0.027 C 
ATOM     13  C   UNL     1      -3.373  -0.044  24.710  0.00  0.00    +0.138 C 
BRANCH   9   8
ATOM      8  C   UNL     1      -3.735   1.380  24.701  0.00  0.00    +0.099 C 
BRANCH   8   7
ATOM      1  C   UNL     1      -3.674   2.924  24.122  0.00  0.00    +0.031 C 
ATOM      2  C   UNL     1      -4.290   2.695  24.622  0.00  0.00    -0.024 A 
ATOM      3  C   UNL     1      -4.875   3.238  24.832  0.00  0.00    -0.005 A 
ATOM      4  C   UNL     1      -5.490   3.009  25.331  0.00  0.00    -0.000 A 
ATOM      5  C   UNL     1      -5.521   2.237  25.621  0.00  0.00    -0.000 A 
ATOM      6  C   UNL     1      -4.936   1.694  25.411  0.00  0.00    -0.003 A 
ATOM      7  C   UNL     1      -4.320   1.923  24.911  0.00  0.00    -0.010 A 
ENDBRANCH   8   7
ENDBRANCH   9   8
ENDBRANCH  14  13
TORSDOF 5
ENDMDL
