REMARK  Name = 
REMARK  7 active torsions:
REMARK  status: ('A' for Active; 'I' for Inactive)
REMARK    1  A    between atoms: C_2  and  C_4
REMARK    2  A    between atoms: C_4  and  C_5
REMARK    3  A    between atoms: C_4  and  N_12
REMARK    4  A    between atoms: C_5  and  C_6
REMARK    5  A    between atoms: C_13  and  C_15
REMARK    6  A    between atoms: C_21  and  C_23
REMARK    7  A    between atoms: N_30  and  C_31
REMARK                            x       y       z     vdW  Elec       q    Type
REMARK                         _______ _______ _______ _____ _____    ______ ____
ROOT
ATOM     15  C   UNL     1       3.466  -2.949   0.000  0.00  0.00    +0.174 C 
ATOM     16  C   UNL     1       4.180  -2.537   0.000  0.00  0.00    +0.124 C 
ATOM     17  N   UNL     1       4.895  -2.949   0.000  0.00  0.00    -0.259 N 
ATOM     18  C   UNL     1       4.895  -3.774   0.000  0.00  0.00    +0.117 C 
ATOM     19  C   UNL     1       4.180  -4.187   0.000  0.00  0.00    +0.116 C 
ATOM     20  N   UNL     1       3.466  -3.774   0.000  0.00  0.00    -0.266 N 
ATOM     21  C   UNL     1       2.751  -4.187   0.000  0.00  0.00    +0.255 C 
ATOM     22  O   UNL     1       2.037  -3.774   0.000  0.00  0.00    -0.269 OA
ATOM     28  C   UNL     1       5.609  -2.537   0.000  0.00  0.00    +0.328 C 
ATOM     29  O   UNL     1       6.324  -2.949   0.000  0.00  0.00    -0.250 OA
ATOM     30  N   UNL     1       5.609  -1.712   0.000  0.00  0.00    -0.162 NA
ENDROOT
BRANCH  30  31
ATOM     31  C   UNL     1       6.324  -1.299   0.000  0.00  0.00    +0.075 A 
ATOM     32  C   UNL     1       6.324  -0.474   0.000  0.00  0.00    +0.017 A 
ATOM     33  C   UNL     1       7.038  -0.062   0.000  0.00  0.00    +0.001 A 
ATOM     34  C   UNL     1       7.753  -0.474   0.000  0.00  0.00    +0.000 A 
ATOM     35  C   UNL     1       7.753  -1.299   0.000  0.00  0.00    +0.001 A 
ATOM     36  C   UNL     1       7.038  -1.712   0.000  0.00  0.00    +0.017 A 
ENDBRANCH  30  31
BRANCH  21  23
ATOM     23  C   UNL     1       2.751  -5.012   0.000  0.00  0.00    +0.083 A 
ATOM     24  C   UNL     1       3.419  -5.497   0.000  0.00  0.00    +0.012 A 
ATOM     25  C   UNL     1       3.164  -6.281   0.000  0.00  0.00    +0.008 A 
ATOM     26  C   UNL     1       2.339  -6.281   0.000  0.00  0.00    +0.036 A 
ATOM     27  S   UNL     1       2.084  -5.497   0.000  0.00  0.00    -0.082 S 
ENDBRANCH  21  23
BRANCH  15  13
ATOM     12  N   UNL     1       2.037  -2.949   0.000  0.00  0.00    -0.196 NA
ATOM     13  C   UNL     1       2.751  -2.537   0.000  0.00  0.00    +0.262 C 
ATOM     14  O   UNL     1       2.751  -1.712   0.000  0.00  0.00    -0.271 OA
BRANCH  12   4
ATOM      4  C   UNL     1       1.322  -2.537   0.000  0.00  0.00    +0.174 C 
BRANCH   4   2
ATOM      1  N   UNL     1       2.037  -1.299   0.000  0.00  0.00    -0.086 NA
ATOM      2  C   UNL     1       1.322  -1.712   0.000  0.00  0.00    +0.281 C 
ATOM      3  O   UNL     1       0.608  -1.299   0.000  0.00  0.00    -0.270 OA
ENDBRANCH   4   2
BRANCH   4   5
ATOM      5  C   UNL     1       0.608  -2.949   0.000  0.00  0.00    +0.031 C 
BRANCH   5   6
ATOM      6  C   UNL     1      -0.107  -2.537   0.000  0.00  0.00    +0.002 C 
ATOM      7  C   UNL     1      -0.821  -2.949   0.000  0.00  0.00    +0.000 C 
ATOM      8  C   UNL     1      -1.536  -2.537   0.000  0.00  0.00    +0.000 C 
ATOM      9  C   UNL     1      -1.536  -1.712   0.000  0.00  0.00    +0.000 C 
ATOM     10  C   UNL     1      -0.821  -1.299   0.000  0.00  0.00    +0.000 C 
ATOM     11  C   UNL     1      -0.107  -1.712   0.000  0.00  0.00    +0.000 C 
ENDBRANCH   5   6
ENDBRANCH   4   5
ENDBRANCH  12   4
ENDBRANCH  15  13
TORSDOF 7
