MODEL 1
REMARK VINA RESULT:     -12.9      0.000      0.000
REMARK  Name = 
REMARK  8 active torsions:
REMARK  status: ('A' for Active; 'I' for Inactive)
REMARK    1  A    between atoms: N_2  and  C_4
REMARK    2  A    between atoms: C_4  and  C_5
REMARK    3  A    between atoms: C_5  and  N_6
REMARK    4  A    between atoms: C_7  and  C_9
REMARK    5  A    between atoms: C_9  and  C_10
REMARK    6  A    between atoms: C_15  and  C_17
REMARK    7  A    between atoms: C_28  and  C_30
REMARK    8  A    between atoms: C_30  and  C_31
REMARK                            x       y       z     vdW  Elec       q    Type
REMARK                         _______ _______ _______ _____ _____    ______ ____
ROOT
ATOM     10  C   UNL     1      -3.284  -0.038  24.400  0.00  0.00    +0.050 C 
ATOM     11  C   UNL     1      -2.580   0.271  24.701  0.00  0.00    +0.063 A 
ATOM     12  C   UNL     1      -1.975  -0.238  24.938  0.00  0.00    +0.023 A 
ATOM     13  C   UNL     1      -2.074  -1.053  24.874  0.00  0.00    +0.034 C 
ATOM     14  C   UNL     1      -2.777  -1.362  24.572  0.00  0.00    +0.010 C 
ATOM     15  C   UNL     1      -2.875  -2.179  24.508  0.00  0.00    +0.059 C 
ATOM     16  C   UNL     1      -2.115  -2.151  24.825  0.00  0.00    +0.005 C 
ATOM     19  C   UNL     1      -3.579  -2.486  24.207  0.00  0.00    +0.154 C 
ATOM     20  O   UNL     1      -3.678  -3.304  24.142  0.00  0.00    -0.223 OA
ATOM     21  C   UNL     1      -4.184  -1.978  23.970  0.00  0.00    +0.033 C 
ATOM     22  C   UNL     1      -4.085  -1.162  24.034  0.00  0.00    +0.003 C 
ATOM     23  C   UNL     1      -3.382  -0.853  24.335  0.00  0.00    +0.006 C 
ATOM     24  C   UNL     1      -3.987  -0.345  24.098  0.00  0.00    +0.000 C 
ATOM     25  S   UNL     1      -1.348   0.224  25.212  0.00  0.00    -0.054 S 
ATOM     26  C   UNL     1      -1.565   1.016  25.144  0.00  0.00    +0.185 A 
ATOM     27  N   UNL     1      -1.102   1.666  25.355  0.00  0.00    -0.154 NA
ATOM     28  C   UNL     1      -1.394   2.430  25.256  0.00  0.00    +0.247 C 
ATOM     29  O   UNL     1      -2.150   2.546  24.945  0.00  0.00    -0.273 OA
ATOM     35  N   UNL     1      -2.327   1.046  24.828  0.00  0.00    -0.227 NA
ENDROOT
BRANCH  15  17
ATOM     17  C   UNL     1      -2.709  -2.985  24.554  0.00  0.00    +0.184 C 
ATOM     18  O   UNL     1      -1.927  -3.243  24.597  0.00  0.00    -0.220 OA
ENDBRANCH  15  17
BRANCH  10   9
ATOM      9  C   UNL     1      -3.888   0.471  24.163  0.00  0.00    +0.093 C 
BRANCH   9   7
ATOM      6  N   UNL     1      -4.741   1.543  24.572  0.00  0.00    -0.204 NA
ATOM      7  C   UNL     1      -4.381   0.817  24.728  0.00  0.00    +0.242 C 
ATOM      8  O   UNL     1      -4.512   0.438  25.448  0.00  0.00    -0.273 OA
BRANCH   6   5
ATOM      5  C   UNL     1      -5.233   1.889  25.137  0.00  0.00    +0.132 C 
BRANCH   5   4
ATOM      4  C   UNL     1      -5.579   2.623  24.988  0.00  0.00    +0.096 C 
BRANCH   4   2
ATOM      1  C   UNL     1      -5.364   3.908  25.575  0.00  0.00    +0.090 C 
ATOM      2  N   UNL     1      -5.699   3.155  25.608  0.00  0.00    -0.269 NA
ATOM      3  C   UNL     1      -6.154   2.933  26.259  0.00  0.00    +0.090 C 
ENDBRANCH   4   2
ENDBRANCH   5   4
ENDBRANCH   6   5
ENDBRANCH   9   7
ENDBRANCH  10   9
BRANCH  28  30
ATOM     30  C   UNL     1      -0.932   3.080  25.467  0.00  0.00    +0.087 C 
BRANCH  30  31
ATOM     31  C   UNL     1      -1.204   3.845  25.324  0.00  0.00    +0.009 C 
ATOM     32  C   UNL     1      -1.477   4.611  25.181  0.00  0.00    +0.000 C 
ATOM     33  C   UNL     1      -1.690   3.797  25.989  0.00  0.00    +0.000 C 
ATOM     34  C   UNL     1      -0.719   3.895  24.659  0.00  0.00    +0.000 C 
ENDBRANCH  30  31
ENDBRANCH  28  30
TORSDOF 8
ENDMDL
MODEL 2
REMARK VINA RESULT:     -12.1      1.940      5.747
REMARK  Name = 
REMARK  8 active torsions:
REMARK  status: ('A' for Active; 'I' for Inactive)
REMARK    1  A    between atoms: N_2  and  C_4
REMARK    2  A    between atoms: C_4  and  C_5
REMARK    3  A    between atoms: C_5  and  N_6
REMARK    4  A    between atoms: C_7  and  C_9
REMARK    5  A    between atoms: C_9  and  C_10
REMARK    6  A    between atoms: C_15  and  C_17
REMARK    7  A    between atoms: C_28  and  C_30
REMARK    8  A    between atoms: C_30  and  C_31
REMARK                            x       y       z     vdW  Elec       q    Type
REMARK                         _______ _______ _______ _____ _____    ______ ____
ROOT
ATOM     10  C   UNL     1      -1.519   1.851  24.941  0.00  0.00    +0.050 C 
ATOM     11  C   UNL     1      -2.284   1.540  24.924  0.00  0.00    +0.063 A 
ATOM     12  C   UNL     1      -2.934   2.043  24.991  0.00  0.00    +0.023 A 
ATOM     13  C   UNL     1      -2.821   2.855  25.074  0.00  0.00    +0.034 C 
ATOM     14  C   UNL     1      -2.057   3.166  25.091  0.00  0.00    +0.010 C 
ATOM     15  C   UNL     1      -1.944   3.978  25.175  0.00  0.00    +0.059 C 
ATOM     16  C   UNL     1      -2.767   3.947  25.188  0.00  0.00    +0.005 C 
ATOM     19  C   UNL     1      -1.179   4.288  25.191  0.00  0.00    +0.154 C 
ATOM     20  O   UNL     1      -1.065   5.102  25.275  0.00  0.00    -0.223 OA
ATOM     21  C   UNL     1      -0.529   3.786  25.125  0.00  0.00    +0.033 C 
ATOM     22  C   UNL     1      -0.642   2.973  25.041  0.00  0.00    +0.003 C 
ATOM     23  C   UNL     1      -1.406   2.662  25.024  0.00  0.00    +0.006 C 
ATOM     24  C   UNL     1      -0.755   2.160  24.958  0.00  0.00    +0.000 C 
ATOM     25  S   UNL     1      -3.617   1.580  24.956  0.00  0.00    -0.054 S 
ATOM     26  C   UNL     1      -3.389   0.793  24.868  0.00  0.00    +0.185 A 
ATOM     27  N   UNL     1      -3.895   0.144  24.810  0.00  0.00    -0.154 NA
ATOM     28  C   UNL     1      -3.585  -0.615  24.724  0.00  0.00    +0.247 C 
ATOM     29  O   UNL     1      -2.768  -0.726  24.695  0.00  0.00    -0.273 OA
ATOM     35  N   UNL     1      -2.564   0.768  24.848  0.00  0.00    -0.227 NA
ENDROOT
BRANCH  15  17
ATOM     17  C   UNL     1      -2.116   4.780  25.263  0.00  0.00    +0.184 C 
ATOM     18  O   UNL     1      -2.822   5.013  25.623  0.00  0.00    -0.220 OA
ENDBRANCH  15  17
BRANCH  10   9
ATOM      9  C   UNL     1      -0.869   1.348  24.874  0.00  0.00    +0.093 C 
BRANCH   9   7
ATOM      6  N   UNL     1       0.044   0.608  24.061  0.00  0.00    -0.204 NA
ATOM      7  C   UNL     1      -0.600   1.119  24.128  0.00  0.00    +0.242 C 
ATOM      8  O   UNL     1      -0.974   1.401  23.450  0.00  0.00    -0.273 OA
BRANCH   6   5
ATOM      5  C   UNL     1       0.314   0.379  23.315  0.00  0.00    +0.132 C 
BRANCH   5   4
ATOM      4  C   UNL     1       0.898  -0.199  23.247  0.00  0.00    +0.096 C 
BRANCH   4   2
ATOM      1  C   UNL     1       2.187   0.144  22.736  0.00  0.00    +0.090 C 
ATOM      2  N   UNL     1       1.434  -0.172  22.620  0.00  0.00    -0.269 NA
ATOM      3  C   UNL     1       1.217  -0.461  21.880  0.00  0.00    +0.090 C 
ENDBRANCH   4   2
ENDBRANCH   5   4
ENDBRANCH   6   5
ENDBRANCH   9   7
ENDBRANCH  10   9
BRANCH  28  30
ATOM     30  C   UNL     1      -4.092  -1.264  24.666  0.00  0.00    +0.087 C 
BRANCH  30  31
ATOM     31  C   UNL     1      -3.790  -2.008  24.479  0.00  0.00    +0.009 C 
ATOM     32  C   UNL     1      -3.487  -2.753  24.291  0.00  0.00    +0.000 C 
ATOM     33  C   UNL     1      -3.515  -2.091  25.252  0.00  0.00    +0.000 C 
ATOM     34  C   UNL     1      -4.065  -1.925  23.705  0.00  0.00    +0.000 C 
ENDBRANCH  30  31
ENDBRANCH  28  30
TORSDOF 8
ENDMDL
MODEL 3
REMARK VINA RESULT:     -11.5      1.239      3.099
REMARK  Name = 
REMARK  8 active torsions:
REMARK  status: ('A' for Active; 'I' for Inactive)
REMARK    1  A    between atoms: N_2  and  C_4
REMARK    2  A    between atoms: C_4  and  C_5
REMARK    3  A    between atoms: C_5  and  N_6
REMARK    4  A    between atoms: C_7  and  C_9
REMARK    5  A    between atoms: C_9  and  C_10
REMARK    6  A    between atoms: C_15  and  C_17
REMARK    7  A    between atoms: C_28  and  C_30
REMARK    8  A    between atoms: C_30  and  C_31
REMARK                            x       y       z     vdW  Elec       q    Type
REMARK                         _______ _______ _______ _____ _____    ______ ____
ROOT
ATOM     10  C   UNL     1      -2.914  -0.436  25.089  0.00  0.00    +0.050 C 
ATOM     11  C   UNL     1      -3.506   0.101  24.883  0.00  0.00    +0.063 A 
ATOM     12  C   UNL     1      -4.171  -0.158  24.470  0.00  0.00    +0.023 A 
ATOM     13  C   UNL     1      -4.244  -0.952  24.262  0.00  0.00    +0.034 C 
ATOM     14  C   UNL     1      -3.653  -1.489  24.468  0.00  0.00    +0.010 C 
ATOM     15  C   UNL     1      -3.726  -2.284  24.260  0.00  0.00    +0.059 C 
ATOM     16  C   UNL     1      -4.428  -1.988  23.944  0.00  0.00    +0.005 C 
ATOM     19  C   UNL     1      -3.133  -2.820  24.466  0.00  0.00    +0.154 C 
ATOM     20  O   UNL     1      -3.207  -3.616  24.258  0.00  0.00    -0.223 OA
ATOM     21  C   UNL     1      -2.469  -2.562  24.880  0.00  0.00    +0.033 C 
ATOM     22  C   UNL     1      -2.395  -1.767  25.087  0.00  0.00    +0.003 C 
ATOM     23  C   UNL     1      -2.987  -1.230  24.882  0.00  0.00    +0.006 C 
ATOM     24  C   UNL     1      -2.322  -0.971  25.295  0.00  0.00    +0.000 C 
ATOM     25  S   UNL     1      -4.662   0.494  24.343  0.00  0.00    -0.054 S 
ATOM     26  C   UNL     1      -4.300   1.155  24.678  0.00  0.00    +0.185 A 
ATOM     27  N   UNL     1      -4.599   1.924  24.679  0.00  0.00    -0.154 NA
ATOM     28  C   UNL     1      -4.173   2.532  25.038  0.00  0.00    +0.247 C 
ATOM     29  O   UNL     1      -3.447   2.371  25.395  0.00  0.00    -0.273 OA
ATOM     35  N   UNL     1      -3.585   0.912  25.012  0.00  0.00    -0.227 NA
ENDROOT
BRANCH  15  17
ATOM     17  C   UNL     1      -4.043  -2.976  23.943  0.00  0.00    +0.184 C 
ATOM     18  O   UNL     1      -4.737  -2.945  23.498  0.00  0.00    -0.220 OA
ENDBRANCH  15  17
BRANCH  10   9
ATOM      9  C   UNL     1      -2.249  -0.176  25.503  0.00  0.00    +0.093 C 
BRANCH   9   7
ATOM      6  N   UNL     1      -1.184   0.777  25.510  0.00  0.00    -0.204 NA
ATOM      7  C   UNL     1      -1.648   0.228  25.106  0.00  0.00    +0.242 C 
ATOM      8  O   UNL     1      -1.513   0.082  24.306  0.00  0.00    -0.273 OA
BRANCH   6   5
ATOM      5  C   UNL     1      -0.584   1.181  25.113  0.00  0.00    +0.132 C 
BRANCH   5   4
ATOM      4  C   UNL     1      -0.151   1.763  25.505  0.00  0.00    +0.096 C 
BRANCH   4   2
ATOM      1  C   UNL     1      -0.112   3.186  25.380  0.00  0.00    +0.090 C 
ATOM      2  N   UNL     1       0.094   2.439  25.098  0.00  0.00    -0.269 NA
ATOM      3  C   UNL     1       0.543   2.367  24.411  0.00  0.00    +0.090 C 
ENDBRANCH   4   2
ENDBRANCH   5   4
ENDBRANCH   6   5
ENDBRANCH   9   7
ENDBRANCH  10   9
BRANCH  28  30
ATOM     30  C   UNL     1      -4.472   3.301  25.039  0.00  0.00    +0.087 C 
BRANCH  30  31
ATOM     31  C   UNL     1      -4.012   3.922  25.324  0.00  0.00    +0.009 C 
ATOM     32  C   UNL     1      -3.550   4.545  25.609  0.00  0.00    +0.000 C 
ATOM     33  C   UNL     1      -3.686   4.026  24.573  0.00  0.00    +0.000 C 
ATOM     34  C   UNL     1      -4.337   3.820  26.075  0.00  0.00    +0.000 C 
ENDBRANCH  30  31
ENDBRANCH  28  30
TORSDOF 8
ENDMDL
MODEL 4
REMARK VINA RESULT:     -11.4      1.796      5.298
REMARK  Name = 
REMARK  8 active torsions:
REMARK  status: ('A' for Active; 'I' for Inactive)
REMARK    1  A    between atoms: N_2  and  C_4
REMARK    2  A    between atoms: C_4  and  C_5
REMARK    3  A    between atoms: C_5  and  N_6
REMARK    4  A    between atoms: C_7  and  C_9
REMARK    5  A    between atoms: C_9  and  C_10
REMARK    6  A    between atoms: C_15  and  C_17
REMARK    7  A    between atoms: C_28  and  C_30
REMARK    8  A    between atoms: C_30  and  C_31
REMARK                            x       y       z     vdW  Elec       q    Type
REMARK                         _______ _______ _______ _____ _____    ______ ____
ROOT
ATOM     10  C   UNL     1      -3.639   1.731  24.258  0.00  0.00    +0.050 C 
ATOM     11  C   UNL     1      -3.919   1.049  24.629  0.00  0.00    +0.063 A 
ATOM     12  C   UNL     1      -4.539   1.100  25.171  0.00  0.00    +0.023 A 
ATOM     13  C   UNL     1      -4.878   1.831  25.342  0.00  0.00    +0.034 C 
ATOM     14  C   UNL     1      -4.598   2.513  24.971  0.00  0.00    +0.010 C 
ATOM     15  C   UNL     1      -4.938   3.245  25.143  0.00  0.00    +0.059 C 
ATOM     16  C   UNL     1      -5.390   2.760  25.632  0.00  0.00    +0.005 C 
ATOM     19  C   UNL     1      -4.657   3.927  24.771  0.00  0.00    +0.154 C 
ATOM     20  O   UNL     1      -4.997   4.660  24.943  0.00  0.00    -0.223 OA
ATOM     21  C   UNL     1      -4.038   3.877  24.230  0.00  0.00    +0.033 C 
ATOM     22  C   UNL     1      -3.698   3.145  24.058  0.00  0.00    +0.003 C 
ATOM     23  C   UNL     1      -3.978   2.463  24.429  0.00  0.00    +0.006 C 
ATOM     24  C   UNL     1      -3.359   2.412  23.887  0.00  0.00    +0.000 C 
ATOM     25  S   UNL     1      -4.697   0.339  25.448  0.00  0.00    -0.054 S 
ATOM     26  C   UNL     1      -4.176  -0.181  25.077  0.00  0.00    +0.185 A 
ATOM     27  N   UNL     1      -4.141  -0.998  25.192  0.00  0.00    -0.154 NA
ATOM     28  C   UNL     1      -3.588  -1.449  24.780  0.00  0.00    +0.247 C 
ATOM     29  O   UNL     1      -3.068  -1.085  24.253  0.00  0.00    -0.273 OA
ATOM     35  N   UNL     1      -3.694   0.258  24.570  0.00  0.00    -0.227 NA
ENDROOT
BRANCH  15  17
ATOM     17  C   UNL     1      -5.435   3.808  25.484  0.00  0.00    +0.184 C 
ATOM     18  O   UNL     1      -5.980   3.582  26.060  0.00  0.00    -0.220 OA
ENDBRANCH  15  17
BRANCH  10   9
ATOM      9  C   UNL     1      -3.019   1.680  23.716  0.00  0.00    +0.093 C 
BRANCH   9   7
ATOM      6  N   UNL     1      -1.675   1.248  23.495  0.00  0.00    -0.204 NA
ATOM      7  C   UNL     1      -2.243   1.592  23.984  0.00  0.00    +0.242 C 
ATOM      8  O   UNL     1      -2.037   1.849  24.739  0.00  0.00    -0.273 OA
BRANCH   6   5
ATOM      5  C   UNL     1      -0.899   1.160  23.763  0.00  0.00    +0.132 C 
BRANCH   5   4
ATOM      4  C   UNL     1      -0.328   0.828  23.269  0.00  0.00    +0.096 C 
BRANCH   4   2
ATOM      1  C   UNL     1       0.432  -0.306  23.693  0.00  0.00    +0.090 C 
ATOM      2  N   UNL     1       0.362   0.510  23.593  0.00  0.00    -0.269 NA
ATOM      3  C   UNL     1       0.980   1.007  23.815  0.00  0.00    +0.090 C 
ENDBRANCH   4   2
ENDBRANCH   5   4
ENDBRANCH   6   5
ENDBRANCH   9   7
ENDBRANCH  10   9
BRANCH  28  30
ATOM     30  C   UNL     1      -3.553  -2.266  24.895  0.00  0.00    +0.087 C 
BRANCH  30  31
ATOM     31  C   UNL     1      -3.064  -2.729  24.419  0.00  0.00    +0.009 C 
ATOM     32  C   UNL     1      -2.575  -3.193  23.943  0.00  0.00    +0.000 C 
ATOM     33  C   UNL     1      -3.713  -2.937  23.954  0.00  0.00    +0.000 C 
ATOM     34  C   UNL     1      -2.415  -2.522  24.884  0.00  0.00    +0.000 C 
ENDBRANCH  30  31
ENDBRANCH  28  30
TORSDOF 8
ENDMDL
MODEL 5
REMARK VINA RESULT:     -10.7      1.796      4.435
REMARK  Name = 
REMARK  8 active torsions:
REMARK  status: ('A' for Active; 'I' for Inactive)
REMARK    1  A    between atoms: N_2  and  C_4
REMARK    2  A    between atoms: C_4  and  C_5
REMARK    3  A    between atoms: C_5  and  N_6
REMARK    4  A    between atoms: C_7  and  C_9
REMARK    5  A    between atoms: C_9  and  C_10
REMARK    6  A    between atoms: C_15  and  C_17
REMARK    7  A    between atoms: C_28  and  C_30
REMARK    8  A    between atoms: C_30  and  C_31
REMARK                            x       y       z     vdW  Elec       q    Type
REMARK                         _______ _______ _______ _____ _____    ______ ____
ROOT
ATOM     10  C   UNL     1      -3.861   1.449  24.555  0.00  0.00    +0.050 C 
ATOM     11  C   UNL     1      -3.074   1.687  24.627  0.00  0.00    +0.063 A 
ATOM     12  C   UNL     1      -2.893   2.406  24.988  0.00  0.00    +0.023 A 
ATOM     13  C   UNL     1      -3.497   2.887  25.277  0.00  0.00    +0.034 C 
ATOM     14  C   UNL     1      -4.283   2.650  25.204  0.00  0.00    +0.010 C 
ATOM     15  C   UNL     1      -4.888   3.131  25.493  0.00  0.00    +0.059 C 
ATOM     16  C   UNL     1      -4.233   3.591  25.689  0.00  0.00    +0.005 C 
ATOM     19  C   UNL     1      -5.675   2.893  25.420  0.00  0.00    +0.154 C 
ATOM     20  O   UNL     1      -6.280   3.375  25.709  0.00  0.00    -0.223 OA
ATOM     21  C   UNL     1      -5.857   2.174  25.059  0.00  0.00    +0.033 C 
ATOM     22  C   UNL     1      -5.252   1.693  24.771  0.00  0.00    +0.003 C 
ATOM     23  C   UNL     1      -4.465   1.930  24.843  0.00  0.00    +0.006 C 
ATOM     24  C   UNL     1      -4.647   1.212  24.482  0.00  0.00    +0.000 C 
ATOM     25  S   UNL     1      -2.072   2.494  24.981  0.00  0.00    -0.054 S 
ATOM     26  C   UNL     1      -1.747   1.830  24.616  0.00  0.00    +0.185 A 
ATOM     27  N   UNL     1      -0.944   1.689  24.491  0.00  0.00    -0.154 NA
ATOM     28  C   UNL     1      -0.700   0.997  24.116  0.00  0.00    +0.247 C 
ATOM     29  O   UNL     1      -1.259   0.444  23.865  0.00  0.00    -0.273 OA
ATOM     35  N   UNL     1      -2.367   1.331  24.397  0.00  0.00    -0.227 NA
ENDROOT
BRANCH  15  17
ATOM     17  C   UNL     1      -5.265   3.772  25.850  0.00  0.00    +0.184 C 
ATOM     18  O   UNL     1      -4.817   4.389  26.167  0.00  0.00    -0.220 OA
ENDBRANCH  15  17
BRANCH  10   9
ATOM      9  C   UNL     1      -4.043   0.730  24.193  0.00  0.00    +0.093 C 
BRANCH   9   7
ATOM      6  N   UNL     1      -3.819  -0.681  24.201  0.00  0.00    -0.204 NA
ATOM      7  C   UNL     1      -3.946   0.024  24.610  0.00  0.00    +0.242 C 
ATOM      8  O   UNL     1      -3.978   0.023  25.433  0.00  0.00    -0.273 OA
BRANCH   6   5
ATOM      5  C   UNL     1      -3.722  -1.387  24.618  0.00  0.00    +0.132 C 
BRANCH   5   4
ATOM      4  C   UNL     1      -3.625  -2.097  24.208  0.00  0.00    +0.096 C 
BRANCH   4   2
ATOM      1  C   UNL     1      -2.367  -2.742  24.416  0.00  0.00    +0.090 C 
ATOM      2  N   UNL     1      -3.181  -2.708  24.543  0.00  0.00    -0.269 NA
ATOM      3  C   UNL     1      -3.552  -3.283  25.002  0.00  0.00    +0.090 C 
ENDBRANCH   4   2
ENDBRANCH   5   4
ENDBRANCH   6   5
ENDBRANCH   9   7
ENDBRANCH  10   9
BRANCH  28  30
ATOM     30  C   UNL     1       0.104   0.855  23.991  0.00  0.00    +0.087 C 
BRANCH  30  31
ATOM     31  C   UNL     1       0.346   0.180  23.585  0.00  0.00    +0.009 C 
ATOM     32  C   UNL     1       0.588  -0.497  23.179  0.00  0.00    +0.000 C 
ATOM     33  C   UNL     1       0.520   0.639  22.922  0.00  0.00    +0.000 C 
ATOM     34  C   UNL     1       0.172  -0.281  24.247  0.00  0.00    +0.000 C 
ENDBRANCH  30  31
ENDBRANCH  28  30
TORSDOF 8
ENDMDL
MODEL 6
REMARK VINA RESULT:      -9.8      1.382      4.831
REMARK  Name = 
REMARK  8 active torsions:
REMARK  status: ('A' for Active; 'I' for Inactive)
REMARK    1  A    between atoms: N_2  and  C_4
REMARK    2  A    between atoms: C_4  and  C_5
REMARK    3  A    between atoms: C_5  and  N_6
REMARK    4  A    between atoms: C_7  and  C_9
REMARK    5  A    between atoms: C_9  and  C_10
REMARK    6  A    between atoms: C_15  and  C_17
REMARK    7  A    between atoms: C_28  and  C_30
REMARK    8  A    between atoms: C_30  and  C_31
REMARK                            x       y       z     vdW  Elec       q    Type
REMARK                         _______ _______ _______ _____ _____    ______ ____
ROOT
ATOM     10  C   UNL     1      -2.340   2.996  25.255  0.00  0.00    +0.050 C 
ATOM     11  C   UNL     1      -2.060   2.289  24.933  0.00  0.00    +0.063 A 
ATOM     12  C   UNL     1      -1.351   2.281  24.512  0.00  0.00    +0.023 A 
ATOM     13  C   UNL     1      -0.922   2.977  24.412  0.00  0.00    +0.034 C 
ATOM     14  C   UNL     1      -1.202   3.684  24.733  0.00  0.00    +0.010 C 
ATOM     15  C   UNL     1      -0.773   4.381  24.633  0.00  0.00    +0.059 C 
ATOM     16  C   UNL     1      -0.285   3.854  24.228  0.00  0.00    +0.005 C 
ATOM     19  C   UNL     1      -1.053   5.087  24.955  0.00  0.00    +0.154 C 
ATOM     20  O   UNL     1      -0.623   5.786  24.854  0.00  0.00    -0.223 OA
ATOM     21  C   UNL     1      -1.762   5.097  25.376  0.00  0.00    +0.033 C 
ATOM     22  C   UNL     1      -2.191   4.399  25.476  0.00  0.00    +0.003 C 
ATOM     23  C   UNL     1      -1.912   3.693  25.155  0.00  0.00    +0.006 C 
ATOM     24  C   UNL     1      -2.620   3.702  25.576  0.00  0.00    +0.000 C 
ATOM     25  S   UNL     1      -1.215   1.506  24.261  0.00  0.00    -0.054 S 
ATOM     26  C   UNL     1      -1.838   1.037  24.526  0.00  0.00    +0.185 A 
ATOM     27  N   UNL     1      -1.925   0.227  24.399  0.00  0.00    -0.154 NA
ATOM     28  C   UNL     1      -2.582  -0.170  24.699  0.00  0.00    +0.247 C 
ATOM     29  O   UNL     1      -3.153   0.243  25.128  0.00  0.00    -0.273 OA
ATOM     35  N   UNL     1      -2.362   1.521  24.942  0.00  0.00    -0.227 NA
ENDROOT
BRANCH  15  17
ATOM     17  C   UNL     1      -0.174   4.895  24.392  0.00  0.00    +0.184 C 
ATOM     18  O   UNL     1       0.204   4.777  23.668  0.00  0.00    -0.220 OA
ENDBRANCH  15  17
BRANCH  10   9
ATOM      9  C   UNL     1      -3.050   3.005  25.676  0.00  0.00    +0.093 C 
BRANCH   9   7
ATOM      6  N   UNL     1      -4.451   2.724  25.648  0.00  0.00    -0.204 NA
ATOM      7  C   UNL     1      -3.769   2.996  25.271  0.00  0.00    +0.242 C 
ATOM      8  O   UNL     1      -3.807   3.260  24.491  0.00  0.00    -0.273 OA
BRANCH   6   5
ATOM      5  C   UNL     1      -5.170   2.716  25.244  0.00  0.00    +0.132 C 
BRANCH   5   4
ATOM      4  C   UNL     1      -5.874   2.595  25.657  0.00  0.00    +0.096 C 
BRANCH   4   2
ATOM      1  C   UNL     1      -6.469   1.389  26.141  0.00  0.00    +0.090 C 
ATOM      2  N   UNL     1      -6.319   1.913  25.522  0.00  0.00    -0.269 NA
ATOM      3  C   UNL     1      -6.614   1.757  24.768  0.00  0.00    +0.090 C 
ENDBRANCH   4   2
ENDBRANCH   5   4
ENDBRANCH   6   5
ENDBRANCH   9   7
ENDBRANCH  10   9
BRANCH  28  30
ATOM     30  C   UNL     1      -2.669  -0.981  24.572  0.00  0.00    +0.087 C 
BRANCH  30  31
ATOM     31  C   UNL     1      -3.371  -1.359  24.781  0.00  0.00    +0.009 C 
ATOM     32  C   UNL     1      -4.074  -1.738  24.990  0.00  0.00    +0.000 C 
ATOM     33  C   UNL     1      -3.056  -1.536  25.523  0.00  0.00    +0.000 C 
ATOM     34  C   UNL     1      -3.687  -1.183  24.040  0.00  0.00    +0.000 C 
ENDBRANCH  30  31
ENDBRANCH  28  30
TORSDOF 8
ENDMDL
MODEL 7
REMARK VINA RESULT:      -9.8      1.294      3.340
REMARK  Name = 
REMARK  8 active torsions:
REMARK  status: ('A' for Active; 'I' for Inactive)
REMARK    1  A    between atoms: N_2  and  C_4
REMARK    2  A    between atoms: C_4  and  C_5
REMARK    3  A    between atoms: C_5  and  N_6
REMARK    4  A    between atoms: C_7  and  C_9
REMARK    5  A    between atoms: C_9  and  C_10
REMARK    6  A    between atoms: C_15  and  C_17
REMARK    7  A    between atoms: C_28  and  C_30
REMARK    8  A    between atoms: C_30  and  C_31
REMARK                            x       y       z     vdW  Elec       q    Type
REMARK                         _______ _______ _______ _____ _____    ______ ____
ROOT
ATOM     10  C   UNL     1      -1.939   0.511  24.419  0.00  0.00    +0.050 C 
ATOM     11  C   UNL     1      -2.720   0.404  24.666  0.00  0.00    +0.063 A 
ATOM     12  C   UNL     1      -2.959  -0.324  24.970  0.00  0.00    +0.023 A 
ATOM     13  C   UNL     1      -2.421  -0.945  25.028  0.00  0.00    +0.034 C 
ATOM     14  C   UNL     1      -1.641  -0.838  24.781  0.00  0.00    +0.010 C 
ATOM     15  C   UNL     1      -1.101  -1.460  24.838  0.00  0.00    +0.059 C 
ATOM     16  C   UNL     1      -1.774  -1.827  25.141  0.00  0.00    +0.005 C 
ATOM     19  C   UNL     1      -0.321  -1.352  24.591  0.00  0.00    +0.154 C 
ATOM     20  O   UNL     1       0.219  -1.975  24.648  0.00  0.00    -0.223 OA
ATOM     21  C   UNL     1      -0.081  -0.625  24.287  0.00  0.00    +0.033 C 
ATOM     22  C   UNL     1      -0.620  -0.003  24.229  0.00  0.00    +0.003 C 
ATOM     23  C   UNL     1      -1.400  -0.110  24.476  0.00  0.00    +0.006 C 
ATOM     24  C   UNL     1      -1.160   0.618  24.172  0.00  0.00    +0.000 C 
ATOM     25  S   UNL     1      -3.759  -0.265  25.169  0.00  0.00    -0.054 S 
ATOM     26  C   UNL     1      -4.012   0.498  24.987  0.00  0.00    +0.185 A 
ATOM     27  N   UNL     1      -4.774   0.795  25.096  0.00  0.00    -0.154 NA
ATOM     28  C   UNL     1      -4.947   1.574  24.888  0.00  0.00    +0.247 C 
ATOM     29  O   UNL     1      -4.358   2.056  24.570  0.00  0.00    -0.273 OA
ATOM     35  N   UNL     1      -3.370   0.912  24.676  0.00  0.00    -0.227 NA
ENDROOT
BRANCH  15  17
ATOM     17  C   UNL     1      -0.796  -2.209  25.001  0.00  0.00    +0.184 C 
ATOM     18  O   UNL     1      -1.302  -2.858  25.056  0.00  0.00    -0.220 OA
ENDBRANCH  15  17
BRANCH  10   9
ATOM      9  C   UNL     1      -1.700   1.239  24.115  0.00  0.00    +0.093 C 
BRANCH   9   7
ATOM      6  N   UNL     1      -1.625   2.647  24.351  0.00  0.00    -0.204 NA
ATOM      7  C   UNL     1      -1.557   1.872  24.626  0.00  0.00    +0.242 C 
ATOM      8  O   UNL     1      -1.346   1.730  25.410  0.00  0.00    -0.273 OA
BRANCH   6   5
ATOM      5  C   UNL     1      -1.483   3.280  24.861  0.00  0.00    +0.132 C 
BRANCH   5   4
ATOM      4  C   UNL     1      -1.529   4.054  24.580  0.00  0.00    +0.096 C 
BRANCH   4   2
ATOM      1  C   UNL     1      -2.208   4.687  25.667  0.00  0.00    +0.090 C 
ATOM      2  N   UNL     1      -1.597   4.682  25.112  0.00  0.00    -0.269 NA
ATOM      3  C   UNL     1      -1.056   5.303  25.088  0.00  0.00    +0.090 C 
ENDBRANCH   4   2
ENDBRANCH   5   4
ENDBRANCH   6   5
ENDBRANCH   9   7
ENDBRANCH  10   9
BRANCH  28  30
ATOM     30  C   UNL     1      -5.708   1.872  24.997  0.00  0.00    +0.087 C 
BRANCH  30  31
ATOM     31  C   UNL     1      -5.818   2.596  25.375  0.00  0.00    +0.009 C 
ATOM     32  C   UNL     1      -5.929   3.321  25.754  0.00  0.00    +0.000 C 
ATOM     33  C   UNL     1      -5.499   2.986  24.722  0.00  0.00    +0.000 C 
ATOM     34  C   UNL     1      -6.138   2.207  26.029  0.00  0.00    +0.000 C 
ENDBRANCH  30  31
ENDBRANCH  28  30
TORSDOF 8
ENDMDL
