MODEL 1
REMARK VINA RESULT:     -12.2      0.000      0.000
REMARK  Name = 
REMARK  1 active torsions:
REMARK  status: ('A' for Active; 'I' for Inactive)
REMARK    1  A    between atoms: C_14  and  C_15
REMARK                            x       y       z     vdW  Elec       q    Type
REMARK                         _______ _______ _______ _____ _____    ______ ____
ROOT
ATOM      1  O   UNL     1      -2.911   0.303  23.877  0.00  0.00    -0.267 OA
ATOM      2  C   UNL     1      -3.591   0.581  24.255  0.00  0.00    +0.261 A 
ATOM      3  N   UNL     1      -3.767   1.387  24.247  0.00  0.00    -0.299 N 
ATOM      4  C   UNL     1      -4.404   1.070  24.685  0.00  0.00    +0.110 C 
ATOM      5  C   UNL     1      -4.904   1.901  24.873  0.00  0.00    +0.041 C 
ATOM      6  C   UNL     1      -4.262   2.436  24.401  0.00  0.00    +0.091 C 
ATOM      7  N   UNL     1      -3.699   2.377  24.063  0.00  0.00    -0.218 NA
ATOM      8  C   UNL     1      -4.215   2.959  24.297  0.00  0.00    +0.094 C 
ATOM      9  C   UNL     1      -4.825   2.438  24.747  0.00  0.00    +0.056 C 
ATOM     10  C   UNL     1      -5.424   2.482  25.110  0.00  0.00    +0.011 C 
ATOM     11  C   UNL     1      -4.445   1.664  24.624  0.00  0.00    +0.041 A 
ATOM     12  C   UNL     1      -4.947   1.136  25.010  0.00  0.00    +0.013 A 
ATOM     13  C   UNL     1      -4.772   0.331  25.018  0.00  0.00    +0.006 A 
ATOM     14  C   UNL     1      -4.093   0.053  24.640  0.00  0.00    +0.062 A 
ENDROOT
BRANCH  14  15
ATOM     15  C   UNL     1      -3.917  -0.753  24.648  0.00  0.00    +0.034 A 
ATOM     16  C   UNL     1      -4.123  -1.300  24.065  0.00  0.00    +0.007 A 
ATOM     17  C   UNL     1      -3.837  -2.039  24.296  0.00  0.00    +0.007 A 
ATOM     18  C   UNL     1      -3.456  -1.949  25.022  0.00  0.00    +0.035 A 
ATOM     19  S   UNL     1      -3.505  -1.154  25.239  0.00  0.00    -0.086 S 
ENDBRANCH  14  15
TORSDOF 1
ENDMDL
MODEL 2
REMARK VINA RESULT:     -12.1      1.345      3.514
REMARK  Name = 
REMARK  1 active torsions:
REMARK  status: ('A' for Active; 'I' for Inactive)
REMARK    1  A    between atoms: C_14  and  C_15
REMARK                            x       y       z     vdW  Elec       q    Type
REMARK                         _______ _______ _______ _____ _____    ______ ____
ROOT
ATOM      1  O   UNL     1      -2.779   0.287  25.367  0.00  0.00    -0.267 OA
ATOM      2  C   UNL     1      -3.276  -0.205  24.929  0.00  0.00    +0.261 A 
ATOM      3  N   UNL     1      -3.138  -1.018  24.909  0.00  0.00    -0.299 N 
ATOM      4  C   UNL     1      -3.814  -0.941  24.424  0.00  0.00    +0.110 C 
ATOM      5  C   UNL     1      -3.953  -1.889  24.181  0.00  0.00    +0.041 C 
ATOM      6  C   UNL     1      -3.193  -2.168  24.696  0.00  0.00    +0.091 C 
ATOM      7  N   UNL     1      -2.719  -1.920  25.081  0.00  0.00    -0.218 NA
ATOM      8  C   UNL     1      -2.962  -2.640  24.795  0.00  0.00    +0.094 C 
ATOM      9  C   UNL     1      -3.688  -2.363  24.304  0.00  0.00    +0.056 C 
ATOM     10  C   UNL     1      -4.199  -2.609  23.892  0.00  0.00    +0.011 C 
ATOM     11  C   UNL     1      -3.634  -1.510  24.471  0.00  0.00    +0.041 A 
ATOM     12  C   UNL     1      -4.269  -1.189  24.054  0.00  0.00    +0.013 A 
ATOM     13  C   UNL     1      -4.407  -0.376  24.074  0.00  0.00    +0.006 A 
ATOM     14  C   UNL     1      -3.911   0.116  24.511  0.00  0.00    +0.062 A 
ENDROOT
BRANCH  14  15
ATOM     15  C   UNL     1      -4.049   0.929  24.532  0.00  0.00    +0.034 A 
ATOM     16  C   UNL     1      -4.590   1.317  25.019  0.00  0.00    +0.007 A 
ATOM     17  C   UNL     1      -4.546   2.125  24.857  0.00  0.00    +0.007 A 
ATOM     18  C   UNL     1      -3.978   2.236  24.270  0.00  0.00    +0.035 A 
ATOM     19  S   UNL     1      -3.670   1.497  24.069  0.00  0.00    -0.086 S 
ENDBRANCH  14  15
TORSDOF 1
ENDMDL
MODEL 3
REMARK VINA RESULT:     -11.3      2.736      3.852
REMARK  Name = 
REMARK  1 active torsions:
REMARK  status: ('A' for Active; 'I' for Inactive)
REMARK    1  A    between atoms: C_14  and  C_15
REMARK                            x       y       z     vdW  Elec       q    Type
REMARK                         _______ _______ _______ _____ _____    ______ ____
ROOT
ATOM      1  O   UNL     1      -3.146   4.300  26.435  0.00  0.00    -0.267 OA
ATOM      2  C   UNL     1      -3.405   3.790  25.839  0.00  0.00    +0.261 A 
ATOM      3  N   UNL     1      -4.171   3.485  25.861  0.00  0.00    -0.299 N 
ATOM      4  C   UNL     1      -3.864   3.144  25.163  0.00  0.00    +0.110 C 
ATOM      5  C   UNL     1      -4.651   2.621  24.875  0.00  0.00    +0.041 C 
ATOM      6  C   UNL     1      -5.167   2.914  25.630  0.00  0.00    +0.091 C 
ATOM      7  N   UNL     1      -5.115   3.296  26.165  0.00  0.00    -0.218 NA
ATOM      8  C   UNL     1      -5.664   2.822  25.801  0.00  0.00    +0.094 C 
ATOM      9  C   UNL     1      -5.164   2.546  25.081  0.00  0.00    +0.056 C 
ATOM     10  C   UNL     1      -5.200   2.144  24.507  0.00  0.00    +0.011 C 
ATOM     11  C   UNL     1      -4.429   2.977  25.266  0.00  0.00    +0.041 A 
ATOM     12  C   UNL     1      -3.922   2.773  24.649  0.00  0.00    +0.013 A 
ATOM     13  C   UNL     1      -3.157   3.077  24.626  0.00  0.00    +0.006 A 
ATOM     14  C   UNL     1      -2.897   3.586  25.222  0.00  0.00    +0.062 A 
ENDROOT
BRANCH  14  15
ATOM     15  C   UNL     1      -2.131   3.891  25.199  0.00  0.00    +0.034 A 
ATOM     16  C   UNL     1      -1.925   4.672  25.028  0.00  0.00    +0.007 A 
ATOM     17  C   UNL     1      -1.102   4.733  25.067  0.00  0.00    +0.007 A 
ATOM     18  C   UNL     1      -0.801   3.990  25.263  0.00  0.00    +0.035 A 
ATOM     19  S   UNL     1      -1.437   3.470  25.345  0.00  0.00    -0.086 S 
ENDBRANCH  14  15
TORSDOF 1
ENDMDL
MODEL 4
REMARK VINA RESULT:     -11.0      2.519      3.700
REMARK  Name = 
REMARK  1 active torsions:
REMARK  status: ('A' for Active; 'I' for Inactive)
REMARK    1  A    between atoms: C_14  and  C_15
REMARK                            x       y       z     vdW  Elec       q    Type
REMARK                         _______ _______ _______ _____ _____    ______ ____
ROOT
ATOM      1  O   UNL     1      -2.959   1.884  25.108  0.00  0.00    -0.267 OA
ATOM      2  C   UNL     1      -2.858   2.703  25.125  0.00  0.00    +0.261 A 
ATOM      3  N   UNL     1      -2.098   3.024  25.144  0.00  0.00    -0.299 N 
ATOM      4  C   UNL     1      -2.579   3.706  25.149  0.00  0.00    +0.110 C 
ATOM      5  C   UNL     1      -1.878   4.403  25.174  0.00  0.00    +0.041 C 
ATOM      6  C   UNL     1      -1.177   3.746  25.173  0.00  0.00    +0.091 C 
ATOM      7  N   UNL     1      -1.091   3.093  25.161  0.00  0.00    -0.218 NA
ATOM      8  C   UNL     1      -0.643   3.770  25.182  0.00  0.00    +0.094 C 
ATOM      9  C   UNL     1      -1.321   4.391  25.183  0.00  0.00    +0.056 C 
ATOM     10  C   UNL     1      -1.432   5.084  25.194  0.00  0.00    +0.011 C 
ATOM     11  C   UNL     1      -1.996   3.841  25.161  0.00  0.00    +0.041 A 
ATOM     12  C   UNL     1      -2.654   4.339  25.160  0.00  0.00    +0.013 A 
ATOM     13  C   UNL     1      -3.413   4.018  25.141  0.00  0.00    +0.006 A 
ATOM     14  C   UNL     1      -3.515   3.200  25.124  0.00  0.00    +0.062 A 
ENDROOT
BRANCH  14  15
ATOM     15  C   UNL     1      -4.275   2.879  25.106  0.00  0.00    +0.034 A 
ATOM     16  C   UNL     1      -4.609   2.460  24.478  0.00  0.00    +0.007 A 
ATOM     17  C   UNL     1      -5.375   2.243  24.696  0.00  0.00    +0.007 A 
ATOM     18  C   UNL     1      -5.514   2.528  25.458  0.00  0.00    +0.035 A 
ATOM     19  S   UNL     1      -4.834   2.921  25.710  0.00  0.00    -0.086 S 
ENDBRANCH  14  15
TORSDOF 1
ENDMDL
MODEL 5
REMARK VINA RESULT:     -10.9      2.583      3.733
REMARK  Name = 
REMARK  1 active torsions:
REMARK  status: ('A' for Active; 'I' for Inactive)
REMARK    1  A    between atoms: C_14  and  C_15
REMARK                            x       y       z     vdW  Elec       q    Type
REMARK                         _______ _______ _______ _____ _____    ______ ____
ROOT
ATOM      1  O   UNL     1      -1.117  -1.288  25.259  0.00  0.00    -0.267 OA
ATOM      2  C   UNL     1      -1.852  -1.091  24.939  0.00  0.00    +0.261 A 
ATOM      3  N   UNL     1      -2.417  -1.679  24.812  0.00  0.00    -0.299 N 
ATOM      4  C   UNL     1      -2.812  -0.992  24.545  0.00  0.00    +0.110 C 
ATOM      5  C   UNL     1      -3.673  -1.392  24.272  0.00  0.00    +0.041 C 
ATOM      6  C   UNL     1      -3.386  -2.272  24.528  0.00  0.00    +0.091 C 
ATOM      7  N   UNL     1      -2.864  -2.583  24.784  0.00  0.00    -0.218 NA
ATOM      8  C   UNL     1      -3.612  -2.756  24.518  0.00  0.00    +0.094 C 
ATOM      9  C   UNL     1      -3.878  -1.911  24.276  0.00  0.00    +0.056 C 
ATOM     10  C   UNL     1      -4.424  -1.562  24.005  0.00  0.00    +0.011 C 
ATOM     11  C   UNL     1      -3.151  -1.483  24.492  0.00  0.00    +0.041 A 
ATOM     12  C   UNL     1      -3.320  -0.699  24.298  0.00  0.00    +0.013 A 
ATOM     13  C   UNL     1      -2.755  -0.112  24.424  0.00  0.00    +0.006 A 
ATOM     14  C   UNL     1      -2.021  -0.308  24.745  0.00  0.00    +0.062 A 
ENDROOT
BRANCH  14  15
ATOM     15  C   UNL     1      -1.455   0.279  24.871  0.00  0.00    +0.034 A 
ATOM     16  C   UNL     1      -1.345   0.703  25.570  0.00  0.00    +0.007 A 
ATOM     17  C   UNL     1      -0.722   1.232  25.452  0.00  0.00    +0.007 A 
ATOM     18  C   UNL     1      -0.448   1.135  24.680  0.00  0.00    +0.035 A 
ATOM     19  S   UNL     1      -0.902   0.546  24.321  0.00  0.00    -0.086 S 
ENDBRANCH  14  15
TORSDOF 1
ENDMDL
