REMARK  Name = 
REMARK  8 active torsions:
REMARK  status: ('A' for Active; 'I' for Inactive)
REMARK    1  A    between atoms: S_2  and  C_4
REMARK    2  A    between atoms: S_2  and  N_11
REMARK    3  A    between atoms: C_4  and  C_5
REMARK    4  A    between atoms: N_11  and  C_12
REMARK    5  A    between atoms: C_16  and  N_20
REMARK    6  A    between atoms: C_24  and  O_25
REMARK    7  A    between atoms: O_25  and  C_26
REMARK    8  A    between atoms: C_29  and  N_32
REMARK                            x       y       z     vdW  Elec       q    Type
REMARK                         _______ _______ _______ _____ _____    ______ ____
ROOT
ATOM     12  C   UNL     1       1.270  -0.922   0.000  0.00  0.00    +0.156 C 
ATOM     13  C   UNL     1       0.785  -0.255   0.000  0.00  0.00    +0.164 C 
ATOM     14  O   UNL     1       1.270   0.412   0.000  0.00  0.00    -0.350 OA
ATOM     15  C   UNL     1       2.054   0.158   0.000  0.00  0.00    +0.169 C 
ATOM     16  C   UNL     1       2.839   0.412   0.000  0.00  0.00    +0.170 C 
ATOM     17  C   UNL     1       3.324  -0.255   0.000  0.00  0.00    +0.169 C 
ATOM     18  O   UNL     1       2.839  -0.922   0.000  0.00  0.00    -0.350 OA
ATOM     19  C   UNL     1       2.054  -0.667   0.000  0.00  0.00    +0.164 C 
ENDROOT
BRANCH  16  20
ATOM     20  N   UNL     1       3.094   1.197   0.000  0.00  0.00    -0.180 N 
ATOM     21  N   UNL     1       2.609   1.865   0.000  0.00  0.00    -0.040 NA
ATOM     22  N   UNL     1       3.094   2.532   0.000  0.00  0.00    -0.020 NA
ATOM     23  N   UNL     1       3.878   2.277   0.000  0.00  0.00    -0.071 NA
ATOM     24  C   UNL     1       3.878   1.452   0.000  0.00  0.00    +0.343 A 
BRANCH  24  25
ATOM     25  O   UNL     1       4.546   0.967   0.000  0.00  0.00    -0.421 OA
BRANCH  25  26
ATOM     26  C   UNL     1       5.300   1.303   0.000  0.00  0.00    +0.149 A 
ATOM     27  C   UNL     1       5.386   2.123   0.000  0.00  0.00    +0.039 A 
ATOM     28  C   UNL     1       6.139   2.459   0.000  0.00  0.00    +0.021 A 
ATOM     29  C   UNL     1       6.807   1.974   0.000  0.00  0.00    +0.066 A 
ATOM     30  C   UNL     1       6.721   1.153   0.000  0.00  0.00    +0.021 A 
ATOM     31  C   UNL     1       5.967   0.818   0.000  0.00  0.00    +0.039 A 
BRANCH  29  32
ATOM     32  N   UNL     1       7.561   2.309   0.000  0.00  0.00    -0.286 N 
ATOM     33  C   UNL     1       7.732   3.116   0.000  0.00  0.00    +0.102 A 
ATOM     34  C   UNL     1       8.553   3.203   0.000  0.00  0.00    +0.120 A 
ATOM     35  N   UNL     1       8.888   2.449   0.000  0.00  0.00    -0.222 NA
ATOM     36  C   UNL     1       8.275   1.897   0.000  0.00  0.00    +0.183 A 
ENDBRANCH  29  32
ENDBRANCH  25  26
ENDBRANCH  24  25
ENDBRANCH  16  20
BRANCH  12  11
ATOM     11  N   UNL     1       1.015  -1.707   0.000  0.00  0.00    -0.078 NA
BRANCH  11   2
ATOM      1  O   UNL     1       0.036  -1.072   0.000  0.00  0.00    -0.156 OA
ATOM      2  S   UNL     1       0.208  -1.879   0.000  0.00  0.00    +0.062 S 
ATOM      3  O   UNL     1      -0.599  -2.050   0.000  0.00  0.00    -0.156 OA
BRANCH   2   4
ATOM      4  C   UNL     1       0.379  -2.686   0.000  0.00  0.00    +0.197 C 
BRANCH   4   5
ATOM      5  C   UNL     1      -0.234  -3.237   0.000  0.00  0.00    +0.003 A 
ATOM      6  C   UNL     1      -0.062  -4.045   0.000  0.00  0.00    -0.003 A 
ATOM      7  C   UNL     1      -0.675  -4.596   0.000  0.00  0.00    -0.000 A 
ATOM      8  C   UNL     1      -1.460  -4.342   0.000  0.00  0.00    -0.000 A 
ATOM      9  C   UNL     1      -1.632  -3.535   0.000  0.00  0.00    -0.000 A 
ATOM     10  C   UNL     1      -1.019  -2.983   0.000  0.00  0.00    -0.003 A 
ENDBRANCH   4   5
ENDBRANCH   2   4
ENDBRANCH  11   2
ENDBRANCH  12  11
TORSDOF 8
