MODEL 1
REMARK VINA RESULT:     -11.1      0.000      0.000
REMARK  Name = 
REMARK  6 active torsions:
REMARK  status: ('A' for Active; 'I' for Inactive)
REMARK    1  A    between atoms: C_2  and  C_4
REMARK    2  A    between atoms: C_6  and  C_7
REMARK    3  A    between atoms: C_7  and  C_8
REMARK    4  A    between atoms: C_20  and  C_21
REMARK    5  A    between atoms: C_21  and  N_22
REMARK    6  A    between atoms: C_23  and  C_25
REMARK                            x       y       z     vdW  Elec       q    Type
REMARK                         _______ _______ _______ _____ _____    ______ ____
ROOT
ATOM      4  C   UNL     1      -4.495   1.884  25.046  0.00  0.00    +0.006 C 
ATOM      5  C   UNL     1      -4.558   1.090  24.835  0.00  0.00    +0.005 C 
ATOM      6  C   UNL     1      -3.906   0.692  24.525  0.00  0.00    +0.027 C 
ATOM     17  C   UNL     1      -3.189   1.088  24.426  0.00  0.00    -0.048 C 
ATOM     18  C   UNL     1      -2.537   0.690  24.116  0.00  0.00    +0.026 C 
ATOM     19  C   UNL     1      -3.126   1.884  24.637  0.00  0.00    -0.033 C 
ATOM     20  C   UNL     1      -3.777   2.281  24.947  0.00  0.00    +0.043 C 
ENDROOT
BRANCH   4   2
ATOM      1  C   UNL     1      -5.658   2.692  24.853  0.00  0.00    +0.000 C 
ATOM      2  C   UNL     1      -5.147   2.283  25.357  0.00  0.00    +0.000 C 
ATOM      3  C   UNL     1      -5.289   2.272  26.169  0.00  0.00    +0.000 C 
ENDBRANCH   4   2
BRANCH   6   7
ATOM      7  C   UNL     1      -3.970  -0.104  24.313  0.00  0.00    +0.089 C 
BRANCH   7   8
ATOM      8  C   UNL     1      -3.816  -0.692  24.871  0.00  0.00    +0.226 C 
ATOM      9  O   UNL     1      -3.652  -0.487  25.653  0.00  0.00    -0.275 OA
ATOM     10  N   UNL     1      -3.827  -1.485  24.646  0.00  0.00    -0.277 N 
ATOM     11  C   UNL     1      -3.992  -1.691  23.864  0.00  0.00    +0.111 C 
ATOM     12  C   UNL     1      -4.003  -2.484  23.639  0.00  0.00    +0.094 C 
ATOM     13  N   UNL     1      -3.850  -3.073  24.197  0.00  0.00    -0.269 NA
ATOM     14  C   UNL     1      -3.861  -3.867  23.971  0.00  0.00    +0.090 C 
ATOM     15  C   UNL     1      -3.685  -2.868  24.978  0.00  0.00    +0.094 C 
ATOM     16  C   UNL     1      -3.674  -2.075  25.204  0.00  0.00    +0.111 C 
ENDBRANCH   7   8
ENDBRANCH   6   7
BRANCH  20  21
ATOM     21  C   UNL     1      -3.714   3.076  25.159  0.00  0.00    +0.120 C 
BRANCH  21  22
ATOM     22  N   UNL     1      -3.034   3.502  24.968  0.00  0.00    -0.201 NA
ATOM     23  C   UNL     1      -2.778   4.112  25.459  0.00  0.00    +0.265 C 
ATOM     24  O   UNL     1      -3.201   4.298  26.143  0.00  0.00    -0.268 OA
BRANCH  23  25
ATOM     25  C   UNL     1      -2.096   4.538  25.268  0.00  0.00    +0.055 A 
ATOM     26  C   UNL     1      -1.372   4.147  25.199  0.00  0.00    +0.005 A 
ATOM     27  C   UNL     1      -0.692   4.573  25.008  0.00  0.00    +0.000 A 
ATOM     28  C   UNL     1      -0.735   5.388  24.886  0.00  0.00    +0.000 A 
ATOM     29  C   UNL     1      -1.459   5.777  24.955  0.00  0.00    +0.000 A 
ATOM     30  C   UNL     1      -2.140   5.352  25.146  0.00  0.00    +0.005 A 
ENDBRANCH  23  25
ENDBRANCH  21  22
ENDBRANCH  20  21
TORSDOF 6
ENDMDL
MODEL 2
REMARK VINA RESULT:     -10.8      3.209      5.083
REMARK  Name = 
REMARK  6 active torsions:
REMARK  status: ('A' for Active; 'I' for Inactive)
REMARK    1  A    between atoms: C_2  and  C_4
REMARK    2  A    between atoms: C_6  and  C_7
REMARK    3  A    between atoms: C_7  and  C_8
REMARK    4  A    between atoms: C_20  and  C_21
REMARK    5  A    between atoms: C_21  and  N_22
REMARK    6  A    between atoms: C_23  and  C_25
REMARK                            x       y       z     vdW  Elec       q    Type
REMARK                         _______ _______ _______ _____ _____    ______ ____
ROOT
ATOM      4  C   UNL     1      -1.495  -0.211  24.640  0.00  0.00    +0.006 C 
ATOM      5  C   UNL     1      -0.716  -0.071  24.408  0.00  0.00    +0.005 C 
ATOM      6  C   UNL     1      -0.527   0.613  23.989  0.00  0.00    +0.027 C 
ATOM     17  C   UNL     1      -1.117   1.158  23.800  0.00  0.00    -0.048 C 
ATOM     18  C   UNL     1      -0.928   1.842  23.380  0.00  0.00    +0.026 C 
ATOM     19  C   UNL     1      -1.897   1.018  24.032  0.00  0.00    -0.033 C 
ATOM     20  C   UNL     1      -2.086   0.334  24.451  0.00  0.00    +0.043 C 
ENDROOT
BRANCH   4   2
ATOM      1  C   UNL     1      -1.938  -1.570  24.656  0.00  0.00    +0.000 C 
ATOM      2  C   UNL     1      -1.684  -0.896  25.060  0.00  0.00    +0.000 C 
ATOM      3  C   UNL     1      -1.619  -0.906  25.881  0.00  0.00    +0.000 C 
ENDBRANCH   4   2
BRANCH   6   7
ATOM      7  C   UNL     1       0.253   0.753  23.757  0.00  0.00    +0.089 C 
BRANCH   7   8
ATOM      8  C   UNL     1       0.620   0.248  23.218  0.00  0.00    +0.226 C 
ATOM      9  O   UNL     1       0.186  -0.350  22.852  0.00  0.00    -0.275 OA
ATOM     10  N   UNL     1       1.421   0.342  23.046  0.00  0.00    -0.277 N 
ATOM     11  C   UNL     1       1.855   0.940  23.412  0.00  0.00    +0.111 C 
ATOM     12  C   UNL     1       2.656   1.034  23.239  0.00  0.00    +0.094 C 
ATOM     13  N   UNL     1       3.024   0.528  22.700  0.00  0.00    -0.269 NA
ATOM     14  C   UNL     1       3.825   0.622  22.527  0.00  0.00    +0.090 C 
ATOM     15  C   UNL     1       2.590  -0.070  22.334  0.00  0.00    +0.094 C 
ATOM     16  C   UNL     1       1.789  -0.164  22.506  0.00  0.00    +0.111 C 
ENDBRANCH   7   8
ENDBRANCH   6   7
BRANCH  20  21
ATOM     21  C   UNL     1      -2.865   0.193  24.683  0.00  0.00    +0.120 C 
BRANCH  21  22
ATOM     22  N   UNL     1      -3.370   0.827  24.838  0.00  0.00    -0.201 NA
ATOM     23  C   UNL     1      -4.187   0.718  24.811  0.00  0.00    +0.265 C 
ATOM     24  O   UNL     1      -4.500  -0.023  24.628  0.00  0.00    -0.268 OA
BRANCH  23  25
ATOM     25  C   UNL     1      -4.693   1.352  24.966  0.00  0.00    +0.055 A 
ATOM     26  C   UNL     1      -4.632   2.046  24.524  0.00  0.00    +0.005 A 
ATOM     27  C   UNL     1      -5.137   2.680  24.679  0.00  0.00    +0.000 A 
ATOM     28  C   UNL     1      -5.704   2.619  25.277  0.00  0.00    +0.000 A 
ATOM     29  C   UNL     1      -5.765   1.924  25.718  0.00  0.00    +0.000 A 
ATOM     30  C   UNL     1      -5.259   1.291  25.562  0.00  0.00    +0.005 A 
ENDBRANCH  23  25
ENDBRANCH  21  22
ENDBRANCH  20  21
TORSDOF 6
ENDMDL
MODEL 3
REMARK VINA RESULT:     -10.6      1.126      2.194
REMARK  Name = 
REMARK  6 active torsions:
REMARK  status: ('A' for Active; 'I' for Inactive)
REMARK    1  A    between atoms: C_2  and  C_4
REMARK    2  A    between atoms: C_6  and  C_7
REMARK    3  A    between atoms: C_7  and  C_8
REMARK    4  A    between atoms: C_20  and  C_21
REMARK    5  A    between atoms: C_21  and  N_22
REMARK    6  A    between atoms: C_23  and  C_25
REMARK                            x       y       z     vdW  Elec       q    Type
REMARK                         _______ _______ _______ _____ _____    ______ ____
ROOT
ATOM      4  C   UNL     1      -1.666   0.747  24.762  0.00  0.00    +0.006 C 
ATOM      5  C   UNL     1      -2.256   0.174  24.698  0.00  0.00    +0.005 C 
ATOM      6  C   UNL     1      -3.046   0.383  24.801  0.00  0.00    +0.027 C 
ATOM     17  C   UNL     1      -3.248   1.165  24.967  0.00  0.00    -0.048 C 
ATOM     18  C   UNL     1      -4.040   1.375  25.070  0.00  0.00    +0.026 C 
ATOM     19  C   UNL     1      -2.658   1.739  25.031  0.00  0.00    -0.033 C 
ATOM     20  C   UNL     1      -1.867   1.530  24.929  0.00  0.00    +0.043 C 
ENDROOT
BRANCH   4   2
ATOM      1  C   UNL     1      -0.425   0.294  25.308  0.00  0.00    +0.000 C 
ATOM      2  C   UNL     1      -0.874   0.538  24.660  0.00  0.00    +0.000 C 
ATOM      3  C   UNL     1      -0.533   0.572  23.910  0.00  0.00    +0.000 C 
ENDBRANCH   4   2
BRANCH   6   7
ATOM      7  C   UNL     1      -3.637  -0.190  24.737  0.00  0.00    +0.089 C 
BRANCH   7   8
ATOM      8  C   UNL     1      -3.546  -0.919  25.112  0.00  0.00    +0.226 C 
ATOM      9  O   UNL     1      -3.262  -0.951  25.886  0.00  0.00    -0.275 OA
ATOM     10  N   UNL     1      -3.740  -1.615  24.714  0.00  0.00    -0.277 N 
ATOM     11  C   UNL     1      -4.024  -1.582  23.940  0.00  0.00    +0.111 C 
ATOM     12  C   UNL     1      -4.217  -2.278  23.542  0.00  0.00    +0.094 C 
ATOM     13  N   UNL     1      -4.127  -3.008  23.918  0.00  0.00    -0.269 NA
ATOM     14  C   UNL     1      -4.321  -3.703  23.519  0.00  0.00    +0.090 C 
ATOM     15  C   UNL     1      -3.843  -3.040  24.691  0.00  0.00    +0.094 C 
ATOM     16  C   UNL     1      -3.649  -2.344  25.090  0.00  0.00    +0.111 C 
ENDBRANCH   7   8
ENDBRANCH   6   7
BRANCH  20  21
ATOM     21  C   UNL     1      -1.277   2.103  24.993  0.00  0.00    +0.120 C 
BRANCH  21  22
ATOM     22  N   UNL     1      -1.465   2.901  24.906  0.00  0.00    -0.201 NA
ATOM     23  C   UNL     1      -0.955   3.479  25.198  0.00  0.00    +0.265 C 
ATOM     24  O   UNL     1      -0.256   3.259  25.578  0.00  0.00    -0.268 OA
BRANCH  23  25
ATOM     25  C   UNL     1      -1.143   4.278  25.111  0.00  0.00    +0.055 A 
ATOM     26  C   UNL     1      -1.849   4.572  25.422  0.00  0.00    +0.005 A 
ATOM     27  C   UNL     1      -2.037   5.370  25.335  0.00  0.00    +0.000 A 
ATOM     28  C   UNL     1      -1.520   5.875  24.938  0.00  0.00    +0.000 A 
ATOM     29  C   UNL     1      -0.814   5.581  24.627  0.00  0.00    +0.000 A 
ATOM     30  C   UNL     1      -0.626   4.783  24.714  0.00  0.00    +0.005 A 
ENDBRANCH  23  25
ENDBRANCH  21  22
ENDBRANCH  20  21
TORSDOF 6
ENDMDL
MODEL 4
REMARK VINA RESULT:     -10.4      1.080      5.841
REMARK  Name = 
REMARK  6 active torsions:
REMARK  status: ('A' for Active; 'I' for Inactive)
REMARK    1  A    between atoms: C_2  and  C_4
REMARK    2  A    between atoms: C_6  and  C_7
REMARK    3  A    between atoms: C_7  and  C_8
REMARK    4  A    between atoms: C_20  and  C_21
REMARK    5  A    between atoms: C_21  and  N_22
REMARK    6  A    between atoms: C_23  and  C_25
REMARK                            x       y       z     vdW  Elec       q    Type
REMARK                         _______ _______ _______ _____ _____    ______ ____
ROOT
ATOM      4  C   UNL     1      -3.532   1.671  24.749  0.00  0.00    +0.006 C 
ATOM      5  C   UNL     1      -2.992   2.256  24.964  0.00  0.00    +0.005 C 
ATOM      6  C   UNL     1      -2.228   2.049  25.192  0.00  0.00    +0.027 C 
ATOM     17  C   UNL     1      -2.003   1.255  25.207  0.00  0.00    -0.048 C 
ATOM     18  C   UNL     1      -1.238   1.048  25.436  0.00  0.00    +0.026 C 
ATOM     19  C   UNL     1      -2.543   0.669  24.993  0.00  0.00    -0.033 C 
ATOM     20  C   UNL     1      -3.307   0.877  24.764  0.00  0.00    +0.043 C 
ENDROOT
BRANCH   4   2
ATOM      1  C   UNL     1      -4.919   1.823  25.061  0.00  0.00    +0.000 C 
ATOM      2  C   UNL     1      -4.297   1.879  24.520  0.00  0.00    +0.000 C 
ATOM      3  C   UNL     1      -4.440   2.143  23.753  0.00  0.00    +0.000 C 
ENDBRANCH   4   2
BRANCH   6   7
ATOM      7  C   UNL     1      -1.687   2.635  25.406  0.00  0.00    +0.089 C 
BRANCH   7   8
ATOM      8  C   UNL     1      -1.955   3.386  25.618  0.00  0.00    +0.226 C 
ATOM      9  O   UNL     1      -2.600   3.465  26.128  0.00  0.00    -0.275 OA
ATOM     10  N   UNL     1      -1.579   4.057  25.321  0.00  0.00    -0.277 N 
ATOM     11  C   UNL     1      -0.935   3.977  24.812  0.00  0.00    +0.111 C 
ATOM     12  C   UNL     1      -0.558   4.648  24.515  0.00  0.00    +0.094 C 
ATOM     13  N   UNL     1      -0.827   5.400  24.727  0.00  0.00    -0.269 NA
ATOM     14  C   UNL     1      -0.450   6.071  24.429  0.00  0.00    +0.090 C 
ATOM     15  C   UNL     1      -1.470   5.479  25.236  0.00  0.00    +0.094 C 
ATOM     16  C   UNL     1      -1.847   4.808  25.533  0.00  0.00    +0.111 C 
ENDBRANCH   7   8
ENDBRANCH   6   7
BRANCH  20  21
ATOM     21  C   UNL     1      -3.848   0.292  24.550  0.00  0.00    +0.120 C 
BRANCH  21  22
ATOM     22  N   UNL     1      -3.628  -0.503  24.575  0.00  0.00    -0.201 NA
ATOM     23  C   UNL     1      -4.163  -1.086  24.346  0.00  0.00    +0.265 C 
ATOM     24  O   UNL     1      -4.919  -0.876  24.090  0.00  0.00    -0.268 OA
BRANCH  23  25
ATOM     25  C   UNL     1      -3.943  -1.882  24.371  0.00  0.00    +0.055 A 
ATOM     26  C   UNL     1      -4.098  -2.373  23.726  0.00  0.00    +0.005 A 
ATOM     27  C   UNL     1      -3.878  -3.168  23.751  0.00  0.00    +0.000 A 
ATOM     28  C   UNL     1      -3.503  -3.471  24.422  0.00  0.00    +0.000 A 
ATOM     29  C   UNL     1      -3.349  -2.979  25.065  0.00  0.00    +0.000 A 
ATOM     30  C   UNL     1      -3.569  -2.185  25.040  0.00  0.00    +0.005 A 
ENDBRANCH  23  25
ENDBRANCH  21  22
ENDBRANCH  20  21
TORSDOF 6
ENDMDL
MODEL 5
REMARK VINA RESULT:     -10.2      2.923      4.550
REMARK  Name = 
REMARK  6 active torsions:
REMARK  status: ('A' for Active; 'I' for Inactive)
REMARK    1  A    between atoms: C_2  and  C_4
REMARK    2  A    between atoms: C_6  and  C_7
REMARK    3  A    between atoms: C_7  and  C_8
REMARK    4  A    between atoms: C_20  and  C_21
REMARK    5  A    between atoms: C_21  and  N_22
REMARK    6  A    between atoms: C_23  and  C_25
REMARK                            x       y       z     vdW  Elec       q    Type
REMARK                         _______ _______ _______ _____ _____    ______ ____
ROOT
ATOM      4  C   UNL     1      -2.107   1.886  23.359  0.00  0.00    +0.006 C 
ATOM      5  C   UNL     1      -1.347   1.572  23.431  0.00  0.00    +0.005 C 
ATOM      6  C   UNL     1      -0.975   1.557  24.166  0.00  0.00    +0.027 C 
ATOM     17  C   UNL     1      -1.362   1.856  24.831  0.00  0.00    -0.048 C 
ATOM     18  C   UNL     1      -0.989   1.840  25.567  0.00  0.00    +0.026 C 
ATOM     19  C   UNL     1      -2.122   2.170  24.759  0.00  0.00    -0.033 C 
ATOM     20  C   UNL     1      -2.494   2.186  24.024  0.00  0.00    +0.043 C 
ENDROOT
BRANCH   4   2
ATOM      1  C   UNL     1      -2.926   1.254  22.374  0.00  0.00    +0.000 C 
ATOM      2  C   UNL     1      -2.479   1.902  22.623  0.00  0.00    +0.000 C 
ATOM      3  C   UNL     1      -2.405   2.564  22.137  0.00  0.00    +0.000 C 
ENDBRANCH   4   2
BRANCH   6   7
ATOM      7  C   UNL     1      -0.215   1.243  24.238  0.00  0.00    +0.089 C 
BRANCH   7   8
ATOM      8  C   UNL     1      -0.021   0.540  23.851  0.00  0.00    +0.226 C 
ATOM      9  O   UNL     1      -0.569  -0.076  23.816  0.00  0.00    -0.275 OA
ATOM     10  N   UNL     1       0.720   0.454  23.500  0.00  0.00    -0.277 N 
ATOM     11  C   UNL     1       1.268   1.070  23.535  0.00  0.00    +0.111 C 
ATOM     12  C   UNL     1       2.009   0.985  23.184  0.00  0.00    +0.094 C 
ATOM     13  N   UNL     1       2.203   0.281  22.797  0.00  0.00    -0.269 NA
ATOM     14  C   UNL     1       2.945   0.196  22.446  0.00  0.00    +0.090 C 
ATOM     15  C   UNL     1       1.656  -0.334  22.762  0.00  0.00    +0.094 C 
ATOM     16  C   UNL     1       0.914  -0.249  23.113  0.00  0.00    +0.111 C 
ENDBRANCH   7   8
ENDBRANCH   6   7
BRANCH  20  21
ATOM     21  C   UNL     1      -3.253   2.500  23.952  0.00  0.00    +0.120 C 
BRANCH  21  22
ATOM     22  N   UNL     1      -3.848   2.264  24.472  0.00  0.00    -0.201 NA
ATOM     23  C   UNL     1      -4.520   2.733  24.569  0.00  0.00    +0.265 C 
ATOM     24  O   UNL     1      -4.597   3.437  24.146  0.00  0.00    -0.268 OA
BRANCH  23  25
ATOM     25  C   UNL     1      -5.116   2.497  25.090  0.00  0.00    +0.055 A 
ATOM     26  C   UNL     1      -5.578   1.836  24.916  0.00  0.00    +0.005 A 
ATOM     27  C   UNL     1      -6.173   1.601  25.436  0.00  0.00    +0.000 A 
ATOM     28  C   UNL     1      -6.307   2.027  26.131  0.00  0.00    +0.000 A 
ATOM     29  C   UNL     1      -5.844   2.687  26.304  0.00  0.00    +0.000 A 
ATOM     30  C   UNL     1      -5.249   2.923  25.784  0.00  0.00    +0.005 A 
ENDBRANCH  23  25
ENDBRANCH  21  22
ENDBRANCH  20  21
TORSDOF 6
ENDMDL
MODEL 6
REMARK VINA RESULT:     -10.0      2.871      5.015
REMARK  Name = 
REMARK  6 active torsions:
REMARK  status: ('A' for Active; 'I' for Inactive)
REMARK    1  A    between atoms: C_2  and  C_4
REMARK    2  A    between atoms: C_6  and  C_7
REMARK    3  A    between atoms: C_7  and  C_8
REMARK    4  A    between atoms: C_20  and  C_21
REMARK    5  A    between atoms: C_21  and  N_22
REMARK    6  A    between atoms: C_23  and  C_25
REMARK                            x       y       z     vdW  Elec       q    Type
REMARK                         _______ _______ _______ _____ _____    ______ ____
ROOT
ATOM      4  C   UNL     1      -1.636   0.782  24.749  0.00  0.00    +0.006 C 
ATOM      5  C   UNL     1      -2.299   1.272  24.726  0.00  0.00    +0.005 C 
ATOM      6  C   UNL     1      -2.513   1.645  24.024  0.00  0.00    +0.027 C 
ATOM     17  C   UNL     1      -2.063   1.530  23.342  0.00  0.00    -0.048 C 
ATOM     18  C   UNL     1      -2.277   1.904  22.638  0.00  0.00    +0.026 C 
ATOM     19  C   UNL     1      -1.399   1.039  23.364  0.00  0.00    -0.033 C 
ATOM     20  C   UNL     1      -1.186   0.666  24.066  0.00  0.00    +0.043 C 
ENDROOT
BRANCH   4   2
ATOM      1  C   UNL     1      -1.694  -0.355  25.612  0.00  0.00    +0.000 C 
ATOM      2  C   UNL     1      -1.423   0.407  25.452  0.00  0.00    +0.000 C 
ATOM      3  C   UNL     1      -0.939   0.796  25.995  0.00  0.00    +0.000 C 
ENDBRANCH   4   2
BRANCH   6   7
ATOM      7  C   UNL     1      -3.176   2.136  24.002  0.00  0.00    +0.089 C 
BRANCH   7   8
ATOM      8  C   UNL     1      -3.904   1.857  24.272  0.00  0.00    +0.226 C 
ATOM      9  O   UNL     1      -4.118   1.071  24.143  0.00  0.00    -0.275 OA
ATOM     10  N   UNL     1      -4.418   2.365  24.670  0.00  0.00    -0.277 N 
ATOM     11  C   UNL     1      -4.204   3.151  24.799  0.00  0.00    +0.111 C 
ATOM     12  C   UNL     1      -4.718   3.659  25.197  0.00  0.00    +0.094 C 
ATOM     13  N   UNL     1      -5.447   3.380  25.467  0.00  0.00    -0.269 NA
ATOM     14  C   UNL     1      -5.960   3.888  25.866  0.00  0.00    +0.090 C 
ATOM     15  C   UNL     1      -5.660   2.594  25.339  0.00  0.00    +0.094 C 
ATOM     16  C   UNL     1      -5.147   2.086  24.940  0.00  0.00    +0.111 C 
ENDBRANCH   7   8
ENDBRANCH   6   7
BRANCH  20  21
ATOM     21  C   UNL     1      -0.523   0.175  24.089  0.00  0.00    +0.120 C 
BRANCH  21  22
ATOM     22  N   UNL     1       0.109   0.313  23.577  0.00  0.00    -0.201 NA
ATOM     23  C   UNL     1       0.681  -0.271  23.463  0.00  0.00    +0.265 C 
ATOM     24  O   UNL     1       0.620  -0.992  23.859  0.00  0.00    -0.268 OA
BRANCH  23  25
ATOM     25  C   UNL     1       1.314  -0.133  22.950  0.00  0.00    +0.055 A 
ATOM     26  C   UNL     1       1.288  -0.421  22.177  0.00  0.00    +0.005 A 
ATOM     27  C   UNL     1       1.921  -0.283  21.665  0.00  0.00    +0.000 A 
ATOM     28  C   UNL     1       2.579   0.141  21.927  0.00  0.00    +0.000 A 
ATOM     29  C   UNL     1       2.603   0.427  22.700  0.00  0.00    +0.000 A 
ATOM     30  C   UNL     1       1.971   0.290  23.212  0.00  0.00    +0.005 A 
ENDBRANCH  23  25
ENDBRANCH  21  22
ENDBRANCH  20  21
TORSDOF 6
ENDMDL
