MODEL 1
REMARK VINA RESULT:     -12.0      0.000      0.000
REMARK  Name = 
REMARK  6 active torsions:
REMARK  status: ('A' for Active; 'I' for Inactive)
REMARK    1  A    between atoms: C_5  and  C_6
REMARK    2  A    between atoms: C_6  and  C_7
REMARK    3  A    between atoms: C_10  and  C_12
REMARK    4  A    between atoms: C_19  and  C_20
REMARK    5  A    between atoms: C_20  and  N_21
REMARK    6  A    between atoms: N_21  and  C_22
REMARK                            x       y       z     vdW  Elec       q    Type
REMARK                         _______ _______ _______ _____ _____    ______ ____
ROOT
ATOM      1  O   UNL     1      -3.155   4.325  25.960  0.00  0.00    -0.220 OA
ATOM      2  C   UNL     1      -3.502   3.702  25.544  0.00  0.00    +0.180 C 
ATOM      3  C   UNL     1      -4.318   3.687  25.430  0.00  0.00    +0.038 C 
ATOM      4  C   UNL     1      -4.666   3.065  25.015  0.00  0.00    +0.033 C 
ATOM      5  C   UNL     1      -4.196   2.457  24.715  0.00  0.00    +0.121 C 
ATOM     18  O   UNL     1      -3.380   2.472  24.829  0.00  0.00    -0.354 OA
ATOM     19  C   UNL     1      -3.032   3.094  25.244  0.00  0.00    +0.163 C 
ENDROOT
BRANCH   5   6
ATOM      6  C   UNL     1      -4.543   1.834  24.300  0.00  0.00    +0.079 C 
BRANCH   6   7
ATOM      7  C   UNL     1      -4.543   1.074  24.620  0.00  0.00    +0.103 A 
ATOM      8  N   UNL     1      -4.918   0.841  25.317  0.00  0.00    -0.081 NA
ATOM      9  O   UNL     1      -4.775   0.036  25.428  0.00  0.00    -0.354 OA
ATOM     10  C   UNL     1      -4.311  -0.229  24.800  0.00  0.00    +0.177 A 
ATOM     11  C   UNL     1      -4.168   0.412  24.300  0.00  0.00    +0.058 A 
BRANCH  10  12
ATOM     12  C   UNL     1      -4.039  -1.000  24.689  0.00  0.00    +0.037 A 
ATOM     13  C   UNL     1      -4.313  -1.447  24.052  0.00  0.00    +0.003 A 
ATOM     14  C   UNL     1      -4.041  -2.218  23.942  0.00  0.00    +0.000 A 
ATOM     15  C   UNL     1      -3.494  -2.541  24.467  0.00  0.00    +0.000 A 
ATOM     16  C   UNL     1      -3.219  -2.094  25.104  0.00  0.00    +0.000 A 
ATOM     17  C   UNL     1      -3.492  -1.324  25.215  0.00  0.00    +0.003 A 
ENDBRANCH  10  12
ENDBRANCH   6   7
ENDBRANCH   5   6
BRANCH  19  20
ATOM     20  C   UNL     1      -2.215   3.109  25.359  0.00  0.00    +0.121 C 
BRANCH  20  21
ATOM     21  N   UNL     1      -1.796   2.403  25.427  0.00  0.00    -0.217 NA
BRANCH  21  22
ATOM     22  C   UNL     1      -0.971   2.415  25.474  0.00  0.00    +0.076 C 
ATOM     23  C   UNL     1      -0.518   2.344  24.789  0.00  0.00    +0.036 C 
ATOM     24  C   UNL     1       0.306   2.357  24.836  0.00  0.00    +0.090 C 
ATOM     25  N   UNL     1       0.676   2.440  25.569  0.00  0.00    -0.218 NA
ATOM     26  C   UNL     1       0.222   2.511  26.254  0.00  0.00    +0.090 C 
ATOM     27  C   UNL     1      -0.602   2.499  26.207  0.00  0.00    +0.036 C 
ENDBRANCH  21  22
ENDBRANCH  20  21
ENDBRANCH  19  20
TORSDOF 6
ENDMDL
MODEL 2
REMARK VINA RESULT:     -11.3      1.231      4.416
REMARK  Name = 
REMARK  6 active torsions:
REMARK  status: ('A' for Active; 'I' for Inactive)
REMARK    1  A    between atoms: C_5  and  C_6
REMARK    2  A    between atoms: C_6  and  C_7
REMARK    3  A    between atoms: C_10  and  C_12
REMARK    4  A    between atoms: C_19  and  C_20
REMARK    5  A    between atoms: C_20  and  N_21
REMARK    6  A    between atoms: N_21  and  C_22
REMARK                            x       y       z     vdW  Elec       q    Type
REMARK                         _______ _______ _______ _____ _____    ______ ____
ROOT
ATOM      1  O   UNL     1      -6.315   1.377  25.767  0.00  0.00    -0.220 OA
ATOM      2  C   UNL     1      -5.743   1.917  25.515  0.00  0.00    +0.180 C 
ATOM      3  C   UNL     1      -5.859   2.725  25.633  0.00  0.00    +0.038 C 
ATOM      4  C   UNL     1      -5.289   3.265  25.381  0.00  0.00    +0.033 C 
ATOM      5  C   UNL     1      -4.602   2.996  25.012  0.00  0.00    +0.121 C 
ATOM     18  O   UNL     1      -4.486   2.188  24.894  0.00  0.00    -0.354 OA
ATOM     19  C   UNL     1      -5.057   1.648  25.146  0.00  0.00    +0.163 C 
ENDROOT
BRANCH   5   6
ATOM      6  C   UNL     1      -4.031   3.536  24.760  0.00  0.00    +0.079 C 
BRANCH   6   7
ATOM      7  C   UNL     1      -3.330   3.624  25.185  0.00  0.00    +0.103 A 
ATOM      8  N   UNL     1      -3.222   4.099  25.850  0.00  0.00    -0.081 NA
ATOM      9  O   UNL     1      -2.438   4.021  26.096  0.00  0.00    -0.354 OA
ATOM     10  C   UNL     1      -2.062   3.497  25.584  0.00  0.00    +0.177 A 
ATOM     11  C   UNL     1      -2.613   3.251  25.020  0.00  0.00    +0.058 A 
BRANCH  10  12
ATOM     12  C   UNL     1      -1.273   3.259  25.626  0.00  0.00    +0.037 A 
ATOM     13  C   UNL     1      -0.710   3.610  25.136  0.00  0.00    +0.003 A 
ATOM     14  C   UNL     1       0.079   3.373  25.178  0.00  0.00    +0.000 A 
ATOM     15  C   UNL     1       0.305   2.784  25.710  0.00  0.00    +0.000 A 
ATOM     16  C   UNL     1      -0.258   2.433  26.201  0.00  0.00    +0.000 A 
ATOM     17  C   UNL     1      -1.047   2.670  26.158  0.00  0.00    +0.003 A 
ENDBRANCH  10  12
ENDBRANCH   6   7
ENDBRANCH   5   6
BRANCH  19  20
ATOM     20  C   UNL     1      -4.940   0.840  25.029  0.00  0.00    +0.121 C 
BRANCH  20  21
ATOM     21  N   UNL     1      -4.194   0.557  24.822  0.00  0.00    -0.217 NA
BRANCH  21  22
ATOM     22  C   UNL     1      -4.060  -0.257  24.775  0.00  0.00    +0.076 C 
ATOM     23  C   UNL     1      -3.711  -0.654  25.408  0.00  0.00    +0.036 C 
ATOM     24  C   UNL     1      -3.577  -1.467  25.361  0.00  0.00    +0.090 C 
ATOM     25  N   UNL     1      -3.792  -1.882  24.681  0.00  0.00    -0.218 NA
ATOM     26  C   UNL     1      -4.141  -1.484  24.048  0.00  0.00    +0.090 C 
ATOM     27  C   UNL     1      -4.275  -0.671  24.095  0.00  0.00    +0.036 C 
ENDBRANCH  21  22
ENDBRANCH  20  21
ENDBRANCH  19  20
TORSDOF 6
ENDMDL
MODEL 3
REMARK VINA RESULT:     -11.3      1.549      3.283
REMARK  Name = 
REMARK  6 active torsions:
REMARK  status: ('A' for Active; 'I' for Inactive)
REMARK    1  A    between atoms: C_5  and  C_6
REMARK    2  A    between atoms: C_6  and  C_7
REMARK    3  A    between atoms: C_10  and  C_12
REMARK    4  A    between atoms: C_19  and  C_20
REMARK    5  A    between atoms: C_20  and  N_21
REMARK    6  A    between atoms: N_21  and  C_22
REMARK                            x       y       z     vdW  Elec       q    Type
REMARK                         _______ _______ _______ _____ _____    ______ ____
ROOT
ATOM      1  O   UNL     1      -1.129   3.567  24.565  0.00  0.00    -0.220 OA
ATOM      2  C   UNL     1      -1.107   2.788  24.840  0.00  0.00    +0.180 C 
ATOM      3  C   UNL     1      -0.399   2.367  24.830  0.00  0.00    +0.038 C 
ATOM      4  C   UNL     1      -0.376   1.590  25.104  0.00  0.00    +0.033 C 
ATOM      5  C   UNL     1      -1.064   1.234  25.388  0.00  0.00    +0.121 C 
ATOM     18  O   UNL     1      -1.773   1.655  25.398  0.00  0.00    -0.354 OA
ATOM     19  C   UNL     1      -1.795   2.433  25.124  0.00  0.00    +0.163 C 
ENDROOT
BRANCH   5   6
ATOM      6  C   UNL     1      -1.043   0.456  25.663  0.00  0.00    +0.079 C 
BRANCH   6   7
ATOM      7  C   UNL     1      -1.327  -0.157  25.190  0.00  0.00    +0.103 A 
ATOM      8  N   UNL     1      -0.913  -0.536  24.586  0.00  0.00    -0.081 NA
ATOM      9  O   UNL     1      -1.406  -1.112  24.260  0.00  0.00    -0.354 OA
ATOM     10  C   UNL     1      -2.125  -1.089  24.662  0.00  0.00    +0.177 A 
ATOM     11  C   UNL     1      -2.076  -0.499  25.237  0.00  0.00    +0.058 A 
BRANCH  10  12
ATOM     12  C   UNL     1      -2.778  -1.571  24.516  0.00  0.00    +0.037 A 
ATOM     13  C   UNL     1      -2.751  -2.372  24.708  0.00  0.00    +0.003 A 
ATOM     14  C   UNL     1      -3.404  -2.854  24.562  0.00  0.00    +0.000 A 
ATOM     15  C   UNL     1      -4.085  -2.535  24.224  0.00  0.00    +0.000 A 
ATOM     16  C   UNL     1      -4.113  -1.733  24.032  0.00  0.00    +0.000 A 
ATOM     17  C   UNL     1      -3.460  -1.251  24.178  0.00  0.00    +0.003 A 
ENDBRANCH  10  12
ENDBRANCH   6   7
ENDBRANCH   5   6
BRANCH  19  20
ATOM     20  C   UNL     1      -2.504   2.854  25.134  0.00  0.00    +0.121 C 
BRANCH  20  21
ATOM     21  N   UNL     1      -3.160   2.567  24.726  0.00  0.00    -0.217 NA
BRANCH  21  22
ATOM     22  C   UNL     1      -3.921   2.787  24.960  0.00  0.00    +0.076 C 
ATOM     23  C   UNL     1      -4.534   2.235  24.941  0.00  0.00    +0.036 C 
ATOM     24  C   UNL     1      -5.294   2.455  25.175  0.00  0.00    +0.090 C 
ATOM     25  N   UNL     1      -5.441   3.228  25.427  0.00  0.00    -0.218 NA
ATOM     26  C   UNL     1      -4.827   3.779  25.445  0.00  0.00    +0.090 C 
ATOM     27  C   UNL     1      -4.067   3.558  25.211  0.00  0.00    +0.036 C 
ENDBRANCH  21  22
ENDBRANCH  20  21
ENDBRANCH  19  20
TORSDOF 6
ENDMDL
MODEL 4
REMARK VINA RESULT:     -11.0      1.628      3.664
REMARK  Name = 
REMARK  6 active torsions:
REMARK  status: ('A' for Active; 'I' for Inactive)
REMARK    1  A    between atoms: C_5  and  C_6
REMARK    2  A    between atoms: C_6  and  C_7
REMARK    3  A    between atoms: C_10  and  C_12
REMARK    4  A    between atoms: C_19  and  C_20
REMARK    5  A    between atoms: C_20  and  N_21
REMARK    6  A    between atoms: N_21  and  C_22
REMARK                            x       y       z     vdW  Elec       q    Type
REMARK                         _______ _______ _______ _____ _____    ______ ____
ROOT
ATOM      1  O   UNL     1      -0.355  -1.620  24.376  0.00  0.00    -0.220 OA
ATOM      2  C   UNL     1      -1.131  -1.521  24.641  0.00  0.00    +0.180 C 
ATOM      3  C   UNL     1      -1.667  -2.145  24.588  0.00  0.00    +0.038 C 
ATOM      4  C   UNL     1      -2.442  -2.046  24.853  0.00  0.00    +0.033 C 
ATOM      5  C   UNL     1      -2.680  -1.323  25.171  0.00  0.00    +0.121 C 
ATOM     18  O   UNL     1      -2.143  -0.700  25.224  0.00  0.00    -0.354 OA
ATOM     19  C   UNL     1      -1.368  -0.798  24.959  0.00  0.00    +0.163 C 
ENDROOT
BRANCH   5   6
ATOM      6  C   UNL     1      -3.455  -1.225  25.436  0.00  0.00    +0.079 C 
BRANCH   6   7
ATOM      7  C   UNL     1      -3.937  -0.647  25.097  0.00  0.00    +0.103 A 
ATOM      8  N   UNL     1      -4.337  -0.710  24.378  0.00  0.00    -0.081 NA
ATOM      9  O   UNL     1      -4.751  -0.007  24.254  0.00  0.00    -0.354 OA
ATOM     10  C   UNL     1      -4.606   0.490  24.895  0.00  0.00    +0.177 A 
ATOM     11  C   UNL     1      -4.103   0.095  25.416  0.00  0.00    +0.058 A 
BRANCH  10  12
ATOM     12  C   UNL     1      -4.911   1.250  24.998  0.00  0.00    +0.037 A 
ATOM     13  C   UNL     1      -5.621   1.358  25.403  0.00  0.00    +0.003 A 
ATOM     14  C   UNL     1      -5.926   2.118  25.506  0.00  0.00    +0.000 A 
ATOM     15  C   UNL     1      -5.520   2.769  25.204  0.00  0.00    +0.000 A 
ATOM     16  C   UNL     1      -4.810   2.662  24.799  0.00  0.00    +0.000 A 
ATOM     17  C   UNL     1      -4.505   1.902  24.696  0.00  0.00    +0.003 A 
ENDBRANCH  10  12
ENDBRANCH   6   7
ENDBRANCH   5   6
BRANCH  19  20
ATOM     20  C   UNL     1      -0.832  -0.174  25.012  0.00  0.00    +0.121 C 
BRANCH  20  21
ATOM     21  N   UNL     1      -1.069   0.591  24.817  0.00  0.00    -0.217 NA
BRANCH  21  22
ATOM     22  C   UNL     1      -0.572   1.231  24.977  0.00  0.00    +0.076 C 
ATOM     23  C   UNL     1      -0.558   1.562  25.733  0.00  0.00    +0.036 C 
ATOM     24  C   UNL     1      -0.061   2.201  25.894  0.00  0.00    +0.090 C 
ATOM     25  N   UNL     1       0.421   2.509  25.299  0.00  0.00    -0.218 NA
ATOM     26  C   UNL     1       0.406   2.178  24.544  0.00  0.00    +0.090 C 
ATOM     27  C   UNL     1      -0.090   1.538  24.383  0.00  0.00    +0.036 C 
ENDBRANCH  21  22
ENDBRANCH  20  21
ENDBRANCH  19  20
TORSDOF 6
ENDMDL
MODEL 5
REMARK VINA RESULT:     -11.0      1.779      4.277
REMARK  Name = 
REMARK  6 active torsions:
REMARK  status: ('A' for Active; 'I' for Inactive)
REMARK    1  A    between atoms: C_5  and  C_6
REMARK    2  A    between atoms: C_6  and  C_7
REMARK    3  A    between atoms: C_10  and  C_12
REMARK    4  A    between atoms: C_19  and  C_20
REMARK    5  A    between atoms: C_20  and  N_21
REMARK    6  A    between atoms: N_21  and  C_22
REMARK                            x       y       z     vdW  Elec       q    Type
REMARK                         _______ _______ _______ _____ _____    ______ ____
ROOT
ATOM      1  O   UNL     1      -4.284  -0.748  25.154  0.00  0.00    -0.220 OA
ATOM      2  C   UNL     1      -4.285   0.058  24.977  0.00  0.00    +0.180 C 
ATOM      3  C   UNL     1      -4.973   0.501  25.074  0.00  0.00    +0.038 C 
ATOM      4  C   UNL     1      -4.975   1.306  24.897  0.00  0.00    +0.033 C 
ATOM      5  C   UNL     1      -4.286   1.669  24.623  0.00  0.00    +0.121 C 
ATOM     18  O   UNL     1      -3.598   1.226  24.526  0.00  0.00    -0.354 OA
ATOM     19  C   UNL     1      -3.596   0.420  24.703  0.00  0.00    +0.163 C 
ENDROOT
BRANCH   5   6
ATOM      6  C   UNL     1      -4.287   2.475  24.446  0.00  0.00    +0.079 C 
BRANCH   6   7
ATOM      7  C   UNL     1      -3.786   2.988  24.854  0.00  0.00    +0.103 A 
ATOM      8  N   UNL     1      -3.898   3.268  25.622  0.00  0.00    -0.081 NA
ATOM      9  O   UNL     1      -3.266   3.764  25.808  0.00  0.00    -0.354 OA
ATOM     10  C   UNL     1      -2.762   3.790  25.156  0.00  0.00    +0.177 A 
ATOM     11  C   UNL     1      -3.084   3.311  24.566  0.00  0.00    +0.058 A 
BRANCH  10  12
ATOM     12  C   UNL     1      -2.061   4.220  25.102  0.00  0.00    +0.037 A 
ATOM     13  C   UNL     1      -1.338   3.826  25.052  0.00  0.00    +0.003 A 
ATOM     14  C   UNL     1      -0.636   4.257  24.998  0.00  0.00    +0.000 A 
ATOM     15  C   UNL     1      -0.657   5.081  24.994  0.00  0.00    +0.000 A 
ATOM     16  C   UNL     1      -1.380   5.476  25.043  0.00  0.00    +0.000 A 
ATOM     17  C   UNL     1      -2.081   5.046  25.097  0.00  0.00    +0.003 A 
ENDBRANCH  10  12
ENDBRANCH   6   7
ENDBRANCH   5   6
BRANCH  19  20
ATOM     20  C   UNL     1      -2.907  -0.022  24.606  0.00  0.00    +0.121 C 
BRANCH  20  21
ATOM     21  N   UNL     1      -2.210   0.213  24.978  0.00  0.00    -0.217 NA
BRANCH  21  22
ATOM     22  C   UNL     1      -1.497  -0.160  24.792  0.00  0.00    +0.076 C 
ATOM     23  C   UNL     1      -0.992   0.173  24.231  0.00  0.00    +0.036 C 
ATOM     24  C   UNL     1      -0.279  -0.199  24.046  0.00  0.00    +0.090 C 
ATOM     25  N   UNL     1      -0.072  -0.904  24.421  0.00  0.00    -0.218 NA
ATOM     26  C   UNL     1      -0.578  -1.236  24.982  0.00  0.00    +0.090 C 
ATOM     27  C   UNL     1      -1.290  -0.864  25.167  0.00  0.00    +0.036 C 
ENDBRANCH  21  22
ENDBRANCH  20  21
ENDBRANCH  19  20
TORSDOF 6
ENDMDL
MODEL 6
REMARK VINA RESULT:     -10.8      1.985      3.613
REMARK  Name = 
REMARK  6 active torsions:
REMARK  status: ('A' for Active; 'I' for Inactive)
REMARK    1  A    between atoms: C_5  and  C_6
REMARK    2  A    between atoms: C_6  and  C_7
REMARK    3  A    between atoms: C_10  and  C_12
REMARK    4  A    between atoms: C_19  and  C_20
REMARK    5  A    between atoms: C_20  and  N_21
REMARK    6  A    between atoms: N_21  and  C_22
REMARK                            x       y       z     vdW  Elec       q    Type
REMARK                         _______ _______ _______ _____ _____    ______ ____
ROOT
ATOM      1  O   UNL     1       0.546   2.412  26.058  0.00  0.00    -0.220 OA
ATOM      2  C   UNL     1      -0.137   2.716  25.707  0.00  0.00    +0.180 C 
ATOM      3  C   UNL     1      -0.266   3.530  25.692  0.00  0.00    +0.038 C 
ATOM      4  C   UNL     1      -0.947   3.834  25.341  0.00  0.00    +0.033 C 
ATOM      5  C   UNL     1      -1.500   3.322  25.004  0.00  0.00    +0.121 C 
ATOM     18  O   UNL     1      -1.371   2.508  25.019  0.00  0.00    -0.354 OA
ATOM     19  C   UNL     1      -0.690   2.204  25.371  0.00  0.00    +0.163 C 
ENDROOT
BRANCH   5   6
ATOM      6  C   UNL     1      -2.183   3.625  24.653  0.00  0.00    +0.079 C 
BRANCH   6   7
ATOM      7  C   UNL     1      -2.914   3.533  25.023  0.00  0.00    +0.103 A 
ATOM      8  N   UNL     1      -3.185   3.960  25.675  0.00  0.00    -0.081 NA
ATOM      9  O   UNL     1      -3.942   3.688  25.861  0.00  0.00    -0.354 OA
ATOM     10  C   UNL     1      -4.138   3.093  25.326  0.00  0.00    +0.177 A 
ATOM     11  C   UNL     1      -3.502   2.997  24.807  0.00  0.00    +0.058 A 
BRANCH  10  12
ATOM     12  C   UNL     1      -4.844   2.668  25.310  0.00  0.00    +0.037 A 
ATOM     13  C   UNL     1      -4.904   1.983  24.854  0.00  0.00    +0.003 A 
ATOM     14  C   UNL     1      -5.611   1.558  24.838  0.00  0.00    +0.000 A 
ATOM     15  C   UNL     1      -6.258   1.817  25.278  0.00  0.00    +0.000 A 
ATOM     16  C   UNL     1      -6.199   2.502  25.735  0.00  0.00    +0.000 A 
ATOM     17  C   UNL     1      -5.492   2.927  25.751  0.00  0.00    +0.003 A 
ENDBRANCH  10  12
ENDBRANCH   6   7
ENDBRANCH   5   6
BRANCH  19  20
ATOM     20  C   UNL     1      -0.561   1.390  25.386  0.00  0.00    +0.121 C 
BRANCH  20  21
ATOM     21  N   UNL     1      -1.025   0.890  24.923  0.00  0.00    -0.217 NA
BRANCH  21  22
ATOM     22  C   UNL     1      -0.939   0.071  24.985  0.00  0.00    +0.076 C 
ATOM     23  C   UNL     1      -1.303  -0.336  25.604  0.00  0.00    +0.036 C 
ATOM     24  C   UNL     1      -1.217  -1.154  25.665  0.00  0.00    +0.090 C 
ATOM     25  N   UNL     1      -0.767  -1.565  25.108  0.00  0.00    -0.218 NA
ATOM     26  C   UNL     1      -0.404  -1.157  24.490  0.00  0.00    +0.090 C 
ATOM     27  C   UNL     1      -0.490  -0.339  24.428  0.00  0.00    +0.036 C 
ENDBRANCH  21  22
ENDBRANCH  20  21
ENDBRANCH  19  20
TORSDOF 6
ENDMDL
MODEL 7
REMARK VINA RESULT:     -10.7      1.760      4.687
REMARK  Name = 
REMARK  6 active torsions:
REMARK  status: ('A' for Active; 'I' for Inactive)
REMARK    1  A    between atoms: C_5  and  C_6
REMARK    2  A    between atoms: C_6  and  C_7
REMARK    3  A    between atoms: C_10  and  C_12
REMARK    4  A    between atoms: C_19  and  C_20
REMARK    5  A    between atoms: C_20  and  N_21
REMARK    6  A    between atoms: N_21  and  C_22
REMARK                            x       y       z     vdW  Elec       q    Type
REMARK                         _______ _______ _______ _____ _____    ______ ____
ROOT
ATOM      1  O   UNL     1      -0.158  -0.708  23.773  0.00  0.00    -0.220 OA
ATOM      2  C   UNL     1      -0.449  -0.032  24.147  0.00  0.00    +0.180 C 
ATOM      3  C   UNL     1      -0.004   0.662  24.148  0.00  0.00    +0.038 C 
ATOM      4  C   UNL     1      -0.294   1.338  24.522  0.00  0.00    +0.033 C 
ATOM      5  C   UNL     1      -1.030   1.318  24.895  0.00  0.00    +0.121 C 
ATOM     18  O   UNL     1      -1.474   0.624  24.894  0.00  0.00    -0.354 OA
ATOM     19  C   UNL     1      -1.184  -0.052  24.520  0.00  0.00    +0.163 C 
ENDROOT
BRANCH   5   6
ATOM      6  C   UNL     1      -1.321   1.994  25.269  0.00  0.00    +0.079 C 
BRANCH   6   7
ATOM      7  C   UNL     1      -2.014   2.349  24.999  0.00  0.00    +0.103 A 
ATOM      8  N   UNL     1      -2.098   2.782  24.302  0.00  0.00    -0.081 NA
ATOM      9  O   UNL     1      -2.882   3.035  24.250  0.00  0.00    -0.354 OA
ATOM     10  C   UNL     1      -3.283   2.757  24.915  0.00  0.00    +0.177 A 
ATOM     11  C   UNL     1      -2.747   2.334  25.378  0.00  0.00    +0.058 A 
BRANCH  10  12
ATOM     12  C   UNL     1      -4.080   2.882  25.087  0.00  0.00    +0.037 A 
ATOM     13  C   UNL     1      -4.637   2.303  24.900  0.00  0.00    +0.003 A 
ATOM     14  C   UNL     1      -5.434   2.427  25.072  0.00  0.00    +0.000 A 
ATOM     15  C   UNL     1      -5.674   3.129  25.431  0.00  0.00    +0.000 A 
ATOM     16  C   UNL     1      -5.117   3.709  25.619  0.00  0.00    +0.000 A 
ATOM     17  C   UNL     1      -4.320   3.584  25.447  0.00  0.00    +0.003 A 
ENDBRANCH  10  12
ENDBRANCH   6   7
ENDBRANCH   5   6
BRANCH  19  20
ATOM     20  C   UNL     1      -1.629  -0.747  24.520  0.00  0.00    +0.121 C 
BRANCH  20  21
ATOM     21  N   UNL     1      -2.383  -0.754  24.853  0.00  0.00    -0.217 NA
BRANCH  21  22
ATOM     22  C   UNL     1      -2.908  -1.365  24.672  0.00  0.00    +0.076 C 
ATOM     23  C   UNL     1      -2.776  -2.123  24.970  0.00  0.00    +0.036 C 
ATOM     24  C   UNL     1      -3.301  -2.734  24.790  0.00  0.00    +0.090 C 
ATOM     25  N   UNL     1      -3.958  -2.586  24.312  0.00  0.00    -0.218 NA
ATOM     26  C   UNL     1      -4.089  -1.828  24.014  0.00  0.00    +0.090 C 
ATOM     27  C   UNL     1      -3.564  -1.217  24.195  0.00  0.00    +0.036 C 
ENDBRANCH  21  22
ENDBRANCH  20  21
ENDBRANCH  19  20
TORSDOF 6
ENDMDL
