MODEL 1
REMARK VINA RESULT:     -10.5      0.000      0.000
REMARK  Name = 
REMARK  9 active torsions:
REMARK  status: ('A' for Active; 'I' for Inactive)
REMARK    1  A    between atoms: S_2  and  C_3
REMARK    2  A    between atoms: C_3  and  C_4
REMARK    3  A    between atoms: C_8  and  N_24
REMARK    4  A    between atoms: C_10  and  C_11
REMARK    5  A    between atoms: N_13  and  C_14
REMARK    6  A    between atoms: C_14  and  C_15
REMARK    7  A    between atoms: C_14  and  C_21
REMARK    8  A    between atoms: C_15  and  C_16
REMARK    9  A    between atoms: N_27  and  C_28
REMARK                            x       y       z     vdW  Elec       q    Type
REMARK                         _______ _______ _______ _____ _____    ______ ____
ROOT
ATOM      4  C   UNL     1      -0.904   2.162  25.030  0.00  0.00    +0.237 C 
ATOM      5  O   UNL     1      -0.090   2.033  25.052  0.00  0.00    -0.274 OA
ATOM      6  N   UNL     1      -1.423   1.521  25.007  0.00  0.00    -0.270 N 
ATOM      7  C   UNL     1      -1.210   0.724  25.003  0.00  0.00    +0.116 C 
ATOM      8  C   UNL     1      -1.901   0.274  24.977  0.00  0.00    +0.119 C 
ATOM      9  C   UNL     1      -2.542   0.794  24.965  0.00  0.00    +0.053 C 
ATOM     10  C   UNL     1      -2.246   1.563  24.984  0.00  0.00    +0.155 C 
ENDROOT
BRANCH   8  24
ATOM     24  N   UNL     1      -1.944  -0.549  24.966  0.00  0.00    -0.187 NA
ATOM     25  C   UNL     1      -1.299  -1.000  25.214  0.00  0.00    +0.344 C 
ATOM     26  O   UNL     1      -0.611  -0.627  25.474  0.00  0.00    -0.249 OA
ATOM     27  N   UNL     1      -1.342  -1.823  25.202  0.00  0.00    -0.159 NA
BRANCH  27  28
ATOM     28  C   UNL     1      -2.031  -2.197  24.942  0.00  0.00    +0.102 A 
ATOM     29  C   UNL     1      -2.025  -2.624  24.236  0.00  0.00    +0.158 A 
ATOM     30  F   UNL     1      -1.333  -2.678  23.792  0.00  0.00    -0.203 F 
ATOM     31  C   UNL     1      -2.712  -2.999  23.975  0.00  0.00    +0.061 A 
ATOM     32  C   UNL     1      -3.406  -2.946  24.420  0.00  0.00    +0.142 A 
ATOM     33  F   UNL     1      -4.093  -3.320  24.159  0.00  0.00    -0.204 F 
ATOM     34  C   UNL     1      -3.411  -2.518  25.126  0.00  0.00    +0.031 A 
ATOM     35  C   UNL     1      -2.723  -2.144  25.387  0.00  0.00    +0.021 A 
ENDBRANCH  27  28
ENDBRANCH   8  24
BRANCH  10  11
ATOM     11  C   UNL     1      -2.696   2.256  24.979  0.00  0.00    +0.260 C 
ATOM     12  O   UNL     1      -2.432   2.921  25.390  0.00  0.00    -0.272 OA
ATOM     13  N   UNL     1      -3.409   2.283  24.564  0.00  0.00    -0.196 NA
BRANCH  13  14
ATOM     14  C   UNL     1      -3.857   2.974  24.560  0.00  0.00    +0.179 C 
BRANCH  14  21
ATOM     21  C   UNL     1      -3.838   3.476  23.905  0.00  0.00    +0.281 C 
ATOM     22  N   UNL     1      -3.828   3.159  23.144  0.00  0.00    -0.086 NA
ATOM     23  O   UNL     1      -3.828   4.293  24.011  0.00  0.00    -0.270 OA
ENDBRANCH  14  21
BRANCH  14  15
ATOM     15  C   UNL     1      -4.326   3.165  25.211  0.00  0.00    +0.064 C 
BRANCH  15  16
ATOM     16  C   UNL     1      -5.052   2.787  25.323  0.00  0.00    +0.010 A 
ATOM     17  C   UNL     1      -5.444   2.319  24.769  0.00  0.00    +0.003 A 
ATOM     18  C   UNL     1      -6.146   2.053  25.113  0.00  0.00    +0.007 A 
ATOM     19  C   UNL     1      -6.187   2.356  25.878  0.00  0.00    +0.035 A 
ATOM     20  S   UNL     1      -5.510   2.810  26.008  0.00  0.00    -0.091 S 
ENDBRANCH  15  16
ENDBRANCH  14  15
ENDBRANCH  13  14
ENDBRANCH  10  11
BRANCH   4   3
ATOM      3  C   UNL     1      -1.200   2.932  25.031  0.00  0.00    +0.143 C 
BRANCH   3   2
ATOM      1  C   UNL     1      -0.506   4.126  24.663  0.00  0.00    +0.070 C 
ATOM      2  S   UNL     1      -0.708   3.563  25.231  0.00  0.00    -0.130 S 
ENDBRANCH   3   2
ENDBRANCH   4   3
TORSDOF 9
ENDMDL
MODEL 2
REMARK VINA RESULT:     -10.2      2.318      3.079
REMARK  Name = 
REMARK  9 active torsions:
REMARK  status: ('A' for Active; 'I' for Inactive)
REMARK    1  A    between atoms: S_2  and  C_3
REMARK    2  A    between atoms: C_3  and  C_4
REMARK    3  A    between atoms: C_8  and  N_24
REMARK    4  A    between atoms: C_10  and  C_11
REMARK    5  A    between atoms: N_13  and  C_14
REMARK    6  A    between atoms: C_14  and  C_15
REMARK    7  A    between atoms: C_14  and  C_21
REMARK    8  A    between atoms: C_15  and  C_16
REMARK    9  A    between atoms: N_27  and  C_28
REMARK                            x       y       z     vdW  Elec       q    Type
REMARK                         _______ _______ _______ _____ _____    ______ ____
ROOT
ATOM      4  C   UNL     1       0.345   0.137  23.708  0.00  0.00    +0.237 C 
ATOM      5  O   UNL     1       0.599  -0.491  23.238  0.00  0.00    -0.274 OA
ATOM      6  N   UNL     1      -0.369   0.083  24.118  0.00  0.00    -0.270 N 
ATOM      7  C   UNL     1      -0.885  -0.560  24.109  0.00  0.00    +0.116 C 
ATOM      8  C   UNL     1      -1.528  -0.378  24.594  0.00  0.00    +0.119 C 
ATOM      9  C   UNL     1      -1.408   0.378  24.901  0.00  0.00    +0.053 C 
ATOM     10  C   UNL     1      -0.693   0.663  24.607  0.00  0.00    +0.155 C 
ENDROOT
BRANCH   8  24
ATOM     24  N   UNL     1      -2.176  -0.865  24.744  0.00  0.00    -0.187 NA
ATOM     25  C   UNL     1      -2.362  -1.077  25.520  0.00  0.00    +0.344 C 
ATOM     26  O   UNL     1      -1.901  -0.801  26.145  0.00  0.00    -0.249 OA
ATOM     27  N   UNL     1      -3.010  -1.564  25.669  0.00  0.00    -0.159 NA
BRANCH  27  28
ATOM     28  C   UNL     1      -3.473  -1.841  25.044  0.00  0.00    +0.102 A 
ATOM     29  C   UNL     1      -3.469  -2.644  24.853  0.00  0.00    +0.158 A 
ATOM     30  F   UNL     1      -3.004  -3.169  25.286  0.00  0.00    -0.203 F 
ATOM     31  C   UNL     1      -3.931  -2.922  24.228  0.00  0.00    +0.061 A 
ATOM     32  C   UNL     1      -4.397  -2.396  23.794  0.00  0.00    +0.142 A 
ATOM     33  F   UNL     1      -4.859  -2.673  23.170  0.00  0.00    -0.204 F 
ATOM     34  C   UNL     1      -4.401  -1.593  23.985  0.00  0.00    +0.031 A 
ATOM     35  C   UNL     1      -3.938  -1.316  24.611  0.00  0.00    +0.021 A 
ENDBRANCH  27  28
ENDBRANCH   8  24
BRANCH  10  11
ATOM     11  C   UNL     1      -0.358   1.399  24.774  0.00  0.00    +0.260 C 
ATOM     12  O   UNL     1       0.293   1.662  24.341  0.00  0.00    -0.272 OA
ATOM     13  N   UNL     1      -0.674   1.871  25.372  0.00  0.00    -0.196 NA
BRANCH  13  14
ATOM     14  C   UNL     1      -0.340   2.606  25.538  0.00  0.00    +0.179 C 
BRANCH  14  21
ATOM     21  C   UNL     1       0.165   2.693  26.184  0.00  0.00    +0.281 C 
ATOM     22  N   UNL     1      -0.045   2.379  26.917  0.00  0.00    -0.086 NA
ATOM     23  O   UNL     1       0.880   3.095  26.098  0.00  0.00    -0.270 OA
ENDBRANCH  14  21
BRANCH  14  15
ATOM     15  C   UNL     1      -0.511   3.254  25.057  0.00  0.00    +0.064 C 
BRANCH  15  16
ATOM     16  C   UNL     1      -1.147   3.748  25.240  0.00  0.00    +0.010 A 
ATOM     17  C   UNL     1      -1.818   3.534  25.668  0.00  0.00    +0.003 A 
ATOM     18  C   UNL     1      -2.308   4.196  25.720  0.00  0.00    +0.007 A 
ATOM     19  C   UNL     1      -1.940   4.818  25.324  0.00  0.00    +0.035 A 
ATOM     20  S   UNL     1      -1.221   4.541  25.028  0.00  0.00    -0.091 S 
ENDBRANCH  15  16
ENDBRANCH  14  15
ENDBRANCH  13  14
ENDBRANCH  10  11
BRANCH   4   3
ATOM      3  C   UNL     1       0.806   0.818  23.770  0.00  0.00    +0.143 C 
BRANCH   3   2
ATOM      1  C   UNL     1       2.203   0.873  23.474  0.00  0.00    +0.070 C 
ATOM      2  S   UNL     1       1.418   0.953  23.234  0.00  0.00    -0.130 S 
ENDBRANCH   3   2
ENDBRANCH   4   3
TORSDOF 9
ENDMDL
MODEL 3
REMARK VINA RESULT:     -10.1      2.548      5.070
REMARK  Name = 
REMARK  9 active torsions:
REMARK  status: ('A' for Active; 'I' for Inactive)
REMARK    1  A    between atoms: S_2  and  C_3
REMARK    2  A    between atoms: C_3  and  C_4
REMARK    3  A    between atoms: C_8  and  N_24
REMARK    4  A    between atoms: C_10  and  C_11
REMARK    5  A    between atoms: N_13  and  C_14
REMARK    6  A    between atoms: C_14  and  C_15
REMARK    7  A    between atoms: C_14  and  C_21
REMARK    8  A    between atoms: C_15  and  C_16
REMARK    9  A    between atoms: N_27  and  C_28
REMARK                            x       y       z     vdW  Elec       q    Type
REMARK                         _______ _______ _______ _____ _____    ______ ____
ROOT
ATOM      4  C   UNL     1      -0.010   1.089  23.677  0.00  0.00    +0.237 C 
ATOM      5  O   UNL     1       0.373   1.654  23.216  0.00  0.00    -0.274 OA
ATOM      6  N   UNL     1      -0.647   1.307  24.154  0.00  0.00    -0.270 N 
ATOM      7  C   UNL     1      -0.961   2.067  24.225  0.00  0.00    +0.116 C 
ATOM      8  C   UNL     1      -1.590   2.035  24.758  0.00  0.00    +0.119 C 
ATOM      9  C   UNL     1      -1.665   1.255  25.016  0.00  0.00    +0.053 C 
ATOM     10  C   UNL     1      -1.083   0.806  24.643  0.00  0.00    +0.155 C 
ENDROOT
BRANCH   8  24
ATOM     24  N   UNL     1      -2.061   2.670  24.991  0.00  0.00    -0.187 NA
ATOM     25  C   UNL     1      -1.712   3.351  25.301  0.00  0.00    +0.344 C 
ATOM     26  O   UNL     1      -0.893   3.396  25.378  0.00  0.00    -0.249 OA
ATOM     27  N   UNL     1      -2.184   3.985  25.535  0.00  0.00    -0.159 NA
BRANCH  27  28
ATOM     28  C   UNL     1      -3.005   3.941  25.459  0.00  0.00    +0.102 A 
ATOM     29  C   UNL     1      -3.481   3.946  26.132  0.00  0.00    +0.158 A 
ATOM     30  F   UNL     1      -3.138   3.995  26.880  0.00  0.00    -0.203 F 
ATOM     31  C   UNL     1      -4.302   3.902  26.057  0.00  0.00    +0.061 A 
ATOM     32  C   UNL     1      -4.646   3.852  25.309  0.00  0.00    +0.142 A 
ATOM     33  F   UNL     1      -5.466   3.808  25.234  0.00  0.00    -0.204 F 
ATOM     34  C   UNL     1      -4.169   3.848  24.635  0.00  0.00    +0.031 A 
ATOM     35  C   UNL     1      -3.348   3.892  24.711  0.00  0.00    +0.021 A 
ENDBRANCH  27  28
ENDBRANCH   8  24
BRANCH  10  11
ATOM     11  C   UNL     1      -0.957  -0.004  24.741  0.00  0.00    +0.260 C 
ATOM     12  O   UNL     1      -0.193  -0.311  24.692  0.00  0.00    -0.272 OA
ATOM     13  N   UNL     1      -1.595  -0.506  24.889  0.00  0.00    -0.196 NA
BRANCH  13  14
ATOM     14  C   UNL     1      -1.469  -1.315  24.987  0.00  0.00    +0.179 C 
BRANCH  14  21
ATOM     21  C   UNL     1      -1.077  -1.594  25.657  0.00  0.00    +0.281 C 
ATOM     22  N   UNL     1      -0.475  -2.153  25.579  0.00  0.00    -0.086 NA
ATOM     23  O   UNL     1      -1.285  -1.314  26.404  0.00  0.00    -0.270 OA
ENDBRANCH  14  21
BRANCH  14  15
ATOM     15  C   UNL     1      -1.736  -1.846  24.415  0.00  0.00    +0.064 C 
BRANCH  15  16
ATOM     16  C   UNL     1      -2.535  -2.050  24.382  0.00  0.00    +0.010 A 
ATOM     17  C   UNL     1      -3.146  -1.570  24.106  0.00  0.00    +0.003 A 
ATOM     18  C   UNL     1      -3.852  -1.994  24.172  0.00  0.00    +0.007 A 
ATOM     19  C   UNL     1      -3.676  -2.734  24.489  0.00  0.00    +0.035 A 
ATOM     20  S   UNL     1      -2.862  -2.769  24.619  0.00  0.00    -0.091 S 
ENDBRANCH  15  16
ENDBRANCH  14  15
ENDBRANCH  13  14
ENDBRANCH  10  11
BRANCH   4   3
ATOM      3  C   UNL     1       0.243   0.304  23.663  0.00  0.00    +0.143 C 
BRANCH   3   2
ATOM      1  C   UNL     1       0.982  -0.318  22.609  0.00  0.00    +0.070 C 
ATOM      2  S   UNL     1       0.965   0.109  23.315  0.00  0.00    -0.130 S 
ENDBRANCH   3   2
ENDBRANCH   4   3
TORSDOF 9
ENDMDL
MODEL 4
REMARK VINA RESULT:     -10.0      1.652      3.323
REMARK  Name = 
REMARK  9 active torsions:
REMARK  status: ('A' for Active; 'I' for Inactive)
REMARK    1  A    between atoms: S_2  and  C_3
REMARK    2  A    between atoms: C_3  and  C_4
REMARK    3  A    between atoms: C_8  and  N_24
REMARK    4  A    between atoms: C_10  and  C_11
REMARK    5  A    between atoms: N_13  and  C_14
REMARK    6  A    between atoms: C_14  and  C_15
REMARK    7  A    between atoms: C_14  and  C_21
REMARK    8  A    between atoms: C_15  and  C_16
REMARK    9  A    between atoms: N_27  and  C_28
REMARK                            x       y       z     vdW  Elec       q    Type
REMARK                         _______ _______ _______ _____ _____    ______ ____
ROOT
ATOM      4  C   UNL     1      -5.077   2.309  25.273  0.00  0.00    +0.237 C 
ATOM      5  O   UNL     1      -5.875   2.109  25.221  0.00  0.00    -0.274 OA
ATOM      6  N   UNL     1      -4.499   1.753  25.079  0.00  0.00    -0.270 N 
ATOM      7  C   UNL     1      -4.635   0.980  24.826  0.00  0.00    +0.116 C 
ATOM      8  C   UNL     1      -3.904   0.621  24.694  0.00  0.00    +0.119 C 
ATOM      9  C   UNL     1      -3.316   1.174  24.866  0.00  0.00    +0.053 C 
ATOM     10  C   UNL     1      -3.683   1.872  25.104  0.00  0.00    +0.155 C 
ENDROOT
BRANCH   8  24
ATOM     24  N   UNL     1      -3.782  -0.152  24.436  0.00  0.00    -0.187 NA
ATOM     25  C   UNL     1      -3.710  -0.312  23.629  0.00  0.00    +0.344 C 
ATOM     26  O   UNL     1      -3.759   0.302  23.081  0.00  0.00    -0.249 OA
ATOM     27  N   UNL     1      -3.588  -1.086  23.372  0.00  0.00    -0.159 NA
BRANCH  27  28
ATOM     28  C   UNL     1      -3.539  -1.701  23.920  0.00  0.00    +0.102 A 
ATOM     29  C   UNL     1      -4.113  -2.293  23.926  0.00  0.00    +0.158 A 
ATOM     30  F   UNL     1      -4.735  -2.271  23.387  0.00  0.00    -0.203 F 
ATOM     31  C   UNL     1      -4.064  -2.909  24.474  0.00  0.00    +0.061 A 
ATOM     32  C   UNL     1      -3.441  -2.932  25.015  0.00  0.00    +0.142 A 
ATOM     33  F   UNL     1      -3.392  -3.547  25.562  0.00  0.00    -0.204 F 
ATOM     34  C   UNL     1      -2.866  -2.339  25.008  0.00  0.00    +0.031 A 
ATOM     35  C   UNL     1      -2.916  -1.724  24.460  0.00  0.00    +0.021 A 
ENDBRANCH  27  28
ENDBRANCH   8  24
BRANCH  10  11
ATOM     11  C   UNL     1      -3.302   2.569  25.328  0.00  0.00    +0.260 C 
ATOM     12  O   UNL     1      -3.649   3.068  25.885  0.00  0.00    -0.272 OA
ATOM     13  N   UNL     1      -2.574   2.767  24.994  0.00  0.00    -0.196 NA
BRANCH  13  14
ATOM     14  C   UNL     1      -2.193   3.463  25.218  0.00  0.00    +0.179 C 
BRANCH  14  21
ATOM     21  C   UNL     1      -2.303   4.154  24.779  0.00  0.00    +0.281 C 
ATOM     22  N   UNL     1      -2.311   4.886  25.159  0.00  0.00    -0.086 NA
ATOM     23  O   UNL     1      -2.405   4.112  23.962  0.00  0.00    -0.270 OA
ENDBRANCH  14  21
BRANCH  14  15
ATOM     15  C   UNL     1      -1.702   3.470  25.880  0.00  0.00    +0.064 C 
BRANCH  15  16
ATOM     16  C   UNL     1      -0.951   3.129  25.841  0.00  0.00    +0.010 A 
ATOM     17  C   UNL     1      -0.421   3.196  25.213  0.00  0.00    +0.003 A 
ATOM     18  C   UNL     1       0.259   2.769  25.408  0.00  0.00    +0.007 A 
ATOM     19  C   UNL     1       0.148   2.440  26.155  0.00  0.00    +0.035 A 
ATOM     20  S   UNL     1      -0.600   2.662  26.423  0.00  0.00    -0.091 S 
ENDBRANCH  15  16
ENDBRANCH  14  15
ENDBRANCH  13  14
ENDBRANCH  10  11
BRANCH   4   3
ATOM      3  C   UNL     1      -4.856   3.065  25.519  0.00  0.00    +0.143 C 
BRANCH   3   2
ATOM      1  C   UNL     1      -5.700   4.216  25.454  0.00  0.00    +0.070 C 
ATOM      2  S   UNL     1      -5.412   3.564  25.869  0.00  0.00    -0.130 S 
ENDBRANCH   3   2
ENDBRANCH   4   3
TORSDOF 9
ENDMDL
MODEL 5
REMARK VINA RESULT:      -9.5      3.305      4.718
REMARK  Name = 
REMARK  9 active torsions:
REMARK  status: ('A' for Active; 'I' for Inactive)
REMARK    1  A    between atoms: S_2  and  C_3
REMARK    2  A    between atoms: C_3  and  C_4
REMARK    3  A    between atoms: C_8  and  N_24
REMARK    4  A    between atoms: C_10  and  C_11
REMARK    5  A    between atoms: N_13  and  C_14
REMARK    6  A    between atoms: C_14  and  C_15
REMARK    7  A    between atoms: C_14  and  C_21
REMARK    8  A    between atoms: C_15  and  C_16
REMARK    9  A    between atoms: N_27  and  C_28
REMARK                            x       y       z     vdW  Elec       q    Type
REMARK                         _______ _______ _______ _____ _____    ______ ____
ROOT
ATOM      4  C   UNL     1      -0.789  -0.633  24.855  0.00  0.00    +0.237 C 
ATOM      5  O   UNL     1      -0.519  -1.329  25.206  0.00  0.00    -0.274 OA
ATOM      6  N   UNL     1      -0.306  -0.222  24.328  0.00  0.00    -0.270 N 
ATOM      7  C   UNL     1       0.457  -0.439  24.099  0.00  0.00    +0.116 C 
ATOM      8  C   UNL     1       0.735   0.126  23.566  0.00  0.00    +0.119 C 
ATOM      9  C   UNL     1       0.143   0.693  23.466  0.00  0.00    +0.053 C 
ATOM     10  C   UNL     1      -0.499   0.478  23.937  0.00  0.00    +0.155 C 
ENDROOT
BRANCH   8  24
ATOM     24  N   UNL     1       1.472   0.125  23.199  0.00  0.00    -0.187 NA
ATOM     25  C   UNL     1       1.552  -0.172  22.432  0.00  0.00    +0.344 C 
ATOM     26  O   UNL     1       0.893  -0.468  22.035  0.00  0.00    -0.249 OA
ATOM     27  N   UNL     1       2.290  -0.172  22.065  0.00  0.00    -0.159 NA
BRANCH  27  28
ATOM     28  C   UNL     1       2.950   0.124  22.463  0.00  0.00    +0.102 A 
ATOM     29  C   UNL     1       3.483  -0.396  22.819  0.00  0.00    +0.158 A 
ATOM     30  F   UNL     1       3.357  -1.209  22.777  0.00  0.00    -0.203 F 
ATOM     31  C   UNL     1       4.144  -0.100  23.216  0.00  0.00    +0.061 A 
ATOM     32  C   UNL     1       4.270   0.714  23.258  0.00  0.00    +0.142 A 
ATOM     33  F   UNL     1       4.930   1.009  23.655  0.00  0.00    -0.204 F 
ATOM     34  C   UNL     1       3.736   1.234  22.902  0.00  0.00    +0.031 A 
ATOM     35  C   UNL     1       3.076   0.937  22.505  0.00  0.00    +0.021 A 
ENDBRANCH  27  28
ENDBRANCH   8  24
BRANCH  10  11
ATOM     11  C   UNL     1      -1.211   0.890  24.004  0.00  0.00    +0.260 C 
ATOM     12  O   UNL     1      -1.920   0.477  24.088  0.00  0.00    -0.272 OA
ATOM     13  N   UNL     1      -1.213   1.715  23.988  0.00  0.00    -0.196 NA
BRANCH  13  14
ATOM     14  C   UNL     1      -1.924   2.127  24.056  0.00  0.00    +0.179 C 
BRANCH  14  21
ATOM     21  C   UNL     1      -2.428   2.191  23.405  0.00  0.00    +0.281 C 
ATOM     22  N   UNL     1      -3.237   2.059  23.497  0.00  0.00    -0.086 NA
ATOM     23  O   UNL     1      -2.123   2.388  22.665  0.00  0.00    -0.270 OA
ENDBRANCH  14  21
BRANCH  14  15
ATOM     15  C   UNL     1      -2.132   2.474  24.774  0.00  0.00    +0.064 C 
BRANCH  15  16
ATOM     16  C   UNL     1      -1.845   3.224  24.969  0.00  0.00    +0.010 A 
ATOM     17  C   UNL     1      -1.056   3.419  25.106  0.00  0.00    +0.003 A 
ATOM     18  C   UNL     1      -1.020   4.225  25.283  0.00  0.00    +0.007 A 
ATOM     19  C   UNL     1      -1.787   4.526  25.254  0.00  0.00    +0.035 A 
ATOM     20  S   UNL     1      -2.297   3.907  25.060  0.00  0.00    -0.091 S 
ENDBRANCH  15  16
ENDBRANCH  14  15
ENDBRANCH  13  14
ENDBRANCH  10  11
BRANCH   4   3
ATOM      3  C   UNL     1      -1.542  -0.347  25.032  0.00  0.00    +0.143 C 
BRANCH   3   2
ATOM      1  C   UNL     1      -2.687  -1.037  25.539  0.00  0.00    +0.070 C 
ATOM      2  S   UNL     1      -1.964  -0.661  25.668  0.00  0.00    -0.130 S 
ENDBRANCH   3   2
ENDBRANCH   4   3
TORSDOF 9
ENDMDL
MODEL 6
REMARK VINA RESULT:      -9.3      2.684      5.691
REMARK  Name = 
REMARK  9 active torsions:
REMARK  status: ('A' for Active; 'I' for Inactive)
REMARK    1  A    between atoms: S_2  and  C_3
REMARK    2  A    between atoms: C_3  and  C_4
REMARK    3  A    between atoms: C_8  and  N_24
REMARK    4  A    between atoms: C_10  and  C_11
REMARK    5  A    between atoms: N_13  and  C_14
REMARK    6  A    between atoms: C_14  and  C_15
REMARK    7  A    between atoms: C_14  and  C_21
REMARK    8  A    between atoms: C_15  and  C_16
REMARK    9  A    between atoms: N_27  and  C_28
REMARK                            x       y       z     vdW  Elec       q    Type
REMARK                         _______ _______ _______ _____ _____    ______ ____
ROOT
ATOM      4  C   UNL     1      -3.852  -1.364  24.241  0.00  0.00    +0.237 C 
ATOM      5  O   UNL     1      -4.647  -1.558  24.145  0.00  0.00    -0.274 OA
ATOM      6  N   UNL     1      -3.625  -0.573  24.307  0.00  0.00    -0.270 N 
ATOM      7  C   UNL     1      -4.129   0.079  24.287  0.00  0.00    +0.116 C 
ATOM      8  C   UNL     1      -3.671   0.760  24.372  0.00  0.00    +0.119 C 
ATOM      9  C   UNL     1      -2.882   0.527  24.445  0.00  0.00    +0.053 C 
ATOM     10  C   UNL     1      -2.854  -0.296  24.405  0.00  0.00    +0.155 C 
ENDROOT
BRANCH   8  24
ATOM     24  N   UNL     1      -3.950   1.535  24.382  0.00  0.00    -0.187 NA
ATOM     25  C   UNL     1      -3.795   2.039  23.747  0.00  0.00    +0.344 C 
ATOM     26  O   UNL     1      -3.359   1.767  23.102  0.00  0.00    -0.249 OA
ATOM     27  N   UNL     1      -4.075   2.814  23.758  0.00  0.00    -0.159 NA
BRANCH  27  28
ATOM     28  C   UNL     1      -4.511   3.088  24.404  0.00  0.00    +0.102 A 
ATOM     29  C   UNL     1      -4.225   3.715  24.857  0.00  0.00    +0.158 A 
ATOM     30  F   UNL     1      -3.505   4.069  24.665  0.00  0.00    -0.203 F 
ATOM     31  C   UNL     1      -4.660   3.989  25.502  0.00  0.00    +0.061 A 
ATOM     32  C   UNL     1      -5.381   3.636  25.694  0.00  0.00    +0.142 A 
ATOM     33  F   UNL     1      -5.816   3.909  26.339  0.00  0.00    -0.204 F 
ATOM     34  C   UNL     1      -5.666   3.008  25.240  0.00  0.00    +0.031 A 
ATOM     35  C   UNL     1      -5.230   2.734  24.595  0.00  0.00    +0.021 A 
ENDBRANCH  27  28
ENDBRANCH   8  24
BRANCH  10  11
ATOM     11  C   UNL     1      -2.174  -0.761  24.454  0.00  0.00    +0.260 C 
ATOM     12  O   UNL     1      -2.208  -1.562  24.261  0.00  0.00    -0.272 OA
ATOM     13  N   UNL     1      -1.461  -0.425  24.697  0.00  0.00    -0.196 NA
BRANCH  13  14
ATOM     14  C   UNL     1      -0.782  -0.890  24.746  0.00  0.00    +0.179 C 
BRANCH  14  21
ATOM     21  C   UNL     1      -0.574  -1.244  25.462  0.00  0.00    +0.281 C 
ATOM     22  N   UNL     1      -0.218  -1.988  25.465  0.00  0.00    -0.086 NA
ATOM     23  O   UNL     1      -0.723  -0.855  26.173  0.00  0.00    -0.270 OA
ENDBRANCH  14  21
BRANCH  14  15
ATOM     15  C   UNL     1      -0.309  -1.001  24.079  0.00  0.00    +0.064 C 
BRANCH  15  16
ATOM     16  C   UNL     1       0.168  -0.386  23.804  0.00  0.00    +0.010 A 
ATOM     17  C   UNL     1       0.286   0.339  24.177  0.00  0.00    +0.003 A 
ATOM     18  C   UNL     1       0.802   0.784  23.710  0.00  0.00    +0.007 A 
ATOM     19  C   UNL     1       1.002   0.333  23.050  0.00  0.00    +0.035 A 
ATOM     20  S   UNL     1       0.610  -0.390  23.108  0.00  0.00    -0.091 S 
ENDBRANCH  15  16
ENDBRANCH  14  15
ENDBRANCH  13  14
ENDBRANCH  10  11
BRANCH   4   3
ATOM      3  C   UNL     1      -3.282  -1.960  24.272  0.00  0.00    +0.143 C 
BRANCH   3   2
ATOM      1  C   UNL     1      -3.469  -3.304  24.719  0.00  0.00    +0.070 C 
ATOM      2  S   UNL     1      -3.494  -2.742  24.116  0.00  0.00    -0.130 S 
ENDBRANCH   3   2
ENDBRANCH   4   3
TORSDOF 9
ENDMDL
