MODEL 1
REMARK VINA RESULT:     -11.6      0.000      0.000
REMARK  Name = 
REMARK  3 active torsions:
REMARK  status: ('A' for Active; 'I' for Inactive)
REMARK    1  A    between atoms: C_2  and  N_4
REMARK    2  A    between atoms: C_7  and  C_9
REMARK    3  A    between atoms: C_15  and  C_18
REMARK                            x       y       z     vdW  Elec       q    Type
REMARK                         _______ _______ _______ _____ _____    ______ ____
ROOT
ATOM      9  C   UNL     1      -4.292   0.502  24.917  0.00  0.00    +0.140 A 
ATOM     10  N   UNL     1      -3.962   0.099  25.556  0.00  0.00    -0.229 NA
ATOM     11  C   UNL     1      -3.816  -0.678  25.320  0.00  0.00    +0.100 A 
ATOM     12  C   UNL     1      -4.057  -0.755  24.535  0.00  0.00    +0.100 A 
ATOM     13  N   UNL     1      -4.351  -0.026  24.285  0.00  0.00    -0.229 NA
ATOM     14  C   UNL     1      -3.977  -1.480  24.149  0.00  0.00    +0.025 A 
ATOM     15  C   UNL     1      -3.656  -2.127  24.547  0.00  0.00    +0.073 A 
ATOM     16  C   UNL     1      -3.416  -2.049  25.333  0.00  0.00    +0.005 A 
ATOM     17  C   UNL     1      -3.496  -1.325  25.720  0.00  0.00    +0.021 A 
ENDROOT
BRANCH   9   7
ATOM      4  N   UNL     1      -4.484   2.628  24.902  0.00  0.00    -0.274 NA
ATOM      5  C   UNL     1      -5.276   2.397  24.894  0.00  0.00    +0.073 C 
ATOM      6  C   UNL     1      -5.301   1.572  24.899  0.00  0.00    +0.026 C 
ATOM      7  C   UNL     1      -4.523   1.294  24.909  0.00  0.00    +0.076 C 
ATOM      8  C   UNL     1      -4.019   1.946  24.912  0.00  0.00    +0.080 C 
BRANCH   4   2
ATOM      1  C   UNL     1      -3.926   3.742  24.202  0.00  0.00    +0.017 C 
ATOM      2  C   UNL     1      -4.205   3.404  24.901  0.00  0.00    +0.058 C 
ATOM      3  C   UNL     1      -4.206   3.845  25.599  0.00  0.00    +0.017 C 
ENDBRANCH   4   2
ENDBRANCH   9   7
BRANCH  15  18
ATOM     18  C   UNL     1      -3.576  -2.851  24.161  0.00  0.00    +0.419 C 
ATOM     19  F   UNL     1      -3.496  -3.576  23.775  0.00  0.00    -0.166 F 
ATOM     20  F   UNL     1      -4.396  -2.899  24.080  0.00  0.00    -0.166 F 
ATOM     21  F   UNL     1      -2.756  -2.804  24.242  0.00  0.00    -0.166 F 
ENDBRANCH  15  18
TORSDOF 3
ENDMDL
MODEL 2
REMARK VINA RESULT:     -11.3      1.104      1.333
REMARK  Name = 
REMARK  3 active torsions:
REMARK  status: ('A' for Active; 'I' for Inactive)
REMARK    1  A    between atoms: C_2  and  N_4
REMARK    2  A    between atoms: C_7  and  C_9
REMARK    3  A    between atoms: C_15  and  C_18
REMARK                            x       y       z     vdW  Elec       q    Type
REMARK                         _______ _______ _______ _____ _____    ______ ____
ROOT
ATOM      9  C   UNL     1      -3.446   1.191  24.667  0.00  0.00    +0.140 A 
ATOM     10  N   UNL     1      -3.311   0.685  25.304  0.00  0.00    -0.229 NA
ATOM     11  C   UNL     1      -3.501  -0.081  25.065  0.00  0.00    +0.100 A 
ATOM     12  C   UNL     1      -3.754  -0.048  24.280  0.00  0.00    +0.100 A 
ATOM     13  N   UNL     1      -3.720   0.738  24.034  0.00  0.00    -0.229 NA
ATOM     14  C   UNL     1      -3.983  -0.740  23.892  0.00  0.00    +0.025 A 
ATOM     15  C   UNL     1      -3.958  -1.463  24.288  0.00  0.00    +0.073 A 
ATOM     16  C   UNL     1      -3.706  -1.495  25.072  0.00  0.00    +0.005 A 
ATOM     17  C   UNL     1      -3.477  -0.805  25.462  0.00  0.00    +0.021 A 
ENDROOT
BRANCH   9   7
ATOM      4  N   UNL     1      -2.884   3.228  24.972  0.00  0.00    -0.274 NA
ATOM      5  C   UNL     1      -3.409   3.301  24.339  0.00  0.00    +0.073 C 
ATOM      6  C   UNL     1      -3.683   2.546  24.148  0.00  0.00    +0.026 C 
ATOM      7  C   UNL     1      -3.328   2.008  24.662  0.00  0.00    +0.076 C 
ATOM      8  C   UNL     1      -2.835   2.429  25.172  0.00  0.00    +0.080 C 
BRANCH   4   2
ATOM      1  C   UNL     1      -1.752   4.096  25.046  0.00  0.00    +0.017 C 
ATOM      2  C   UNL     1      -2.481   3.846  25.340  0.00  0.00    +0.058 C 
ATOM      3  C   UNL     1      -2.806   4.214  26.004  0.00  0.00    +0.017 C 
ENDBRANCH   4   2
ENDBRANCH   9   7
BRANCH  15  18
ATOM     18  C   UNL     1      -4.187  -2.153  23.900  0.00  0.00    +0.419 C 
ATOM     19  F   UNL     1      -4.415  -2.845  23.511  0.00  0.00    -0.166 F 
ATOM     20  F   UNL     1      -4.963  -1.877  23.863  0.00  0.00    -0.166 F 
ATOM     21  F   UNL     1      -3.410  -2.431  23.935  0.00  0.00    -0.166 F 
ENDBRANCH  15  18
TORSDOF 3
ENDMDL
MODEL 3
REMARK VINA RESULT:     -11.1      3.572      5.267
REMARK  Name = 
REMARK  3 active torsions:
REMARK  status: ('A' for Active; 'I' for Inactive)
REMARK    1  A    between atoms: C_2  and  N_4
REMARK    2  A    between atoms: C_7  and  C_9
REMARK    3  A    between atoms: C_15  and  C_18
REMARK                            x       y       z     vdW  Elec       q    Type
REMARK                         _______ _______ _______ _____ _____    ______ ____
ROOT
ATOM      9  C   UNL     1      -2.838   1.790  24.962  0.00  0.00    +0.140 A 
ATOM     10  N   UNL     1      -2.038   1.758  25.162  0.00  0.00    -0.229 NA
ATOM     11  C   UNL     1      -1.754   2.531  25.197  0.00  0.00    +0.100 A 
ATOM     12  C   UNL     1      -2.377   3.041  25.018  0.00  0.00    +0.100 A 
ATOM     13  N   UNL     1      -3.047   2.583  24.873  0.00  0.00    -0.229 NA
ATOM     14  C   UNL     1      -2.253   3.857  25.010  0.00  0.00    +0.025 A 
ATOM     15  C   UNL     1      -1.507   4.163  25.182  0.00  0.00    +0.073 A 
ATOM     16  C   UNL     1      -0.883   3.653  25.360  0.00  0.00    +0.005 A 
ATOM     17  C   UNL     1      -1.006   2.837  25.368  0.00  0.00    +0.021 A 
ENDROOT
BRANCH   9   7
ATOM      4  N   UNL     1      -3.790  -0.108  24.737  0.00  0.00    -0.274 NA
ATOM      5  C   UNL     1      -4.439   0.400  24.706  0.00  0.00    +0.073 C 
ATOM      6  C   UNL     1      -4.161   1.173  24.787  0.00  0.00    +0.026 C 
ATOM      7  C   UNL     1      -3.340   1.143  24.867  0.00  0.00    +0.076 C 
ATOM      8  C   UNL     1      -3.111   0.351  24.837  0.00  0.00    +0.080 C 
BRANCH   4   2
ATOM      1  C   UNL     1      -4.065  -1.287  23.979  0.00  0.00    +0.017 C 
ATOM      2  C   UNL     1      -3.814  -0.930  24.679  0.00  0.00    +0.058 C 
ATOM      3  C   UNL     1      -3.588  -1.397  25.321  0.00  0.00    +0.017 C 
ENDBRANCH   4   2
ENDBRANCH   9   7
BRANCH  15  18
ATOM     18  C   UNL     1      -1.383   4.978  25.174  0.00  0.00    +0.419 C 
ATOM     19  F   UNL     1      -1.260   5.794  25.167  0.00  0.00    -0.166 F 
ATOM     20  F   UNL     1      -0.798   4.885  24.601  0.00  0.00    -0.166 F 
ATOM     21  F   UNL     1      -1.969   5.072  25.747  0.00  0.00    -0.166 F 
ENDBRANCH  15  18
TORSDOF 3
ENDMDL
MODEL 4
REMARK VINA RESULT:     -11.1      2.723      4.842
REMARK  Name = 
REMARK  3 active torsions:
REMARK  status: ('A' for Active; 'I' for Inactive)
REMARK    1  A    between atoms: C_2  and  N_4
REMARK    2  A    between atoms: C_7  and  C_9
REMARK    3  A    between atoms: C_15  and  C_18
REMARK                            x       y       z     vdW  Elec       q    Type
REMARK                         _______ _______ _______ _____ _____    ______ ____
ROOT
ATOM      9  C   UNL     1      -4.107   0.266  24.466  0.00  0.00    +0.140 A 
ATOM     10  N   UNL     1      -3.759   0.874  24.030  0.00  0.00    -0.229 NA
ATOM     11  C   UNL     1      -4.053   1.591  24.312  0.00  0.00    +0.100 A 
ATOM     12  C   UNL     1      -4.584   1.426  24.922  0.00  0.00    +0.100 A 
ATOM     13  N   UNL     1      -4.617   0.608  25.017  0.00  0.00    -0.229 NA
ATOM     14  C   UNL     1      -4.968   2.044  25.311  0.00  0.00    +0.025 A 
ATOM     15  C   UNL     1      -4.822   2.825  25.091  0.00  0.00    +0.073 A 
ATOM     16  C   UNL     1      -4.292   2.989  24.481  0.00  0.00    +0.005 A 
ATOM     17  C   UNL     1      -3.907   2.373  24.091  0.00  0.00    +0.021 A 
ENDROOT
BRANCH   9   7
ATOM      4  N   UNL     1      -3.426  -1.757  24.461  0.00  0.00    -0.274 NA
ATOM      5  C   UNL     1      -4.090  -1.811  23.974  0.00  0.00    +0.073 C 
ATOM      6  C   UNL     1      -4.426  -1.060  23.916  0.00  0.00    +0.026 C 
ATOM      7  C   UNL     1      -3.969  -0.541  24.368  0.00  0.00    +0.076 C 
ATOM      8  C   UNL     1      -3.352  -0.972  24.705  0.00  0.00    +0.080 C 
BRANCH   4   2
ATOM      1  C   UNL     1      -3.237  -3.074  24.983  0.00  0.00    +0.017 C 
ATOM      2  C   UNL     1      -2.925  -2.378  24.668  0.00  0.00    +0.058 C 
ATOM      3  C   UNL     1      -2.109  -2.305  24.561  0.00  0.00    +0.017 C 
ENDBRANCH   4   2
ENDBRANCH   9   7
BRANCH  15  18
ATOM     18  C   UNL     1      -5.206   3.442  25.481  0.00  0.00    +0.419 C 
ATOM     19  F   UNL     1      -5.591   4.060  25.871  0.00  0.00    -0.166 F 
ATOM     20  F   UNL     1      -4.488   3.687  25.803  0.00  0.00    -0.166 F 
ATOM     21  F   UNL     1      -5.926   3.197  25.159  0.00  0.00    -0.166 F 
ENDBRANCH  15  18
TORSDOF 3
ENDMDL
