MODEL 1
REMARK VINA RESULT:     -17.0      0.000      0.000
REMARK  Name = 
REMARK  2 active torsions:
REMARK  status: ('A' for Active; 'I' for Inactive)
REMARK    1  A    between atoms: C_4  and  N_5
REMARK    2  A    between atoms: C_15  and  C_22
REMARK                            x       y       z     vdW  Elec       q    Type
REMARK                         _______ _______ _______ _____ _____    ______ ____
ROOT
ATOM      5  N   UNL     1      -2.813   1.834  24.844  0.00  0.00    -0.162 NA
ATOM      6  C   UNL     1      -2.010   1.975  24.976  0.00  0.00    +0.327 C 
ATOM      7  O   UNL     1      -1.726   2.748  25.000  0.00  0.00    -0.250 OA
ATOM      8  N   UNL     1      -1.492   1.341  25.082  0.00  0.00    -0.262 N 
ATOM      9  C   UNL     1      -0.774   0.936  25.216  0.00  0.00    +0.097 C 
ATOM     10  C   UNL     1      -1.102   0.004  25.189  0.00  0.00    +0.043 C 
ATOM     11  C   UNL     1      -1.210  -0.804  25.195  0.00  0.00    +0.011 C 
ATOM     12  C   UNL     1      -1.603  -0.228  25.111  0.00  0.00    +0.058 C 
ATOM     13  C   UNL     1      -1.271   0.666  25.140  0.00  0.00    +0.101 C 
ATOM     14  C   UNL     1      -2.470   0.036  24.957  0.00  0.00    +0.041 A 
ATOM     15  C   UNL     1      -3.223  -0.277  24.839  0.00  0.00    +0.012 A 
ATOM     16  C   UNL     1      -3.865   0.227  24.715  0.00  0.00    +0.006 A 
ATOM     17  C   UNL     1      -3.752   1.044  24.709  0.00  0.00    +0.061 A 
ATOM     18  C   UNL     1      -2.998   1.357  24.827  0.00  0.00    +0.261 A 
ATOM     19  O   UNL     1      -3.381   2.083  24.741  0.00  0.00    -0.267 OA
ATOM     20  N   UNL     1      -2.357   0.853  24.951  0.00  0.00    -0.299 N 
ATOM     21  C   UNL     1      -2.004   0.290  25.028  0.00  0.00    +0.110 C 
ENDROOT
BRANCH   5   4
ATOM      1  F   UNL     1      -4.546   3.827  25.936  0.00  0.00    -0.204 F 
ATOM      2  C   UNL     1      -4.196   3.464  25.284  0.00  0.00    +0.141 A 
ATOM      3  C   UNL     1      -3.679   2.830  25.390  0.00  0.00    +0.046 A 
ATOM      4  C   UNL     1      -3.330   2.468  24.738  0.00  0.00    +0.077 A 
ATOM     28  C   UNL     1      -3.498   2.739  23.976  0.00  0.00    +0.017 A 
ATOM     29  C   UNL     1      -4.015   3.373  23.869  0.00  0.00    +0.004 A 
ATOM     30  C   UNL     1      -4.364   3.735  24.522  0.00  0.00    +0.030 A 
ENDBRANCH   5   4
BRANCH  15  22
ATOM     22  C   UNL     1      -3.336  -1.095  24.845  0.00  0.00    +0.001 A 
ATOM     23  C   UNL     1      -3.382  -1.510  24.133  0.00  0.00    +0.000 A 
ATOM     24  C   UNL     1      -3.495  -2.327  24.139  0.00  0.00    +0.000 A 
ATOM     25  C   UNL     1      -3.561  -2.730  24.856  0.00  0.00    +0.000 A 
ATOM     26  C   UNL     1      -3.515  -2.315  25.568  0.00  0.00    +0.000 A 
ATOM     27  C   UNL     1      -3.402  -1.497  25.562  0.00  0.00    +0.000 A 
ENDBRANCH  15  22
TORSDOF 2
ENDMDL
MODEL 2
REMARK VINA RESULT:     -16.9      1.405      2.653
REMARK  Name = 
REMARK  2 active torsions:
REMARK  status: ('A' for Active; 'I' for Inactive)
REMARK    1  A    between atoms: C_4  and  N_5
REMARK    2  A    between atoms: C_15  and  C_22
REMARK                            x       y       z     vdW  Elec       q    Type
REMARK                         _______ _______ _______ _____ _____    ______ ____
ROOT
ATOM      5  N   UNL     1      -2.695   2.522  25.042  0.00  0.00    -0.162 NA
ATOM      6  C   UNL     1      -3.364   3.002  25.101  0.00  0.00    +0.327 C 
ATOM      7  O   UNL     1      -3.280   3.815  25.212  0.00  0.00    -0.250 OA
ATOM      8  N   UNL     1      -4.118   2.669  25.047  0.00  0.00    -0.262 N 
ATOM      9  C   UNL     1      -4.952   2.627  25.033  0.00  0.00    +0.097 C 
ATOM     10  C   UNL     1      -5.067   1.655  24.900  0.00  0.00    +0.043 C 
ATOM     11  C   UNL     1      -5.327   0.890  24.793  0.00  0.00    +0.011 C 
ATOM     12  C   UNL     1      -4.713   1.227  24.845  0.00  0.00    +0.058 C 
ATOM     13  C   UNL     1      -4.619   2.168  24.974  0.00  0.00    +0.101 C 
ATOM     14  C   UNL     1      -3.807   1.078  24.835  0.00  0.00    +0.041 A 
ATOM     15  C   UNL     1      -3.259   0.466  24.757  0.00  0.00    +0.012 A 
ATOM     16  C   UNL     1      -2.451   0.629  24.788  0.00  0.00    +0.006 A 
ATOM     17  C   UNL     1      -2.191   1.405  24.896  0.00  0.00    +0.061 A 
ATOM     18  C   UNL     1      -2.738   2.017  24.973  0.00  0.00    +0.261 A 
ATOM     19  O   UNL     1      -2.068   2.491  25.045  0.00  0.00    -0.267 OA
ATOM     20  N   UNL     1      -3.546   1.853  24.943  0.00  0.00    -0.299 N 
ATOM     21  C   UNL     1      -4.118   1.509  24.890  0.00  0.00    +0.110 C 
ENDROOT
BRANCH   5   4
ATOM      1  F   UNL     1      -0.439   3.753  23.794  0.00  0.00    -0.204 F 
ATOM      2  C   UNL     1      -0.815   3.471  24.471  0.00  0.00    +0.141 A 
ATOM      3  C   UNL     1      -1.567   3.138  24.418  0.00  0.00    +0.046 A 
ATOM      4  C   UNL     1      -1.943   2.855  25.095  0.00  0.00    +0.077 A 
ATOM     28  C   UNL     1      -1.566   2.907  25.828  0.00  0.00    +0.017 A 
ATOM     29  C   UNL     1      -0.813   3.240  25.882  0.00  0.00    +0.004 A 
ATOM     30  C   UNL     1      -0.438   3.522  25.204  0.00  0.00    +0.030 A 
ENDBRANCH   5   4
BRANCH  15  22
ATOM     22  C   UNL     1      -3.520  -0.310  24.649  0.00  0.00    +0.001 A 
ATOM     23  C   UNL     1      -3.588  -0.816  25.297  0.00  0.00    +0.000 A 
ATOM     24  C   UNL     1      -3.848  -1.592  25.189  0.00  0.00    +0.000 A 
ATOM     25  C   UNL     1      -4.040  -1.861  24.433  0.00  0.00    +0.000 A 
ATOM     26  C   UNL     1      -3.972  -1.355  23.786  0.00  0.00    +0.000 A 
ATOM     27  C   UNL     1      -3.712  -0.579  23.894  0.00  0.00    +0.000 A 
ENDBRANCH  15  22
TORSDOF 2
ENDMDL
MODEL 3
REMARK VINA RESULT:     -16.9      1.692      4.182
REMARK  Name = 
REMARK  2 active torsions:
REMARK  status: ('A' for Active; 'I' for Inactive)
REMARK    1  A    between atoms: C_4  and  N_5
REMARK    2  A    between atoms: C_15  and  C_22
REMARK                            x       y       z     vdW  Elec       q    Type
REMARK                         _______ _______ _______ _____ _____    ______ ____
ROOT
ATOM      5  N   UNL     1      -3.976   0.619  24.837  0.00  0.00    -0.162 NA
ATOM      6  C   UNL     1      -4.718   0.979  24.871  0.00  0.00    +0.327 C 
ATOM      7  O   UNL     1      -5.402   0.519  24.853  0.00  0.00    -0.250 OA
ATOM      8  N   UNL     1      -4.775   1.801  24.923  0.00  0.00    -0.262 N 
ATOM      9  C   UNL     1      -5.130   2.555  24.976  0.00  0.00    +0.097 C 
ATOM     10  C   UNL     1      -4.319   3.119  24.998  0.00  0.00    +0.043 C 
ATOM     11  C   UNL     1      -3.761   3.712  25.026  0.00  0.00    +0.011 C 
ATOM     12  C   UNL     1      -3.772   3.011  24.983  0.00  0.00    +0.058 C 
ATOM     13  C   UNL     1      -4.565   2.480  24.962  0.00  0.00    +0.101 C 
ATOM     14  C   UNL     1      -3.213   2.284  24.929  0.00  0.00    +0.041 A 
ATOM     15  C   UNL     1      -2.411   2.093  24.904  0.00  0.00    +0.012 A 
ATOM     16  C   UNL     1      -2.177   1.303  24.851  0.00  0.00    +0.006 A 
ATOM     17  C   UNL     1      -2.745   0.705  24.823  0.00  0.00    +0.061 A 
ATOM     18  C   UNL     1      -3.547   0.897  24.848  0.00  0.00    +0.261 A 
ATOM     19  O   UNL     1      -3.654   0.081  24.798  0.00  0.00    -0.267 OA
ATOM     20  N   UNL     1      -3.781   1.686  24.901  0.00  0.00    -0.299 N 
ATOM     21  C   UNL     1      -3.743   2.353  24.941  0.00  0.00    +0.110 C 
ENDROOT
BRANCH   5   4
ATOM      1  F   UNL     1      -4.113  -1.780  23.289  0.00  0.00    -0.204 F 
ATOM      2  C   UNL     1      -3.988  -1.402  24.011  0.00  0.00    +0.141 A 
ATOM      3  C   UNL     1      -4.044  -0.581  24.063  0.00  0.00    +0.046 A 
ATOM      4  C   UNL     1      -3.919  -0.202  24.785  0.00  0.00    +0.077 A 
ATOM     28  C   UNL     1      -3.737  -0.646  25.457  0.00  0.00    +0.017 A 
ATOM     29  C   UNL     1      -3.680  -1.468  25.405  0.00  0.00    +0.004 A 
ATOM     30  C   UNL     1      -3.805  -1.846  24.683  0.00  0.00    +0.030 A 
ENDBRANCH   5   4
BRANCH  15  22
ATOM     22  C   UNL     1      -1.843   2.691  24.933  0.00  0.00    +0.001 A 
ATOM     23  C   UNL     1      -1.546   3.011  24.233  0.00  0.00    +0.000 A 
ATOM     24  C   UNL     1      -0.978   3.609  24.261  0.00  0.00    +0.000 A 
ATOM     25  C   UNL     1      -0.708   3.887  24.989  0.00  0.00    +0.000 A 
ATOM     26  C   UNL     1      -1.005   3.567  25.689  0.00  0.00    +0.000 A 
ATOM     27  C   UNL     1      -1.572   2.969  25.661  0.00  0.00    +0.000 A 
ENDBRANCH  15  22
TORSDOF 2
ENDMDL
MODEL 4
REMARK VINA RESULT:     -16.2      1.651      3.790
REMARK  Name = 
REMARK  2 active torsions:
REMARK  status: ('A' for Active; 'I' for Inactive)
REMARK    1  A    between atoms: C_4  and  N_5
REMARK    2  A    between atoms: C_15  and  C_22
REMARK                            x       y       z     vdW  Elec       q    Type
REMARK                         _______ _______ _______ _____ _____    ______ ____
ROOT
ATOM      5  N   UNL     1      -2.885  -0.435  24.616  0.00  0.00    -0.162 NA
ATOM      6  C   UNL     1      -2.062  -0.364  24.627  0.00  0.00    +0.327 C 
ATOM      7  O   UNL     1      -1.589  -1.036  24.563  0.00  0.00    -0.250 OA
ATOM      8  N   UNL     1      -1.714   0.380  24.702  0.00  0.00    -0.262 N 
ATOM      9  C   UNL     1      -1.111   0.956  24.761  0.00  0.00    +0.097 C 
ATOM     10  C   UNL     1      -1.666   1.770  24.838  0.00  0.00    +0.043 C 
ATOM     11  C   UNL     1      -1.974   2.520  24.910  0.00  0.00    +0.011 C 
ATOM     12  C   UNL     1      -2.215   1.865  24.845  0.00  0.00    +0.058 C 
ATOM     13  C   UNL     1      -1.665   1.088  24.771  0.00  0.00    +0.101 C 
ATOM     14  C   UNL     1      -2.999   1.387  24.794  0.00  0.00    +0.041 A 
ATOM     15  C   UNL     1      -3.816   1.495  24.801  0.00  0.00    +0.012 A 
ATOM     16  C   UNL     1      -4.319   0.844  24.735  0.00  0.00    +0.006 A 
ATOM     17  C   UNL     1      -4.004   0.085  24.662  0.00  0.00    +0.061 A 
ATOM     18  C   UNL     1      -3.186  -0.023  24.655  0.00  0.00    +0.261 A 
ATOM     19  O   UNL     1      -3.379  -0.821  24.576  0.00  0.00    -0.267 OA
ATOM     20  N   UNL     1      -2.684   0.628  24.721  0.00  0.00    -0.299 N 
ATOM     21  C   UNL     1      -2.479   1.262  24.784  0.00  0.00    +0.110 C 
ENDROOT
BRANCH   5   4
ATOM      1  F   UNL     1      -3.596  -2.961  25.749  0.00  0.00    -0.204 F 
ATOM      2  C   UNL     1      -3.588  -2.442  25.108  0.00  0.00    +0.141 A 
ATOM      3  C   UNL     1      -3.240  -1.698  25.182  0.00  0.00    +0.046 A 
ATOM      4  C   UNL     1      -3.233  -1.179  24.542  0.00  0.00    +0.077 A 
ATOM     28  C   UNL     1      -3.575  -1.404  23.825  0.00  0.00    +0.017 A 
ATOM     29  C   UNL     1      -3.923  -2.148  23.750  0.00  0.00    +0.004 A 
ATOM     30  C   UNL     1      -3.930  -2.667  24.391  0.00  0.00    +0.030 A 
ENDBRANCH   5   4
BRANCH  15  22
ATOM     22  C   UNL     1      -4.132   2.254  24.874  0.00  0.00    +0.001 A 
ATOM     23  C   UNL     1      -4.242   2.721  24.203  0.00  0.00    +0.000 A 
ATOM     24  C   UNL     1      -4.557   3.480  24.276  0.00  0.00    +0.000 A 
ATOM     25  C   UNL     1      -4.762   3.772  25.020  0.00  0.00    +0.000 A 
ATOM     26  C   UNL     1      -4.652   3.305  25.690  0.00  0.00    +0.000 A 
ATOM     27  C   UNL     1      -4.337   2.546  25.618  0.00  0.00    +0.000 A 
ENDBRANCH  15  22
TORSDOF 2
ENDMDL
