REMARK  Name = 
REMARK  4 active torsions:
REMARK  status: ('A' for Active; 'I' for Inactive)
REMARK    1  A    between atoms: N_3  and  C_4
REMARK    2  A    between atoms: C_8  and  N_12
REMARK    3  A    between atoms: C_15  and  C_19
REMARK    4  A    between atoms: N_24  and  C_25
REMARK                            x       y       z     vdW  Elec       q    Type
REMARK                         _______ _______ _______ _____ _____    ______ ____
ROOT
ATOM      4  C   UNL     1       1.270  -0.922   0.000  0.00  0.00    +0.156 C 
ATOM      5  C   UNL     1       0.785  -0.255   0.000  0.00  0.00    +0.166 C 
ATOM      6  O   UNL     1       1.270   0.412   0.000  0.00  0.00    -0.350 OA
ATOM      7  C   UNL     1       2.054   0.158   0.000  0.00  0.00    +0.166 C 
ATOM      8  C   UNL     1       2.839   0.412   0.000  0.00  0.00    +0.154 C 
ATOM      9  C   UNL     1       3.324  -0.255   0.000  0.00  0.00    +0.166 C 
ATOM     10  O   UNL     1       2.839  -0.922   0.000  0.00  0.00    -0.350 OA
ATOM     11  C   UNL     1       2.054  -0.667   0.000  0.00  0.00    +0.166 C 
ENDROOT
BRANCH   8  12
ATOM     12  N   UNL     1       3.094   1.197   0.000  0.00  0.00    -0.200 NA
ATOM     13  C   UNL     1       3.901   1.369   0.000  0.00  0.00    +0.237 A 
ATOM     14  N   UNL     1       4.156   2.153   0.000  0.00  0.00    -0.212 NA
ATOM     15  C   UNL     1       4.963   2.325   0.000  0.00  0.00    +0.092 A 
ATOM     16  C   UNL     1       5.515   1.712   0.000  0.00  0.00    +0.040 A 
ATOM     17  C   UNL     1       5.260   0.927   0.000  0.00  0.00    +0.103 A 
ATOM     18  N   UNL     1       4.453   0.756   0.000  0.00  0.00    -0.211 NA
BRANCH  15  19
ATOM     19  C   UNL     1       5.218   3.109   0.000  0.00  0.00    +0.047 A 
ATOM     20  C   UNL     1       4.733   3.777   0.000  0.00  0.00    +0.009 A 
ATOM     21  C   UNL     1       5.218   4.444   0.000  0.00  0.00    +0.008 A 
ATOM     22  C   UNL     1       6.002   4.189   0.000  0.00  0.00    +0.035 A 
ATOM     23  S   UNL     1       6.002   3.364   0.000  0.00  0.00    -0.085 S 
ENDBRANCH  15  19
ENDBRANCH   8  12
BRANCH   4   3
ATOM      1  O   UNL     1      -0.344  -1.265   0.000  0.00  0.00    -0.249 OA
ATOM      2  C   UNL     1       0.208  -1.879   0.000  0.00  0.00    +0.339 C 
ATOM      3  N   UNL     1       1.015  -1.707   0.000  0.00  0.00    -0.184 NA
ATOM     24  N   UNL     1      -0.047  -2.663   0.000  0.00  0.00    -0.189 NA
BRANCH  24  25
ATOM     25  C   UNL     1      -0.854  -2.835   0.000  0.00  0.00    +0.097 C 
ATOM     26  C   UNL     1      -1.109  -3.619   0.000  0.00  0.00    +0.022 C 
ATOM     27  C   UNL     1      -1.916  -3.791   0.000  0.00  0.00    +0.002 C 
ATOM     28  C   UNL     1      -2.468  -3.178   0.000  0.00  0.00    +0.000 C 
ATOM     29  C   UNL     1      -2.213  -2.393   0.000  0.00  0.00    +0.002 C 
ATOM     30  C   UNL     1      -1.406  -2.222   0.000  0.00  0.00    +0.022 C 
ENDBRANCH  24  25
ENDBRANCH   4   3
TORSDOF 4
