REMARK  Name = 
REMARK  6 active torsions:
REMARK  status: ('A' for Active; 'I' for Inactive)
REMARK    1  A    between atoms: C_5  and  C_8
REMARK    2  A    between atoms: C_10  and  C_11
REMARK    3  A    between atoms: C_11  and  C_12
REMARK    4  A    between atoms: C_17  and  C_18
REMARK    5  A    between atoms: C_18  and  C_19
REMARK    6  A    between atoms: N_21  and  C_22
REMARK                            x       y       z     vdW  Elec       q    Type
REMARK                         _______ _______ _______ _____ _____    ______ ____
ROOT
ATOM     12  C   UNL     1       5.898  -2.036   0.000  0.00  0.00    +0.024 C 
ATOM     13  C   UNL     1       6.234  -1.282   0.000  0.00  0.00    +0.089 C 
ATOM     14  N   UNL     1       7.054  -1.196   0.000  0.00  0.00    -0.218 NA
ATOM     15  C   UNL     1       7.539  -1.863   0.000  0.00  0.00    +0.089 C 
ATOM     16  C   UNL     1       7.203  -2.617   0.000  0.00  0.00    +0.019 C 
ATOM     17  C   UNL     1       6.383  -2.703   0.000  0.00  0.00    +0.012 C 
ENDROOT
BRANCH  12  11
ATOM     11  C   UNL     1       5.077  -2.122   0.000  0.00  0.00    +0.051 C 
BRANCH  11  10
ATOM      8  C   UNL     1       4.180  -0.185   0.000  0.00  0.00    +0.177 A 
ATOM      9  C   UNL     1       4.848  -0.670   0.000  0.00  0.00    +0.058 A 
ATOM     10  C   UNL     1       4.593  -1.454   0.000  0.00  0.00    +0.101 A 
ATOM     28  N   UNL     1       3.768  -1.454   0.000  0.00  0.00    -0.081 NA
ATOM     29  O   UNL     1       3.513  -0.670   0.000  0.00  0.00    -0.354 OA
BRANCH   8   5
ATOM      1  F   UNL     1       4.180   3.115   0.000  0.00  0.00    -0.204 F 
ATOM      2  C   UNL     1       4.180   2.290   0.000  0.00  0.00    +0.140 A 
ATOM      3  C   UNL     1       4.895   1.878   0.000  0.00  0.00    +0.030 A 
ATOM      4  C   UNL     1       4.895   1.053   0.000  0.00  0.00    +0.005 A 
ATOM      5  C   UNL     1       4.180   0.640   0.000  0.00  0.00    +0.037 A 
ATOM      6  C   UNL     1       3.466   1.053   0.000  0.00  0.00    +0.005 A 
ATOM      7  C   UNL     1       3.466   1.878   0.000  0.00  0.00    +0.030 A 
ENDBRANCH   8   5
ENDBRANCH  11  10
ENDBRANCH  12  11
BRANCH  17  18
ATOM     18  C   UNL     1       6.047  -3.457   0.000  0.00  0.00    +0.087 C 
BRANCH  18  19
ATOM     19  C   UNL     1       5.227  -3.543   0.000  0.00  0.00    +0.246 C 
ATOM     20  O   UNL     1       4.742  -2.876   0.000  0.00  0.00    -0.273 OA
ATOM     21  N   UNL     1       4.891  -4.297   0.000  0.00  0.00    -0.179 NA
BRANCH  21  22
ATOM     22  C   UNL     1       4.071  -4.383   0.000  0.00  0.00    +0.073 A 
ATOM     23  C   UNL     1       3.735  -5.136   0.000  0.00  0.00    +0.017 A 
ATOM     24  C   UNL     1       2.915  -5.223   0.000  0.00  0.00    +0.001 A 
ATOM     25  C   UNL     1       2.430  -4.555   0.000  0.00  0.00    +0.000 A 
ATOM     26  C   UNL     1       2.765  -3.802   0.000  0.00  0.00    +0.001 A 
ATOM     27  C   UNL     1       3.586  -3.715   0.000  0.00  0.00    +0.017 A 
ENDBRANCH  21  22
ENDBRANCH  18  19
ENDBRANCH  17  18
TORSDOF 6
