MODEL 1
REMARK VINA RESULT:     -10.4      0.000      0.000
REMARK  Name = 
REMARK  6 active torsions:
REMARK  status: ('A' for Active; 'I' for Inactive)
REMARK    1  A    between atoms: O_2  and  C_3
REMARK    2  A    between atoms: C_3  and  C_5
REMARK    3  A    between atoms: C_10  and  C_12
REMARK    4  A    between atoms: C_13  and  N_25
REMARK    5  A    between atoms: C_17  and  C_19
REMARK    6  A    between atoms: N_28  and  C_29
REMARK                            x       y       z     vdW  Elec       q    Type
REMARK                         _______ _______ _______ _____ _____    ______ ____
ROOT
ATOM     12  C   UNL     1      -3.354   1.115  24.782  0.00  0.00    +0.172 C 
ATOM     13  C   UNL     1      -3.690   0.410  24.515  0.00  0.00    +0.126 C 
ATOM     14  C   UNL     1      -4.509   0.506  24.506  0.00  0.00    +0.045 C 
ATOM     15  C   UNL     1      -4.679   1.270  24.768  0.00  0.00    +0.096 C 
ATOM     16  N   UNL     1      -3.965   1.646  24.938  0.00  0.00    -0.267 N 
ATOM     17  C   UNL     1      -3.877   2.418  25.216  0.00  0.00    +0.265 C 
ATOM     18  O   UNL     1      -3.124   2.721  25.362  0.00  0.00    -0.268 OA
ENDROOT
BRANCH  12  10
ATOM      5  C   UNL     1      -1.271   1.600  24.230  0.00  0.00    +0.175 C 
ATOM      6  C   UNL     1      -1.032   1.751  23.455  0.00  0.00    +0.033 C 
ATOM      7  C   UNL     1      -1.694   1.686  22.967  0.00  0.00    +0.024 C 
ATOM      8  C   UNL     1      -2.342   1.494  23.439  0.00  0.00    +0.094 C 
ATOM      9  N   UNL     1      -2.081   1.441  24.220  0.00  0.00    -0.270 N 
ATOM     10  C   UNL     1      -2.547   1.261  24.876  0.00  0.00    +0.246 C 
ATOM     11  O   UNL     1      -2.207   1.227  25.628  0.00  0.00    -0.273 OA
BRANCH   5   3
ATOM      3  C   UNL     1      -0.786   1.606  24.897  0.00  0.00    +0.335 C 
ATOM      4  O   UNL     1      -0.550   0.895  25.243  0.00  0.00    -0.248 OA
BRANCH   3   2
ATOM      1  C   UNL     1       0.152   2.355  25.673  0.00  0.00    +0.256 C 
ATOM      2  O   UNL     1      -0.537   2.323  25.219  0.00  0.00    -0.443 OA
ENDBRANCH   3   2
ENDBRANCH   5   3
ENDBRANCH  12  10
BRANCH  17  19
ATOM     19  C   UNL     1      -4.543   2.887  25.347  0.00  0.00    +0.114 A 
ATOM     20  C   UNL     1      -5.236   2.650  25.725  0.00  0.00    +0.023 A 
ATOM     21  C   UNL     1      -5.753   3.293  25.735  0.00  0.00    +0.020 A 
ATOM     22  C   UNL     1      -5.379   3.927  25.363  0.00  0.00    +0.076 A 
ATOM     23  N   UNL     1      -4.631   3.676  25.123  0.00  0.00    -0.320 N 
ATOM     24  C   UNL     1      -4.071   4.134  24.729  0.00  0.00    +0.131 C 
ENDBRANCH  17  19
BRANCH  13  25
ATOM     25  N   UNL     1      -3.279  -0.271  24.296  0.00  0.00    -0.187 NA
ATOM     26  C   UNL     1      -3.609  -1.014  24.433  0.00  0.00    +0.339 C 
ATOM     27  O   UNL     1      -4.351  -1.077  24.791  0.00  0.00    -0.249 OA
ATOM     28  N   UNL     1      -3.199  -1.695  24.214  0.00  0.00    -0.189 NA
BRANCH  28  29
ATOM     29  C   UNL     1      -3.529  -2.439  24.352  0.00  0.00    +0.097 C 
ATOM     30  C   UNL     1      -4.045  -2.770  23.800  0.00  0.00    +0.023 C 
ATOM     31  C   UNL     1      -3.343  -2.851  25.041  0.00  0.00    +0.023 C 
ENDBRANCH  28  29
ENDBRANCH  13  25
TORSDOF 6
ENDMDL
MODEL 2
REMARK VINA RESULT:     -10.0      1.139      4.319
REMARK  Name = 
REMARK  6 active torsions:
REMARK  status: ('A' for Active; 'I' for Inactive)
REMARK    1  A    between atoms: O_2  and  C_3
REMARK    2  A    between atoms: C_3  and  C_5
REMARK    3  A    between atoms: C_10  and  C_12
REMARK    4  A    between atoms: C_13  and  N_25
REMARK    5  A    between atoms: C_17  and  C_19
REMARK    6  A    between atoms: N_28  and  C_29
REMARK                            x       y       z     vdW  Elec       q    Type
REMARK                         _______ _______ _______ _____ _____    ______ ____
ROOT
ATOM     12  C   UNL     1      -2.966   0.582  24.973  0.00  0.00    +0.172 C 
ATOM     13  C   UNL     1      -2.171   0.774  25.082  0.00  0.00    +0.126 C 
ATOM     14  C   UNL     1      -1.736   0.073  25.073  0.00  0.00    +0.045 C 
ATOM     15  C   UNL     1      -2.262  -0.552  24.958  0.00  0.00    +0.096 C 
ATOM     16  N   UNL     1      -3.022  -0.238  24.896  0.00  0.00    -0.267 N 
ATOM     17  C   UNL     1      -3.716  -0.667  24.779  0.00  0.00    +0.265 C 
ATOM     18  O   UNL     1      -4.441  -0.274  24.728  0.00  0.00    -0.268 OA
ENDROOT
BRANCH  12  10
ATOM      5  C   UNL     1      -4.292   2.161  24.182  0.00  0.00    +0.175 C 
ATOM      6  C   UNL     1      -4.179   2.521  23.448  0.00  0.00    +0.033 C 
ATOM      7  C   UNL     1      -3.511   2.185  23.099  0.00  0.00    +0.024 C 
ATOM      8  C   UNL     1      -3.210   1.618  23.617  0.00  0.00    +0.094 C 
ATOM      9  N   UNL     1      -3.692   1.603  24.286  0.00  0.00    -0.270 N 
ATOM     10  C   UNL     1      -3.594   1.116  24.945  0.00  0.00    +0.246 C 
ATOM     11  O   UNL     1      -4.123   1.163  25.576  0.00  0.00    -0.273 OA
BRANCH   5   3
ATOM      3  C   UNL     1      -4.896   2.330  24.717  0.00  0.00    +0.335 C 
ATOM      4  O   UNL     1      -5.602   1.903  24.690  0.00  0.00    -0.248 OA
BRANCH   3   2
ATOM      1  C   UNL     1      -5.453   3.320  25.585  0.00  0.00    +0.256 C 
ATOM      2  O   UNL     1      -4.795   2.926  25.279  0.00  0.00    -0.443 OA
ENDBRANCH   3   2
ENDBRANCH   5   3
ENDBRANCH  12  10
BRANCH  17  19
ATOM     19  C   UNL     1      -3.688  -1.488  24.713  0.00  0.00    +0.114 A 
ATOM     20  C   UNL     1      -3.330  -2.005  25.247  0.00  0.00    +0.023 A 
ATOM     21  C   UNL     1      -3.433  -2.774  24.964  0.00  0.00    +0.020 A 
ATOM     22  C   UNL     1      -3.853  -2.731  24.256  0.00  0.00    +0.076 A 
ATOM     23  N   UNL     1      -4.011  -1.937  24.101  0.00  0.00    -0.320 N 
ATOM     24  C   UNL     1      -4.420  -1.644  23.448  0.00  0.00    +0.131 C 
ENDBRANCH  17  19
BRANCH  13  25
ATOM     25  N   UNL     1      -1.865   1.533  25.182  0.00  0.00    -0.187 NA
ATOM     26  C   UNL     1      -1.105   1.635  25.488  0.00  0.00    +0.339 C 
ATOM     27  O   UNL     1      -0.652   0.977  25.694  0.00  0.00    -0.249 OA
ATOM     28  N   UNL     1      -0.799   2.394  25.588  0.00  0.00    -0.189 NA
BRANCH  28  29
ATOM     29  C   UNL     1      -0.039   2.496  25.894  0.00  0.00    +0.097 C 
ATOM     30  C   UNL     1       0.070   2.584  26.707  0.00  0.00    +0.023 C 
ATOM     31  C   UNL     1       0.611   2.509  25.387  0.00  0.00    +0.023 C 
ENDBRANCH  28  29
ENDBRANCH  13  25
TORSDOF 6
ENDMDL
MODEL 3
REMARK VINA RESULT:      -9.7      0.917      3.822
REMARK  Name = 
REMARK  6 active torsions:
REMARK  status: ('A' for Active; 'I' for Inactive)
REMARK    1  A    between atoms: O_2  and  C_3
REMARK    2  A    between atoms: C_3  and  C_5
REMARK    3  A    between atoms: C_10  and  C_12
REMARK    4  A    between atoms: C_13  and  N_25
REMARK    5  A    between atoms: C_17  and  C_19
REMARK    6  A    between atoms: N_28  and  C_29
REMARK                            x       y       z     vdW  Elec       q    Type
REMARK                         _______ _______ _______ _____ _____    ______ ____
ROOT
ATOM     12  C   UNL     1      -3.332   0.649  24.614  0.00  0.00    +0.172 C 
ATOM     13  C   UNL     1      -4.008   1.082  24.801  0.00  0.00    +0.126 C 
ATOM     14  C   UNL     1      -4.644   0.557  24.842  0.00  0.00    +0.045 C 
ATOM     15  C   UNL     1      -4.359  -0.200  24.679  0.00  0.00    +0.096 C 
ATOM     16  N   UNL     1      -3.548  -0.143  24.538  0.00  0.00    -0.267 N 
ATOM     17  C   UNL     1      -3.043  -0.768  24.353  0.00  0.00    +0.265 C 
ATOM     18  O   UNL     1      -2.240  -0.627  24.226  0.00  0.00    -0.268 OA
ENDROOT
BRANCH  12  10
ATOM      5  C   UNL     1      -1.632   1.675  23.647  0.00  0.00    +0.175 C 
ATOM      6  C   UNL     1      -1.672   2.002  22.890  0.00  0.00    +0.033 C 
ATOM      7  C   UNL     1      -2.431   1.871  22.596  0.00  0.00    +0.024 C 
ATOM      8  C   UNL     1      -2.861   1.464  23.169  0.00  0.00    +0.094 C 
ATOM      9  N   UNL     1      -2.367   1.342  23.819  0.00  0.00    -0.270 N 
ATOM     10  C   UNL     1      -2.572   0.956  24.518  0.00  0.00    +0.246 C 
ATOM     11  O   UNL     1      -2.016   0.875  25.124  0.00  0.00    -0.273 OA
BRANCH   5   3
ATOM      3  C   UNL     1      -0.973   1.680  24.143  0.00  0.00    +0.335 C 
ATOM      4  O   UNL     1      -0.959   2.171  24.806  0.00  0.00    -0.248 OA
BRANCH   3   2
ATOM      1  C   UNL     1       0.433   1.427  24.197  0.00  0.00    +0.256 C 
ATOM      2  O   UNL     1      -0.328   1.193  23.976  0.00  0.00    -0.443 OA
ENDBRANCH   3   2
ENDBRANCH   5   3
ENDBRANCH  12  10
BRANCH  17  19
ATOM     19  C   UNL     1      -3.340  -1.536  24.296  0.00  0.00    +0.114 A 
ATOM     20  C   UNL     1      -4.041  -1.757  23.922  0.00  0.00    +0.023 A 
ATOM     21  C   UNL     1      -4.123  -2.575  23.997  0.00  0.00    +0.020 A 
ATOM     22  C   UNL     1      -3.472  -2.858  24.417  0.00  0.00    +0.076 A 
ATOM     23  N   UNL     1      -2.988  -2.216  24.601  0.00  0.00    -0.320 N 
ATOM     24  C   UNL     1      -2.277  -2.249  25.018  0.00  0.00    +0.131 C 
ENDBRANCH  17  19
BRANCH  13  25
ATOM     25  N   UNL     1      -4.044   1.896  24.927  0.00  0.00    -0.187 NA
ATOM     26  C   UNL     1      -4.720   2.234  25.260  0.00  0.00    +0.339 C 
ATOM     27  O   UNL     1      -5.360   1.756  25.467  0.00  0.00    -0.249 OA
ATOM     28  N   UNL     1      -4.756   3.048  25.386  0.00  0.00    -0.189 NA
BRANCH  28  29
ATOM     29  C   UNL     1      -5.431   3.385  25.718  0.00  0.00    +0.097 C 
ATOM     30  C   UNL     1      -5.739   3.085  26.421  0.00  0.00    +0.023 C 
ATOM     31  C   UNL     1      -5.798   4.024  25.347  0.00  0.00    +0.023 C 
ENDBRANCH  28  29
ENDBRANCH  13  25
TORSDOF 6
ENDMDL
MODEL 4
REMARK VINA RESULT:      -9.6      1.232      3.138
REMARK  Name = 
REMARK  6 active torsions:
REMARK  status: ('A' for Active; 'I' for Inactive)
REMARK    1  A    between atoms: O_2  and  C_3
REMARK    2  A    between atoms: C_3  and  C_5
REMARK    3  A    between atoms: C_10  and  C_12
REMARK    4  A    between atoms: C_13  and  N_25
REMARK    5  A    between atoms: C_17  and  C_19
REMARK    6  A    between atoms: N_28  and  C_29
REMARK                            x       y       z     vdW  Elec       q    Type
REMARK                         _______ _______ _______ _____ _____    ______ ____
ROOT
ATOM     12  C   UNL     1      -2.645   1.358  24.913  0.00  0.00    +0.172 C 
ATOM     13  C   UNL     1      -2.582   0.576  24.659  0.00  0.00    +0.126 C 
ATOM     14  C   UNL     1      -1.794   0.344  24.739  0.00  0.00    +0.045 C 
ATOM     15  C   UNL     1      -1.371   0.984  25.043  0.00  0.00    +0.096 C 
ATOM     16  N   UNL     1      -1.896   1.611  25.150  0.00  0.00    -0.267 N 
ATOM     17  C   UNL     1      -1.707   2.358  25.444  0.00  0.00    +0.265 C 
ATOM     18  O   UNL     1      -2.295   2.932  25.521  0.00  0.00    -0.268 OA
ENDROOT
BRANCH  12  10
ATOM      5  C   UNL     1      -4.283   2.639  24.170  0.00  0.00    +0.175 C 
ATOM      6  C   UNL     1      -4.339   2.892  23.386  0.00  0.00    +0.033 C 
ATOM      7  C   UNL     1      -3.696   2.584  22.972  0.00  0.00    +0.024 C 
ATOM      8  C   UNL     1      -3.242   2.140  23.498  0.00  0.00    +0.094 C 
ATOM      9  N   UNL     1      -3.604   2.174  24.239  0.00  0.00    -0.270 N 
ATOM     10  C   UNL     1      -3.336   1.808  24.927  0.00  0.00    +0.246 C 
ATOM     11  O   UNL     1      -3.759   1.892  25.631  0.00  0.00    -0.273 OA
BRANCH   5   3
ATOM      3  C   UNL     1      -4.811   2.819  24.777  0.00  0.00    +0.335 C 
ATOM      4  O   UNL     1      -5.354   2.253  25.034  0.00  0.00    -0.248 OA
BRANCH   3   2
ATOM      1  C   UNL     1      -5.469   3.853  25.512  0.00  0.00    +0.256 C 
ATOM      2  O   UNL     1      -4.798   3.566  25.127  0.00  0.00    -0.443 OA
ENDBRANCH   3   2
ENDBRANCH   5   3
ENDBRANCH  12  10
BRANCH  17  19
ATOM     19  C   UNL     1      -0.930   2.532  25.660  0.00  0.00    +0.114 A 
ATOM     20  C   UNL     1      -0.440   2.059  26.124  0.00  0.00    +0.023 A 
ATOM     21  C   UNL     1       0.286   2.444  26.201  0.00  0.00    +0.020 A 
ATOM     22  C   UNL     1       0.243   3.154  25.784  0.00  0.00    +0.076 A 
ATOM     23  N   UNL     1      -0.508   3.208  25.449  0.00  0.00    -0.320 N 
ATOM     24  C   UNL     1      -0.789   3.830  24.986  0.00  0.00    +0.131 C 
ENDBRANCH  17  19
BRANCH  13  25
ATOM     25  N   UNL     1      -3.197   0.107  24.374  0.00  0.00    -0.187 NA
ATOM     26  C   UNL     1      -3.187  -0.709  24.499  0.00  0.00    +0.339 C 
ATOM     27  O   UNL     1      -2.560  -1.055  24.908  0.00  0.00    -0.249 OA
ATOM     28  N   UNL     1      -3.803  -1.178  24.214  0.00  0.00    -0.189 NA
BRANCH  28  29
ATOM     29  C   UNL     1      -3.793  -1.993  24.339  0.00  0.00    +0.097 C 
ATOM     30  C   UNL     1      -3.661  -2.294  25.095  0.00  0.00    +0.023 C 
ATOM     31  C   UNL     1      -3.915  -2.508  23.706  0.00  0.00    +0.023 C 
ENDBRANCH  28  29
ENDBRANCH  13  25
TORSDOF 6
ENDMDL
MODEL 5
REMARK VINA RESULT:      -9.4      1.303      3.509
REMARK  Name = 
REMARK  6 active torsions:
REMARK  status: ('A' for Active; 'I' for Inactive)
REMARK    1  A    between atoms: O_2  and  C_3
REMARK    2  A    between atoms: C_3  and  C_5
REMARK    3  A    between atoms: C_10  and  C_12
REMARK    4  A    between atoms: C_13  and  N_25
REMARK    5  A    between atoms: C_17  and  C_19
REMARK    6  A    between atoms: N_28  and  C_29
REMARK                            x       y       z     vdW  Elec       q    Type
REMARK                         _______ _______ _______ _____ _____    ______ ____
ROOT
ATOM     12  C   UNL     1      -2.944   0.810  24.557  0.00  0.00    +0.172 C 
ATOM     13  C   UNL     1      -2.132   0.959  24.560  0.00  0.00    +0.126 C 
ATOM     14  C   UNL     1      -2.021   1.762  24.716  0.00  0.00    +0.045 C 
ATOM     15  C   UNL     1      -2.765   2.108  24.809  0.00  0.00    +0.096 C 
ATOM     16  N   UNL     1      -3.335   1.520  24.711  0.00  0.00    -0.267 N 
ATOM     17  C   UNL     1      -4.151   1.624  24.758  0.00  0.00    +0.265 C 
ATOM     18  O   UNL     1      -4.656   0.980  24.647  0.00  0.00    -0.268 OA
ENDROOT
BRANCH  12  10
ATOM      5  C   UNL     1      -3.647  -1.243  24.966  0.00  0.00    +0.175 C 
ATOM      6  C   UNL     1      -3.532  -1.625  25.688  0.00  0.00    +0.033 C 
ATOM      7  C   UNL     1      -3.125  -1.110  26.187  0.00  0.00    +0.024 C 
ATOM      8  C   UNL     1      -2.989  -0.409  25.775  0.00  0.00    +0.094 C 
ATOM      9  N   UNL     1      -3.312  -0.491  25.020  0.00  0.00    -0.270 N 
ATOM     10  C   UNL     1      -3.301   0.079  24.423  0.00  0.00    +0.246 C 
ATOM     11  O   UNL     1      -3.648  -0.083  23.692  0.00  0.00    -0.273 OA
BRANCH   5   3
ATOM      3  C   UNL     1      -4.030  -1.557  24.307  0.00  0.00    +0.335 C 
ATOM      4  O   UNL     1      -4.795  -1.312  24.117  0.00  0.00    -0.248 OA
BRANCH   3   2
ATOM      1  C   UNL     1      -4.080  -2.735  23.498  0.00  0.00    +0.256 C 
ATOM      2  O   UNL     1      -3.649  -2.117  23.836  0.00  0.00    -0.443 OA
ENDBRANCH   3   2
ENDBRANCH   5   3
ENDBRANCH  12  10
BRANCH  17  19
ATOM     19  C   UNL     1      -4.464   2.370  24.917  0.00  0.00    +0.114 A 
ATOM     20  C   UNL     1      -4.166   3.088  24.642  0.00  0.00    +0.023 A 
ATOM     21  C   UNL     1      -4.648   3.692  24.934  0.00  0.00    +0.020 A 
ATOM     22  C   UNL     1      -5.243   3.346  25.388  0.00  0.00    +0.076 A 
ATOM     23  N   UNL     1      -5.130   2.529  25.378  0.00  0.00    -0.320 N 
ATOM     24  C   UNL     1      -5.599   1.970  25.761  0.00  0.00    +0.131 C 
ENDBRANCH  17  19
BRANCH  13  25
ATOM     25  N   UNL     1      -1.537   0.404  24.430  0.00  0.00    -0.187 NA
ATOM     26  C   UNL     1      -0.842   0.626  24.044  0.00  0.00    +0.339 C 
ATOM     27  O   UNL     1      -0.743   1.405  23.788  0.00  0.00    -0.249 OA
ATOM     28  N   UNL     1      -0.246   0.072  23.914  0.00  0.00    -0.189 NA
BRANCH  28  29
ATOM     29  C   UNL     1       0.449   0.294  23.529  0.00  0.00    +0.097 C 
ATOM     30  C   UNL     1       0.954   0.847  23.873  0.00  0.00    +0.023 C 
ATOM     31  C   UNL     1       0.638  -0.038  22.797  0.00  0.00    +0.023 C 
ENDBRANCH  28  29
ENDBRANCH  13  25
TORSDOF 6
ENDMDL
MODEL 6
REMARK VINA RESULT:      -9.1      2.010      3.943
REMARK  Name = 
REMARK  6 active torsions:
REMARK  status: ('A' for Active; 'I' for Inactive)
REMARK    1  A    between atoms: O_2  and  C_3
REMARK    2  A    between atoms: C_3  and  C_5
REMARK    3  A    between atoms: C_10  and  C_12
REMARK    4  A    between atoms: C_13  and  N_25
REMARK    5  A    between atoms: C_17  and  C_19
REMARK    6  A    between atoms: N_28  and  C_29
REMARK                            x       y       z     vdW  Elec       q    Type
REMARK                         _______ _______ _______ _____ _____    ______ ____
ROOT
ATOM     12  C   UNL     1      -1.026   0.732  24.439  0.00  0.00    +0.172 C 
ATOM     13  C   UNL     1      -0.372   0.323  24.147  0.00  0.00    +0.126 C 
ATOM     14  C   UNL     1      -0.537  -0.485  24.190  0.00  0.00    +0.045 C 
ATOM     15  C   UNL     1      -1.293  -0.573  24.508  0.00  0.00    +0.096 C 
ATOM     16  N   UNL     1      -1.595   0.179  24.662  0.00  0.00    -0.267 N 
ATOM     17  C   UNL     1      -2.336   0.348  24.983  0.00  0.00    +0.265 C 
ATOM     18  O   UNL     1      -2.563   1.132  25.106  0.00  0.00    -0.268 OA
ENDROOT
BRANCH  12  10
ATOM      5  C   UNL     1      -0.769   2.768  25.256  0.00  0.00    +0.175 C 
ATOM      6  C   UNL     1      -0.347   2.929  25.946  0.00  0.00    +0.033 C 
ATOM      7  C   UNL     1      -0.061   2.214  26.242  0.00  0.00    +0.024 C 
ATOM      8  C   UNL     1      -0.307   1.611  25.736  0.00  0.00    +0.094 C 
ATOM      9  N   UNL     1      -0.745   1.953  25.126  0.00  0.00    -0.270 N 
ATOM     10  C   UNL     1      -1.097   1.552  24.497  0.00  0.00    +0.246 C 
ATOM     11  O   UNL     1      -1.520   1.971  23.925  0.00  0.00    -0.273 OA
BRANCH   5   3
ATOM      3  C   UNL     1      -1.149   3.324  24.779  0.00  0.00    +0.335 C 
ATOM      4  O   UNL     1      -0.812   3.553  24.062  0.00  0.00    -0.248 OA
BRANCH   3   2
ATOM      1  C   UNL     1      -2.044   4.437  24.839  0.00  0.00    +0.256 C 
ATOM      2  O   UNL     1      -1.867   3.651  25.020  0.00  0.00    -0.443 OA
ENDBRANCH   3   2
ENDBRANCH   5   3
ENDBRANCH  12  10
BRANCH  17  19
ATOM     19  C   UNL     1      -2.850  -0.266  25.180  0.00  0.00    +0.114 A 
ATOM     20  C   UNL     1      -2.691  -0.880  25.707  0.00  0.00    +0.023 A 
ATOM     21  C   UNL     1      -3.356  -1.368  25.738  0.00  0.00    +0.020 A 
ATOM     22  C   UNL     1      -3.926  -1.054  25.230  0.00  0.00    +0.076 A 
ATOM     23  N   UNL     1      -3.613  -0.373  24.886  0.00  0.00    -0.320 N 
ATOM     24  C   UNL     1      -3.996   0.114  24.342  0.00  0.00    +0.131 C 
ENDBRANCH  17  19
BRANCH  13  25
ATOM     25  N   UNL     1       0.325   0.660  23.862  0.00  0.00    -0.187 NA
ATOM     26  C   UNL     1       0.829   0.220  23.380  0.00  0.00    +0.339 C 
ATOM     27  O   UNL     1       0.637  -0.557  23.181  0.00  0.00    -0.249 OA
ATOM     28  N   UNL     1       1.526   0.557  23.095  0.00  0.00    -0.189 NA
BRANCH  28  29
ATOM     29  C   UNL     1       2.031   0.118  22.612  0.00  0.00    +0.097 C 
ATOM     30  C   UNL     1       1.770  -0.149  21.877  0.00  0.00    +0.023 C 
ATOM     31  C   UNL     1       2.796  -0.054  22.866  0.00  0.00    +0.023 C 
ENDBRANCH  28  29
ENDBRANCH  13  25
TORSDOF 6
ENDMDL
MODEL 7
REMARK VINA RESULT:      -8.8      1.109      4.282
REMARK  Name = 
REMARK  6 active torsions:
REMARK  status: ('A' for Active; 'I' for Inactive)
REMARK    1  A    between atoms: O_2  and  C_3
REMARK    2  A    between atoms: C_3  and  C_5
REMARK    3  A    between atoms: C_10  and  C_12
REMARK    4  A    between atoms: C_13  and  N_25
REMARK    5  A    between atoms: C_17  and  C_19
REMARK    6  A    between atoms: N_28  and  C_29
REMARK                            x       y       z     vdW  Elec       q    Type
REMARK                         _______ _______ _______ _____ _____    ______ ____
ROOT
ATOM     12  C   UNL     1      -2.660   0.912  24.754  0.00  0.00    +0.172 C 
ATOM     13  C   UNL     1      -3.169   1.558  24.689  0.00  0.00    +0.126 C 
ATOM     14  C   UNL     1      -2.718   2.218  24.483  0.00  0.00    +0.045 C 
ATOM     15  C   UNL     1      -1.931   1.979  24.421  0.00  0.00    +0.096 C 
ATOM     16  N   UNL     1      -1.895   1.172  24.588  0.00  0.00    -0.267 N 
ATOM     17  C   UNL     1      -1.214   0.707  24.590  0.00  0.00    +0.265 C 
ATOM     18  O   UNL     1      -1.263  -0.097  24.769  0.00  0.00    -0.268 OA
ENDROOT
BRANCH  12  10
ATOM      5  C   UNL     1      -3.537  -1.102  24.521  0.00  0.00    +0.175 C 
ATOM      6  C   UNL     1      -3.917  -1.353  23.833  0.00  0.00    +0.033 C 
ATOM      7  C   UNL     1      -3.898  -0.732  23.290  0.00  0.00    +0.024 C 
ATOM      8  C   UNL     1      -3.507  -0.097  23.642  0.00  0.00    +0.094 C 
ATOM      9  N   UNL     1      -3.284  -0.325  24.403  0.00  0.00    -0.270 N 
ATOM     10  C   UNL     1      -2.879   0.141  24.950  0.00  0.00    +0.246 C 
ATOM     11  O   UNL     1      -2.692  -0.164  25.694  0.00  0.00    -0.273 OA
BRANCH   5   3
ATOM      3  C   UNL     1      -3.429  -1.548  25.206  0.00  0.00    +0.335 C 
ATOM      4  O   UNL     1      -3.820  -1.339  25.902  0.00  0.00    -0.248 OA
BRANCH   3   2
ATOM      1  C   UNL     1      -3.128  -2.881  25.626  0.00  0.00    +0.256 C 
ATOM      2  O   UNL     1      -2.930  -2.205  25.196  0.00  0.00    -0.443 OA
ENDBRANCH   3   2
ENDBRANCH   5   3
ENDBRANCH  12  10
BRANCH  17  19
ATOM     19  C   UNL     1      -0.483   1.045  24.413  0.00  0.00    +0.114 A 
ATOM     20  C   UNL     1      -0.188   1.750  24.723  0.00  0.00    +0.023 A 
ATOM     21  C   UNL     1       0.560   1.878  24.396  0.00  0.00    +0.020 A 
ATOM     22  C   UNL     1       0.725   1.253  23.885  0.00  0.00    +0.076 A 
ATOM     23  N   UNL     1       0.082   0.738  23.896  0.00  0.00    -0.320 N 
ATOM     24  C   UNL     1       0.014   0.038  23.464  0.00  0.00    +0.131 C 
ENDBRANCH  17  19
BRANCH  13  25
ATOM     25  N   UNL     1      -3.985   1.547  24.808  0.00  0.00    -0.187 NA
ATOM     26  C   UNL     1      -4.357   2.182  25.181  0.00  0.00    +0.339 C 
ATOM     27  O   UNL     1      -3.911   2.829  25.434  0.00  0.00    -0.249 OA
ATOM     28  N   UNL     1      -5.172   2.171  25.300  0.00  0.00    -0.189 NA
BRANCH  28  29
ATOM     29  C   UNL     1      -5.544   2.806  25.673  0.00  0.00    +0.097 C 
ATOM     30  C   UNL     1      -5.564   3.545  25.308  0.00  0.00    +0.023 C 
ATOM     31  C   UNL     1      -5.896   2.702  26.411  0.00  0.00    +0.023 C 
ENDBRANCH  28  29
ENDBRANCH  13  25
TORSDOF 6
ENDMDL
