MODEL 1
REMARK VINA RESULT:     -11.2      0.000      0.000
REMARK  Name = 
REMARK  7 active torsions:
REMARK  status: ('A' for Active; 'I' for Inactive)
REMARK    1  A    between atoms: C_5  and  C_6
REMARK    2  A    between atoms: C_6  and  C_7
REMARK    3  A    between atoms: N_9  and  C_10
REMARK    4  A    between atoms: C_14  and  C_15
REMARK    5  A    between atoms: C_15  and  N_16
REMARK    6  A    between atoms: N_16  and  C_17
REMARK    7  A    between atoms: C_17  and  C_18
REMARK                            x       y       z     vdW  Elec       q    Type
REMARK                         _______ _______ _______ _____ _____    ______ ____
ROOT
ATOM      1  O   UNL     1      -6.141   1.972  24.998  0.00  0.00    -0.218 OA
ATOM      2  C   UNL     1      -5.380   2.266  25.113  0.00  0.00    +0.213 C 
ATOM      3  C   UNL     1      -5.182   2.953  25.524  0.00  0.00    +0.212 C 
ATOM      4  O   UNL     1      -5.712   3.467  25.893  0.00  0.00    -0.218 OA
ATOM      5  C   UNL     1      -4.361   3.037  25.502  0.00  0.00    +0.157 C 
ATOM     13  O   UNL     1      -4.053   2.401  25.076  0.00  0.00    -0.351 OA
ATOM     14  C   UNL     1      -4.682   1.925  24.836  0.00  0.00    +0.165 C 
ENDROOT
BRANCH   5   6
ATOM      6  C   UNL     1      -3.927   3.649  25.844  0.00  0.00    +0.119 C 
BRANCH   6   7
ATOM      7  C   UNL     1      -3.262   3.948  25.458  0.00  0.00    +0.244 C 
ATOM      8  O   UNL     1      -3.314   4.185  24.670  0.00  0.00    -0.273 OA
ATOM      9  N   UNL     1      -2.544   4.011  25.861  0.00  0.00    -0.207 NA
BRANCH   9  10
ATOM     10  C   UNL     1      -1.879   4.311  25.475  0.00  0.00    +0.095 C 
ATOM     11  C   UNL     1      -1.136   4.193  25.138  0.00  0.00    +0.023 C 
ATOM     12  C   UNL     1      -1.471   4.946  25.145  0.00  0.00    +0.023 C 
ENDBRANCH   9  10
ENDBRANCH   6   7
ENDBRANCH   5   6
BRANCH  14  15
ATOM     15  C   UNL     1      -4.623   1.230  24.396  0.00  0.00    +0.121 C 
BRANCH  15  16
ATOM     16  N   UNL     1      -4.221   0.579  24.707  0.00  0.00    -0.211 NA
BRANCH  16  17
ATOM     17  C   UNL     1      -3.907   0.009  24.200  0.00  0.00    +0.115 C 
BRANCH  17  18
ATOM     18  C   UNL     1      -3.806  -0.767  24.464  0.00  0.00    -0.005 A 
ATOM     19  C   UNL     1      -4.078  -1.397  24.006  0.00  0.00    -0.001 A 
ATOM     20  C   UNL     1      -3.977  -2.172  24.270  0.00  0.00    +0.029 A 
ATOM     21  C   UNL     1      -3.603  -2.317  24.992  0.00  0.00    +0.140 A 
ATOM     22  F   UNL     1      -3.502  -3.092  25.255  0.00  0.00    -0.204 F 
ATOM     23  C   UNL     1      -3.331  -1.686  25.449  0.00  0.00    +0.029 A 
ATOM     24  C   UNL     1      -3.432  -0.912  25.185  0.00  0.00    -0.001 A 
ENDBRANCH  17  18
ENDBRANCH  16  17
ENDBRANCH  15  16
ENDBRANCH  14  15
TORSDOF 7
ENDMDL
MODEL 2
REMARK VINA RESULT:     -10.5      2.007      4.815
REMARK  Name = 
REMARK  7 active torsions:
REMARK  status: ('A' for Active; 'I' for Inactive)
REMARK    1  A    between atoms: C_5  and  C_6
REMARK    2  A    between atoms: C_6  and  C_7
REMARK    3  A    between atoms: N_9  and  C_10
REMARK    4  A    between atoms: C_14  and  C_15
REMARK    5  A    between atoms: C_15  and  N_16
REMARK    6  A    between atoms: N_16  and  C_17
REMARK    7  A    between atoms: C_17  and  C_18
REMARK                            x       y       z     vdW  Elec       q    Type
REMARK                         _______ _______ _______ _____ _____    ______ ____
ROOT
ATOM      1  O   UNL     1      -5.921   3.407  25.746  0.00  0.00    -0.218 OA
ATOM      2  C   UNL     1      -5.422   2.805  25.483  0.00  0.00    +0.213 C 
ATOM      3  C   UNL     1      -5.660   2.096  25.136  0.00  0.00    +0.212 C 
ATOM      4  O   UNL     1      -6.438   1.864  24.991  0.00  0.00    -0.218 OA
ATOM      5  C   UNL     1      -4.983   1.658  24.960  0.00  0.00    +0.157 C 
ATOM     13  O   UNL     1      -4.327   2.098  25.199  0.00  0.00    -0.351 OA
ATOM     14  C   UNL     1      -4.599   2.807  25.522  0.00  0.00    +0.165 C 
ENDROOT
BRANCH   5   6
ATOM      6  C   UNL     1      -4.965   0.913  24.608  0.00  0.00    +0.119 C 
BRANCH   6   7
ATOM      7  C   UNL     1      -4.317   0.416  24.728  0.00  0.00    +0.244 C 
ATOM      8  O   UNL     1      -3.604   0.567  24.342  0.00  0.00    -0.273 OA
ATOM      9  N   UNL     1      -4.382  -0.233  25.235  0.00  0.00    -0.207 NA
BRANCH   9  10
ATOM     10  C   UNL     1      -3.735  -0.730  25.354  0.00  0.00    +0.095 C 
ATOM     11  C   UNL     1      -3.254  -1.350  25.100  0.00  0.00    +0.023 C 
ATOM     12  C   UNL     1      -3.094  -0.970  25.814  0.00  0.00    +0.023 C 
ENDBRANCH   9  10
ENDBRANCH   6   7
ENDBRANCH   5   6
BRANCH  14  15
ATOM     15  C   UNL     1      -4.128   3.411  25.830  0.00  0.00    +0.121 C 
BRANCH  15  16
ATOM     16  N   UNL     1      -3.367   3.531  25.534  0.00  0.00    -0.211 NA
BRANCH  16  17
ATOM     17  C   UNL     1      -2.816   3.956  25.977  0.00  0.00    +0.115 C 
BRANCH  17  18
ATOM     18  C   UNL     1      -2.141   4.261  25.612  0.00  0.00    -0.005 A 
ATOM     19  C   UNL     1      -2.124   5.049  25.369  0.00  0.00    -0.001 A 
ATOM     20  C   UNL     1      -1.450   5.354  25.005  0.00  0.00    +0.029 A 
ATOM     21  C   UNL     1      -0.792   4.870  24.883  0.00  0.00    +0.140 A 
ATOM     22  F   UNL     1      -0.118   5.175  24.519  0.00  0.00    -0.204 F 
ATOM     23  C   UNL     1      -0.810   4.082  25.126  0.00  0.00    +0.029 A 
ATOM     24  C   UNL     1      -1.484   3.778  25.491  0.00  0.00    -0.001 A 
ENDBRANCH  17  18
ENDBRANCH  16  17
ENDBRANCH  15  16
ENDBRANCH  14  15
TORSDOF 7
ENDMDL
MODEL 3
REMARK VINA RESULT:     -10.1      1.704      2.869
REMARK  Name = 
REMARK  7 active torsions:
REMARK  status: ('A' for Active; 'I' for Inactive)
REMARK    1  A    between atoms: C_5  and  C_6
REMARK    2  A    between atoms: C_6  and  C_7
REMARK    3  A    between atoms: N_9  and  C_10
REMARK    4  A    between atoms: C_14  and  C_15
REMARK    5  A    between atoms: C_15  and  N_16
REMARK    6  A    between atoms: N_16  and  C_17
REMARK    7  A    between atoms: C_17  and  C_18
REMARK                            x       y       z     vdW  Elec       q    Type
REMARK                         _______ _______ _______ _____ _____    ______ ____
ROOT
ATOM      1  O   UNL     1      -0.238   1.251  24.856  0.00  0.00    -0.218 OA
ATOM      2  C   UNL     1      -0.985   1.589  24.940  0.00  0.00    +0.213 C 
ATOM      3  C   UNL     1      -1.167   2.389  24.858  0.00  0.00    +0.212 C 
ATOM      4  O   UNL     1      -0.634   2.992  24.678  0.00  0.00    -0.218 OA
ATOM      5  C   UNL     1      -1.977   2.482  24.989  0.00  0.00    +0.157 C 
ATOM     13  O   UNL     1      -2.294   1.737  25.151  0.00  0.00    -0.351 OA
ATOM     14  C   UNL     1      -1.681   1.186  25.121  0.00  0.00    +0.165 C 
ENDROOT
BRANCH   5   6
ATOM      6  C   UNL     1      -2.395   3.192  24.962  0.00  0.00    +0.119 C 
BRANCH   6   7
ATOM      7  C   UNL     1      -3.219   3.184  24.924  0.00  0.00    +0.244 C 
ATOM      8  O   UNL     1      -3.598   2.967  24.224  0.00  0.00    -0.273 OA
ATOM      9  N   UNL     1      -3.665   3.393  25.587  0.00  0.00    -0.207 NA
BRANCH   9  10
ATOM     10  C   UNL     1      -4.489   3.386  25.549  0.00  0.00    +0.095 C 
ATOM     11  C   UNL     1      -5.203   2.980  25.623  0.00  0.00    +0.023 C 
ATOM     12  C   UNL     1      -5.201   3.777  25.409  0.00  0.00    +0.023 C 
ENDBRANCH   9  10
ENDBRANCH   6   7
ENDBRANCH   5   6
BRANCH  14  15
ATOM     15  C   UNL     1      -1.753   0.374  25.250  0.00  0.00    +0.121 C 
BRANCH  15  16
ATOM     16  N   UNL     1      -2.408  -0.033  24.956  0.00  0.00    -0.211 NA
BRANCH  16  17
ATOM     17  C   UNL     1      -2.611  -0.769  25.270  0.00  0.00    +0.115 C 
BRANCH  17  18
ATOM     18  C   UNL     1      -3.112  -1.272  24.849  0.00  0.00    -0.005 A 
ATOM     19  C   UNL     1      -2.972  -2.085  24.849  0.00  0.00    -0.001 A 
ATOM     20  C   UNL     1      -3.473  -2.589  24.428  0.00  0.00    +0.029 A 
ATOM     21  C   UNL     1      -4.113  -2.279  24.009  0.00  0.00    +0.140 A 
ATOM     22  F   UNL     1      -4.612  -2.783  23.589  0.00  0.00    -0.204 F 
ATOM     23  C   UNL     1      -4.251  -1.466  24.010  0.00  0.00    +0.029 A 
ATOM     24  C   UNL     1      -3.751  -0.963  24.430  0.00  0.00    -0.001 A 
ENDBRANCH  17  18
ENDBRANCH  16  17
ENDBRANCH  15  16
ENDBRANCH  14  15
TORSDOF 7
ENDMDL
MODEL 4
REMARK VINA RESULT:     -10.0      2.590      5.141
REMARK  Name = 
REMARK  7 active torsions:
REMARK  status: ('A' for Active; 'I' for Inactive)
REMARK    1  A    between atoms: C_5  and  C_6
REMARK    2  A    between atoms: C_6  and  C_7
REMARK    3  A    between atoms: N_9  and  C_10
REMARK    4  A    between atoms: C_14  and  C_15
REMARK    5  A    between atoms: C_15  and  N_16
REMARK    6  A    between atoms: N_16  and  C_17
REMARK    7  A    between atoms: C_17  and  C_18
REMARK                            x       y       z     vdW  Elec       q    Type
REMARK                         _______ _______ _______ _____ _____    ______ ____
ROOT
ATOM      1  O   UNL     1      -0.857  -0.542  25.154  0.00  0.00    -0.218 OA
ATOM      2  C   UNL     1      -1.589  -0.167  25.098  0.00  0.00    +0.213 C 
ATOM      3  C   UNL     1      -2.312  -0.535  24.949  0.00  0.00    +0.212 C 
ATOM      4  O   UNL     1      -2.430  -1.343  24.830  0.00  0.00    -0.218 OA
ATOM      5  C   UNL     1      -2.898   0.046  24.941  0.00  0.00    +0.157 C 
ATOM     13  O   UNL     1      -2.535   0.774  25.085  0.00  0.00    -0.351 OA
ATOM     14  C   UNL     1      -1.727   0.641  25.182  0.00  0.00    +0.165 C 
ENDROOT
BRANCH   5   6
ATOM      6  C   UNL     1      -3.702  -0.077  24.812  0.00  0.00    +0.119 C 
BRANCH   6   7
ATOM      7  C   UNL     1      -4.199   0.564  24.659  0.00  0.00    +0.244 C 
ATOM      8  O   UNL     1      -4.169   0.944  23.928  0.00  0.00    -0.273 OA
ATOM      9  N   UNL     1      -4.726   0.825  25.239  0.00  0.00    -0.207 NA
BRANCH   9  10
ATOM     10  C   UNL     1      -5.222   1.467  25.086  0.00  0.00    +0.095 C 
ATOM     11  C   UNL     1      -5.973   1.765  24.923  0.00  0.00    +0.023 C 
ATOM     12  C   UNL     1      -5.330   2.277  24.985  0.00  0.00    +0.023 C 
ENDBRANCH   9  10
ENDBRANCH   6   7
ENDBRANCH   5   6
BRANCH  14  15
ATOM     15  C   UNL     1      -1.157   1.217  25.336  0.00  0.00    +0.121 C 
BRANCH  15  16
ATOM     16  N   UNL     1      -1.325   2.012  25.190  0.00  0.00    -0.211 NA
BRANCH  16  17
ATOM     17  C   UNL     1      -0.909   2.601  25.592  0.00  0.00    +0.115 C 
BRANCH  17  18
ATOM     18  C   UNL     1      -1.081   3.396  25.450  0.00  0.00    -0.005 A 
ATOM     19  C   UNL     1      -1.766   3.732  25.762  0.00  0.00    -0.001 A 
ATOM     20  C   UNL     1      -1.938   4.527  25.620  0.00  0.00    +0.029 A 
ATOM     21  C   UNL     1      -1.423   4.985  25.166  0.00  0.00    +0.140 A 
ATOM     22  F   UNL     1      -1.595   5.779  25.024  0.00  0.00    -0.204 F 
ATOM     23  C   UNL     1      -0.738   4.648  24.854  0.00  0.00    +0.029 A 
ATOM     24  C   UNL     1      -0.567   3.854  24.996  0.00  0.00    -0.001 A 
ENDBRANCH  17  18
ENDBRANCH  16  17
ENDBRANCH  15  16
ENDBRANCH  14  15
TORSDOF 7
ENDMDL
MODEL 5
REMARK VINA RESULT:      -9.8      2.763      5.337
REMARK  Name = 
REMARK  7 active torsions:
REMARK  status: ('A' for Active; 'I' for Inactive)
REMARK    1  A    between atoms: C_5  and  C_6
REMARK    2  A    between atoms: C_6  and  C_7
REMARK    3  A    between atoms: N_9  and  C_10
REMARK    4  A    between atoms: C_14  and  C_15
REMARK    5  A    between atoms: C_15  and  N_16
REMARK    6  A    between atoms: N_16  and  C_17
REMARK    7  A    between atoms: C_17  and  C_18
REMARK                            x       y       z     vdW  Elec       q    Type
REMARK                         _______ _______ _______ _____ _____    ______ ____
ROOT
ATOM      1  O   UNL     1      -0.138   1.229  23.790  0.00  0.00    -0.218 OA
ATOM      2  C   UNL     1      -0.702   0.743  24.144  0.00  0.00    +0.213 C 
ATOM      3  C   UNL     1      -0.589  -0.039  24.380  0.00  0.00    +0.212 C 
ATOM      4  O   UNL     1       0.109  -0.472  24.304  0.00  0.00    -0.218 OA
ATOM      5  C   UNL     1      -1.296  -0.312  24.706  0.00  0.00    +0.157 C 
ATOM     13  O   UNL     1      -1.846   0.302  24.670  0.00  0.00    -0.351 OA
ATOM     14  C   UNL     1      -1.479   0.954  24.322  0.00  0.00    +0.165 C 
ENDROOT
BRANCH   5   6
ATOM      6  C   UNL     1      -1.430  -1.066  25.013  0.00  0.00    +0.119 C 
BRANCH   6   7
ATOM      7  C   UNL     1      -2.188  -1.390  24.993  0.00  0.00    +0.244 C 
ATOM      8  O   UNL     1      -2.752  -1.158  25.549  0.00  0.00    -0.273 OA
ATOM      9  N   UNL     1      -2.384  -1.948  24.417  0.00  0.00    -0.207 NA
BRANCH   9  10
ATOM     10  C   UNL     1      -3.142  -2.273  24.397  0.00  0.00    +0.095 C 
ATOM     11  C   UNL     1      -3.930  -2.232  24.158  0.00  0.00    +0.023 C 
ATOM     12  C   UNL     1      -3.667  -2.875  24.603  0.00  0.00    +0.023 C 
ENDBRANCH   9  10
ENDBRANCH   6   7
ENDBRANCH   5   6
BRANCH  14  15
ATOM     15  C   UNL     1      -1.828   1.687  24.180  0.00  0.00    +0.121 C 
BRANCH  15  16
ATOM     16  N   UNL     1      -2.568   1.861  24.502  0.00  0.00    -0.211 NA
BRANCH  16  17
ATOM     17  C   UNL     1      -2.972   2.540  24.263  0.00  0.00    +0.115 C 
BRANCH  17  18
ATOM     18  C   UNL     1      -3.668   2.761  24.647  0.00  0.00    -0.005 A 
ATOM     19  C   UNL     1      -3.652   3.357  25.218  0.00  0.00    -0.001 A 
ATOM     20  C   UNL     1      -4.348   3.578  25.602  0.00  0.00    +0.029 A 
ATOM     21  C   UNL     1      -5.060   3.204  25.415  0.00  0.00    +0.140 A 
ATOM     22  F   UNL     1      -5.755   3.426  25.800  0.00  0.00    -0.204 F 
ATOM     23  C   UNL     1      -5.075   2.609  24.845  0.00  0.00    +0.029 A 
ATOM     24  C   UNL     1      -4.379   2.388  24.461  0.00  0.00    -0.001 A 
ENDBRANCH  17  18
ENDBRANCH  16  17
ENDBRANCH  15  16
ENDBRANCH  14  15
TORSDOF 7
ENDMDL
MODEL 6
REMARK VINA RESULT:      -9.6      2.675      4.241
REMARK  Name = 
REMARK  7 active torsions:
REMARK  status: ('A' for Active; 'I' for Inactive)
REMARK    1  A    between atoms: C_5  and  C_6
REMARK    2  A    between atoms: C_6  and  C_7
REMARK    3  A    between atoms: N_9  and  C_10
REMARK    4  A    between atoms: C_14  and  C_15
REMARK    5  A    between atoms: C_15  and  N_16
REMARK    6  A    between atoms: N_16  and  C_17
REMARK    7  A    between atoms: C_17  and  C_18
REMARK                            x       y       z     vdW  Elec       q    Type
REMARK                         _______ _______ _______ _____ _____    ______ ____
ROOT
ATOM      1  O   UNL     1      -3.567  -1.903  24.709  0.00  0.00    -0.218 OA
ATOM      2  C   UNL     1      -3.060  -1.276  24.880  0.00  0.00    +0.213 C 
ATOM      3  C   UNL     1      -2.243  -1.326  24.981  0.00  0.00    +0.212 C 
ATOM      4  O   UNL     1      -1.790  -2.014  24.928  0.00  0.00    -0.218 OA
ATOM      5  C   UNL     1      -1.958  -0.569  25.144  0.00  0.00    +0.157 C 
ATOM     13  O   UNL     1      -2.600  -0.051  25.143  0.00  0.00    -0.351 OA
ATOM     14  C   UNL     1      -3.281  -0.488  24.980  0.00  0.00    +0.165 C 
ENDROOT
BRANCH   5   6
ATOM      6  C   UNL     1      -1.171  -0.367  25.283  0.00  0.00    +0.119 C 
BRANCH   6   7
ATOM      7  C   UNL     1      -0.918   0.409  25.162  0.00  0.00    +0.244 C 
ATOM      8  O   UNL     1      -0.822   0.698  24.396  0.00  0.00    -0.273 OA
ATOM      9  N   UNL     1      -0.761   0.897  25.809  0.00  0.00    -0.207 NA
BRANCH   9  10
ATOM     10  C   UNL     1      -0.507   1.673  25.689  0.00  0.00    +0.095 C 
ATOM     11  C   UNL     1       0.022   2.207  25.349  0.00  0.00    +0.023 C 
ATOM     12  C   UNL     1      -0.597   2.482  25.820  0.00  0.00    +0.023 C 
ENDBRANCH   9  10
ENDBRANCH   6   7
ENDBRANCH   5   6
BRANCH  14  15
ATOM     15  C   UNL     1      -4.048  -0.188  24.927  0.00  0.00    +0.121 C 
BRANCH  15  16
ATOM     16  N   UNL     1      -4.190   0.610  25.087  0.00  0.00    -0.211 NA
BRANCH  16  17
ATOM     17  C   UNL     1      -4.918   0.945  24.891  0.00  0.00    +0.115 C 
BRANCH  17  18
ATOM     18  C   UNL     1      -5.066   1.738  25.067  0.00  0.00    -0.005 A 
ATOM     19  C   UNL     1      -5.576   1.934  25.685  0.00  0.00    -0.001 A 
ATOM     20  C   UNL     1      -5.725   2.727  25.861  0.00  0.00    +0.029 A 
ATOM     21  C   UNL     1      -5.363   3.323  25.418  0.00  0.00    +0.140 A 
ATOM     22  F   UNL     1      -5.513   4.114  25.595  0.00  0.00    -0.204 F 
ATOM     23  C   UNL     1      -4.854   3.126  24.801  0.00  0.00    +0.029 A 
ATOM     24  C   UNL     1      -4.705   2.334  24.625  0.00  0.00    -0.001 A 
ENDBRANCH  17  18
ENDBRANCH  16  17
ENDBRANCH  15  16
ENDBRANCH  14  15
TORSDOF 7
ENDMDL
