MODEL 1
REMARK VINA RESULT:     -11.0      0.000      0.000
REMARK  Name = 
REMARK  9 active torsions:
REMARK  status: ('A' for Active; 'I' for Inactive)
REMARK    1  A    between atoms: C_2  and  C_4
REMARK    2  A    between atoms: C_6  and  C_7
REMARK    3  A    between atoms: C_7  and  C_8
REMARK    4  A    between atoms: N_10  and  C_11
REMARK    5  A    between atoms: C_19  and  C_20
REMARK    6  A    between atoms: C_20  and  N_21
REMARK    7  A    between atoms: C_22  and  C_24
REMARK    8  A    between atoms: C_24  and  O_25
REMARK    9  A    between atoms: O_25  and  C_26
REMARK                            x       y       z     vdW  Elec       q    Type
REMARK                         _______ _______ _______ _____ _____    ______ ____
ROOT
ATOM      4  C   UNL     1      -4.822   1.333  24.769  0.00  0.00    +0.006 C 
ATOM      5  C   UNL     1      -4.709   0.621  24.369  0.00  0.00    +0.005 C 
ATOM      6  C   UNL     1      -4.028   0.502  23.919  0.00  0.00    +0.027 C 
ATOM     16  C   UNL     1      -3.459   1.097  23.869  0.00  0.00    -0.048 C 
ATOM     17  C   UNL     1      -2.777   0.980  23.418  0.00  0.00    +0.026 C 
ATOM     18  C   UNL     1      -3.571   1.811  24.269  0.00  0.00    -0.033 C 
ATOM     19  C   UNL     1      -4.253   1.928  24.719  0.00  0.00    +0.043 C 
ENDROOT
BRANCH   4   2
ATOM      1  C   UNL     1      -5.519   1.220  26.011  0.00  0.00    +0.000 C 
ATOM      2  C   UNL     1      -5.502   1.451  25.219  0.00  0.00    +0.000 C 
ATOM      3  C   UNL     1      -6.168   1.799  24.876  0.00  0.00    +0.000 C 
ENDBRANCH   4   2
BRANCH   6   7
ATOM      7  C   UNL     1      -3.915  -0.211  23.519  0.00  0.00    +0.091 C 
BRANCH   7   8
ATOM      8  C   UNL     1      -3.962  -0.925  23.927  0.00  0.00    +0.242 C 
ATOM      9  O   UNL     1      -4.699  -1.260  24.089  0.00  0.00    -0.273 OA
ATOM     10  N   UNL     1      -3.274  -1.306  24.174  0.00  0.00    -0.207 NA
BRANCH  10  11
ATOM     11  C   UNL     1      -3.321  -2.021  24.582  0.00  0.00    +0.095 C 
ATOM     12  C   UNL     1      -3.179  -2.130  25.388  0.00  0.00    +0.022 C 
ATOM     13  C   UNL     1      -3.289  -2.930  25.560  0.00  0.00    +0.002 C 
ATOM     14  C   UNL     1      -3.497  -3.315  24.860  0.00  0.00    +0.002 C 
ATOM     15  C   UNL     1      -3.517  -2.753  24.256  0.00  0.00    +0.022 C 
ENDBRANCH  10  11
ENDBRANCH   7   8
ENDBRANCH   6   7
BRANCH  19  20
ATOM     20  C   UNL     1      -4.364   2.641  25.118  0.00  0.00    +0.120 C 
BRANCH  20  21
ATOM     21  N   UNL     1      -3.819   3.254  25.027  0.00  0.00    -0.202 NA
ATOM     22  C   UNL     1      -3.726   3.815  25.625  0.00  0.00    +0.286 C 
ATOM     23  O   UNL     1      -4.178   3.763  26.312  0.00  0.00    -0.269 OA
BRANCH  22  24
ATOM     24  C   UNL     1      -3.181   4.428  25.534  0.00  0.00    +0.291 C 
BRANCH  24  25
ATOM     25  O   UNL     1      -2.437   4.373  25.886  0.00  0.00    -0.466 OA
BRANCH  25  26
ATOM     26  C   UNL     1      -1.765   4.613  25.470  0.00  0.00    +0.139 A 
ATOM     27  C   UNL     1      -1.149   4.081  25.339  0.00  0.00    +0.037 A 
ATOM     28  C   UNL     1      -0.478   4.322  24.923  0.00  0.00    +0.003 A 
ATOM     29  C   UNL     1      -0.423   5.094  24.640  0.00  0.00    +0.000 A 
ATOM     30  C   UNL     1      -1.040   5.626  24.772  0.00  0.00    +0.003 A 
ATOM     31  C   UNL     1      -1.711   5.386  25.187  0.00  0.00    +0.037 A 
ENDBRANCH  25  26
ENDBRANCH  24  25
ENDBRANCH  22  24
ENDBRANCH  20  21
ENDBRANCH  19  20
TORSDOF 9
ENDMDL
MODEL 2
REMARK VINA RESULT:     -10.4      3.792      5.316
REMARK  Name = 
REMARK  9 active torsions:
REMARK  status: ('A' for Active; 'I' for Inactive)
REMARK    1  A    between atoms: C_2  and  C_4
REMARK    2  A    between atoms: C_6  and  C_7
REMARK    3  A    between atoms: C_7  and  C_8
REMARK    4  A    between atoms: N_10  and  C_11
REMARK    5  A    between atoms: C_19  and  C_20
REMARK    6  A    between atoms: C_20  and  N_21
REMARK    7  A    between atoms: C_22  and  C_24
REMARK    8  A    between atoms: C_24  and  O_25
REMARK    9  A    between atoms: O_25  and  C_26
REMARK                            x       y       z     vdW  Elec       q    Type
REMARK                         _______ _______ _______ _____ _____    ______ ____
ROOT
ATOM      4  C   UNL     1      -1.420   0.616  24.621  0.00  0.00    +0.006 C 
ATOM      5  C   UNL     1      -1.989   1.146  24.894  0.00  0.00    +0.005 C 
ATOM      6  C   UNL     1      -1.929   1.948  24.709  0.00  0.00    +0.027 C 
ATOM     16  C   UNL     1      -1.298   2.220  24.252  0.00  0.00    -0.048 C 
ATOM     17  C   UNL     1      -1.237   3.022  24.067  0.00  0.00    +0.026 C 
ATOM     18  C   UNL     1      -0.728   1.689  23.979  0.00  0.00    -0.033 C 
ATOM     19  C   UNL     1      -0.789   0.887  24.164  0.00  0.00    +0.043 C 
ENDROOT
BRANCH   4   2
ATOM      1  C   UNL     1      -1.878  -0.698  24.296  0.00  0.00    +0.000 C 
ATOM      2  C   UNL     1      -1.480  -0.185  24.806  0.00  0.00    +0.000 C 
ATOM      3  C   UNL     1      -1.142  -0.475  25.501  0.00  0.00    +0.000 C 
ENDBRANCH   4   2
BRANCH   6   7
ATOM      7  C   UNL     1      -2.499   2.480  24.982  0.00  0.00    +0.091 C 
BRANCH   7   8
ATOM      8  C   UNL     1      -3.296   2.348  24.821  0.00  0.00    +0.242 C 
ATOM      9  O   UNL     1      -3.554   2.284  24.040  0.00  0.00    -0.273 OA
ATOM     10  N   UNL     1      -3.837   2.281  25.440  0.00  0.00    -0.207 NA
BRANCH  10  11
ATOM     11  C   UNL     1      -4.635   2.149  25.279  0.00  0.00    +0.095 C 
ATOM     12  C   UNL     1      -5.207   2.731  25.152  0.00  0.00    +0.022 C 
ATOM     13  C   UNL     1      -5.927   2.353  25.012  0.00  0.00    +0.002 C 
ATOM     14  C   UNL     1      -5.800   1.539  25.052  0.00  0.00    +0.002 C 
ATOM     15  C   UNL     1      -5.001   1.413  25.217  0.00  0.00    +0.022 C 
ENDBRANCH  10  11
ENDBRANCH   7   8
ENDBRANCH   6   7
BRANCH  19  20
ATOM     20  C   UNL     1      -0.219   0.358  23.891  0.00  0.00    +0.120 C 
BRANCH  20  21
ATOM     21  N   UNL     1       0.552   0.618  23.752  0.00  0.00    -0.202 NA
ATOM     22  C   UNL     1       1.044   0.195  23.242  0.00  0.00    +0.286 C 
ATOM     23  O   UNL     1       0.765  -0.487  22.872  0.00  0.00    -0.269 OA
BRANCH  22  24
ATOM     24  C   UNL     1       1.815   0.455  23.102  0.00  0.00    +0.291 C 
BRANCH  24  25
ATOM     25  O   UNL     1       2.385  -0.075  22.830  0.00  0.00    -0.466 OA
BRANCH  25  26
ATOM     26  C   UNL     1       3.187   0.113  22.894  0.00  0.00    +0.139 A 
ATOM     27  C   UNL     1       3.469   0.825  22.588  0.00  0.00    +0.037 A 
ATOM     28  C   UNL     1       4.270   1.012  22.652  0.00  0.00    +0.003 A 
ATOM     29  C   UNL     1       4.788   0.488  23.023  0.00  0.00    +0.000 A 
ATOM     30  C   UNL     1       4.505  -0.224  23.329  0.00  0.00    +0.003 A 
ATOM     31  C   UNL     1       3.705  -0.412  23.265  0.00  0.00    +0.037 A 
ENDBRANCH  25  26
ENDBRANCH  24  25
ENDBRANCH  22  24
ENDBRANCH  20  21
ENDBRANCH  19  20
TORSDOF 9
ENDMDL
MODEL 3
REMARK VINA RESULT:     -10.3      2.385      3.581
REMARK  Name = 
REMARK  9 active torsions:
REMARK  status: ('A' for Active; 'I' for Inactive)
REMARK    1  A    between atoms: C_2  and  C_4
REMARK    2  A    between atoms: C_6  and  C_7
REMARK    3  A    between atoms: C_7  and  C_8
REMARK    4  A    between atoms: N_10  and  C_11
REMARK    5  A    between atoms: C_19  and  C_20
REMARK    6  A    between atoms: C_20  and  N_21
REMARK    7  A    between atoms: C_22  and  C_24
REMARK    8  A    between atoms: C_24  and  O_25
REMARK    9  A    between atoms: O_25  and  C_26
REMARK                            x       y       z     vdW  Elec       q    Type
REMARK                         _______ _______ _______ _____ _____    ______ ____
ROOT
ATOM      4  C   UNL     1      -0.220  -0.338  24.037  0.00  0.00    +0.006 C 
ATOM      5  C   UNL     1      -0.585  -1.036  24.280  0.00  0.00    +0.005 C 
ATOM      6  C   UNL     1      -1.010  -1.055  24.988  0.00  0.00    +0.027 C 
ATOM     16  C   UNL     1      -1.068  -0.375  25.452  0.00  0.00    -0.048 C 
ATOM     17  C   UNL     1      -1.492  -0.393  26.160  0.00  0.00    +0.026 C 
ATOM     18  C   UNL     1      -0.702   0.324  25.208  0.00  0.00    -0.033 C 
ATOM     19  C   UNL     1      -0.278   0.342  24.500  0.00  0.00    +0.043 C 
ENDROOT
BRANCH   4   2
ATOM      1  C   UNL     1       1.012  -0.486  23.328  0.00  0.00    +0.000 C 
ATOM      2  C   UNL     1       0.204  -0.320  23.330  0.00  0.00    +0.000 C 
ATOM      3  C   UNL     1      -0.181  -0.135  22.623  0.00  0.00    +0.000 C 
ENDBRANCH   4   2
BRANCH   6   7
ATOM      7  C   UNL     1      -1.376  -1.753  25.232  0.00  0.00    +0.091 C 
BRANCH   7   8
ATOM      8  C   UNL     1      -1.981  -2.082  24.780  0.00  0.00    +0.242 C 
ATOM      9  O   UNL     1      -1.799  -2.577  24.146  0.00  0.00    -0.273 OA
ATOM     10  N   UNL     1      -2.768  -1.916  24.961  0.00  0.00    -0.207 NA
BRANCH  10  11
ATOM     11  C   UNL     1      -3.374  -2.245  24.508  0.00  0.00    +0.095 C 
ATOM     12  C   UNL     1      -3.568  -3.047  24.465  0.00  0.00    +0.022 C 
ATOM     13  C   UNL     1      -4.207  -3.127  23.949  0.00  0.00    +0.002 C 
ATOM     14  C   UNL     1      -4.408  -2.375  23.673  0.00  0.00    +0.002 C 
ATOM     15  C   UNL     1      -3.893  -1.831  24.019  0.00  0.00    +0.022 C 
ENDBRANCH  10  11
ENDBRANCH   7   8
ENDBRANCH   6   7
BRANCH  19  20
ATOM     20  C   UNL     1       0.087   1.040  24.257  0.00  0.00    +0.120 C 
BRANCH  20  21
ATOM     21  N   UNL     1      -0.320   1.757  24.306  0.00  0.00    -0.202 NA
ATOM     22  C   UNL     1       0.099   2.464  24.381  0.00  0.00    +0.286 C 
ATOM     23  O   UNL     1       0.922   2.455  24.408  0.00  0.00    -0.269 OA
BRANCH  22  24
ATOM     24  C   UNL     1      -0.308   3.180  24.429  0.00  0.00    +0.291 C 
BRANCH  24  25
ATOM     25  O   UNL     1      -0.466   3.515  25.167  0.00  0.00    -0.466 OA
BRANCH  25  26
ATOM     26  C   UNL     1      -1.041   4.104  25.238  0.00  0.00    +0.139 A 
ATOM     27  C   UNL     1      -1.763   3.932  25.597  0.00  0.00    +0.037 A 
ATOM     28  C   UNL     1      -2.338   4.520  25.668  0.00  0.00    +0.003 A 
ATOM     29  C   UNL     1      -2.190   5.279  25.380  0.00  0.00    +0.000 A 
ATOM     30  C   UNL     1      -1.467   5.449  25.020  0.00  0.00    +0.003 A 
ATOM     31  C   UNL     1      -0.893   4.862  24.949  0.00  0.00    +0.037 A 
ENDBRANCH  25  26
ENDBRANCH  24  25
ENDBRANCH  22  24
ENDBRANCH  20  21
ENDBRANCH  19  20
TORSDOF 9
ENDMDL
MODEL 4
REMARK VINA RESULT:      -9.6      3.183      4.866
REMARK  Name = 
REMARK  9 active torsions:
REMARK  status: ('A' for Active; 'I' for Inactive)
REMARK    1  A    between atoms: C_2  and  C_4
REMARK    2  A    between atoms: C_6  and  C_7
REMARK    3  A    between atoms: C_7  and  C_8
REMARK    4  A    between atoms: N_10  and  C_11
REMARK    5  A    between atoms: C_19  and  C_20
REMARK    6  A    between atoms: C_20  and  N_21
REMARK    7  A    between atoms: C_22  and  C_24
REMARK    8  A    between atoms: C_24  and  O_25
REMARK    9  A    between atoms: O_25  and  C_26
REMARK                            x       y       z     vdW  Elec       q    Type
REMARK                         _______ _______ _______ _____ _____    ______ ____
ROOT
ATOM      4  C   UNL     1      -1.773   2.960  24.685  0.00  0.00    +0.006 C 
ATOM      5  C   UNL     1      -2.578   3.009  24.516  0.00  0.00    +0.005 C 
ATOM      6  C   UNL     1      -2.899   2.563  23.900  0.00  0.00    +0.027 C 
ATOM     16  C   UNL     1      -2.413   2.067  23.455  0.00  0.00    -0.048 C 
ATOM     17  C   UNL     1      -2.734   1.619  22.839  0.00  0.00    +0.026 C 
ATOM     18  C   UNL     1      -1.607   2.017  23.624  0.00  0.00    -0.033 C 
ATOM     19  C   UNL     1      -1.287   2.464  24.239  0.00  0.00    +0.043 C 
ENDROOT
BRANCH   4   2
ATOM      1  C   UNL     1      -1.417   3.094  26.062  0.00  0.00    +0.000 C 
ATOM      2  C   UNL     1      -1.452   3.407  25.299  0.00  0.00    +0.000 C 
ATOM      3  C   UNL     1      -1.167   4.168  25.151  0.00  0.00    +0.000 C 
ENDBRANCH   4   2
BRANCH   6   7
ATOM      7  C   UNL     1      -3.705   2.611  23.731  0.00  0.00    +0.091 C 
BRANCH   7   8
ATOM      8  C   UNL     1      -4.259   2.329  24.272  0.00  0.00    +0.242 C 
ATOM      9  O   UNL     1      -4.206   1.554  24.550  0.00  0.00    -0.273 OA
ATOM     10  N   UNL     1      -4.865   2.821  24.536  0.00  0.00    -0.207 NA
BRANCH  10  11
ATOM     11  C   UNL     1      -5.420   2.539  25.078  0.00  0.00    +0.095 C 
ATOM     12  C   UNL     1      -6.023   1.998  24.919  0.00  0.00    +0.022 C 
ATOM     13  C   UNL     1      -6.444   1.874  25.617  0.00  0.00    +0.002 C 
ATOM     14  C   UNL     1      -6.101   2.338  26.208  0.00  0.00    +0.002 C 
ATOM     15  C   UNL     1      -5.469   2.749  25.874  0.00  0.00    +0.022 C 
ENDBRANCH  10  11
ENDBRANCH   7   8
ENDBRANCH   6   7
BRANCH  19  20
ATOM     20  C   UNL     1      -0.481   2.415  24.408  0.00  0.00    +0.120 C 
BRANCH  20  21
ATOM     21  N   UNL     1       0.007   1.932  23.949  0.00  0.00    -0.202 NA
ATOM     22  C   UNL     1       0.746   1.704  24.235  0.00  0.00    +0.286 C 
ATOM     23  O   UNL     1       0.998   1.958  24.978  0.00  0.00    -0.269 OA
BRANCH  22  24
ATOM     24  C   UNL     1       1.234   1.220  23.777  0.00  0.00    +0.291 C 
BRANCH  24  25
ATOM     25  O   UNL     1       1.957   1.507  23.503  0.00  0.00    -0.466 OA
BRANCH  25  26
ATOM     26  C   UNL     1       2.462   1.012  23.077  0.00  0.00    +0.139 A 
ATOM     27  C   UNL     1       3.269   1.179  23.041  0.00  0.00    +0.037 A 
ATOM     28  C   UNL     1       3.774   0.684  22.615  0.00  0.00    +0.003 A 
ATOM     29  C   UNL     1       3.472   0.023  22.226  0.00  0.00    +0.000 A 
ATOM     30  C   UNL     1       2.664  -0.143  22.262  0.00  0.00    +0.003 A 
ATOM     31  C   UNL     1       2.160   0.351  22.687  0.00  0.00    +0.037 A 
ENDBRANCH  25  26
ENDBRANCH  24  25
ENDBRANCH  22  24
ENDBRANCH  20  21
ENDBRANCH  19  20
TORSDOF 9
ENDMDL
MODEL 5
REMARK VINA RESULT:      -9.2      1.945      5.628
REMARK  Name = 
REMARK  9 active torsions:
REMARK  status: ('A' for Active; 'I' for Inactive)
REMARK    1  A    between atoms: C_2  and  C_4
REMARK    2  A    between atoms: C_6  and  C_7
REMARK    3  A    between atoms: C_7  and  C_8
REMARK    4  A    between atoms: N_10  and  C_11
REMARK    5  A    between atoms: C_19  and  C_20
REMARK    6  A    between atoms: C_20  and  N_21
REMARK    7  A    between atoms: C_22  and  C_24
REMARK    8  A    between atoms: C_24  and  O_25
REMARK    9  A    between atoms: O_25  and  C_26
REMARK                            x       y       z     vdW  Elec       q    Type
REMARK                         _______ _______ _______ _____ _____    ______ ____
ROOT
ATOM      4  C   UNL     1      -1.226   1.990  24.714  0.00  0.00    +0.006 C 
ATOM      5  C   UNL     1      -1.725   2.635  24.598  0.00  0.00    +0.005 C 
ATOM      6  C   UNL     1      -2.247   2.644  23.959  0.00  0.00    +0.027 C 
ATOM     16  C   UNL     1      -2.269   2.007  23.436  0.00  0.00    -0.048 C 
ATOM     17  C   UNL     1      -2.791   2.015  22.796  0.00  0.00    +0.026 C 
ATOM     18  C   UNL     1      -1.769   1.360  23.552  0.00  0.00    -0.033 C 
ATOM     19  C   UNL     1      -1.248   1.352  24.191  0.00  0.00    +0.043 C 
ENDROOT
BRANCH   4   2
ATOM      1  C   UNL     1      -0.943   1.668  26.077  0.00  0.00    +0.000 C 
ATOM      2  C   UNL     1      -0.704   1.981  25.352  0.00  0.00    +0.000 C 
ATOM      3  C   UNL     1       0.059   2.286  25.266  0.00  0.00    +0.000 C 
ENDBRANCH   4   2
BRANCH   6   7
ATOM      7  C   UNL     1      -2.747   3.290  23.842  0.00  0.00    +0.091 C 
BRANCH   7   8
ATOM      8  C   UNL     1      -3.322   3.474  24.404  0.00  0.00    +0.242 C 
ATOM      9  O   UNL     1      -3.142   3.982  25.028  0.00  0.00    -0.273 OA
ATOM     10  N   UNL     1      -4.078   3.150  24.341  0.00  0.00    -0.207 NA
BRANCH  10  11
ATOM     11  C   UNL     1      -4.654   3.333  24.903  0.00  0.00    +0.095 C 
ATOM     12  C   UNL     1      -4.949   4.087  25.068  0.00  0.00    +0.022 C 
ATOM     13  C   UNL     1      -5.513   4.014  25.665  0.00  0.00    +0.002 C 
ATOM     14  C   UNL     1      -5.567   3.216  25.870  0.00  0.00    +0.002 C 
ATOM     15  C   UNL     1      -5.035   2.796  25.398  0.00  0.00    +0.022 C 
ENDBRANCH  10  11
ENDBRANCH   7   8
ENDBRANCH   6   7
BRANCH  19  20
ATOM     20  C   UNL     1      -0.748   0.706  24.306  0.00  0.00    +0.120 C 
BRANCH  20  21
ATOM     21  N   UNL     1      -1.061  -0.059  24.324  0.00  0.00    -0.202 NA
ATOM     22  C   UNL     1      -0.561  -0.709  24.238  0.00  0.00    +0.286 C 
ATOM     23  O   UNL     1       0.249  -0.598  24.135  0.00  0.00    -0.269 OA
BRANCH  22  24
ATOM     24  C   UNL     1      -0.874  -1.474  24.256  0.00  0.00    +0.291 C 
BRANCH  24  25
ATOM     25  O   UNL     1      -1.304  -1.728  24.913  0.00  0.00    -0.466 OA
BRANCH  25  26
ATOM     26  C   UNL     1      -2.009  -2.144  24.807  0.00  0.00    +0.139 A 
ATOM     27  C   UNL     1      -2.684  -1.921  25.225  0.00  0.00    +0.037 A 
ATOM     28  C   UNL     1      -3.390  -2.338  25.120  0.00  0.00    +0.003 A 
ATOM     29  C   UNL     1      -3.419  -2.975  24.597  0.00  0.00    +0.000 A 
ATOM     30  C   UNL     1      -2.742  -3.197  24.180  0.00  0.00    +0.003 A 
ATOM     31  C   UNL     1      -2.038  -2.781  24.285  0.00  0.00    +0.037 A 
ENDBRANCH  25  26
ENDBRANCH  24  25
ENDBRANCH  22  24
ENDBRANCH  20  21
ENDBRANCH  19  20
TORSDOF 9
ENDMDL
