MODEL 1
REMARK VINA RESULT:      -7.3      0.000      0.000
REMARK  Name = 
REMARK  4 active torsions:
REMARK  status: ('A' for Active; 'I' for Inactive)
REMARK    1  A    between atoms: O_2  and  C_3
REMARK    2  A    between atoms: C_3  and  C_4
REMARK    3  A    between atoms: C_11  and  O_13
REMARK    4  A    between atoms: O_13  and  C_14
REMARK                            x       y       z     vdW  Elec       q    Type
REMARK                         _______ _______ _______ _____ _____    ______ ____
ROOT
ATOM      4  C   UNL     1      -3.778  -0.816  24.378  0.00  0.00    +0.256 C 
ATOM      5  O   UNL     1      -4.538  -0.833  24.055  0.00  0.00    -0.272 OA
ATOM      6  N   UNL     1      -3.396  -0.095  24.498  0.00  0.00    -0.271 N 
ATOM      7  C   UNL     1      -2.639  -0.141  24.824  0.00  0.00    +0.126 C 
ATOM      8  C   UNL     1      -2.122   0.474  25.009  0.00  0.00    +0.164 C 
ATOM      9  O   UNL     1      -2.232   1.286  24.914  0.00  0.00    -0.348 OA
ATOM     10  C   UNL     1      -2.888   1.684  24.611  0.00  0.00    +0.187 C 
ATOM     11  C   UNL     1      -3.596   1.368  24.327  0.00  0.00    +0.217 C 
ATOM     12  C   UNL     1      -3.822   0.576  24.277  0.00  0.00    +0.140 C 
ENDROOT
BRANCH   4   3
ATOM      3  C   UNL     1      -3.401  -1.522  24.580  0.00  0.00    +0.227 C 
BRANCH   3   2
ATOM      1  C   UNL     1      -3.410  -2.948  24.671  0.00  0.00    +0.175 C 
ATOM      2  O   UNL     1      -3.777  -2.244  24.445  0.00  0.00    -0.342 OA
ENDBRANCH   3   2
ENDBRANCH   4   3
BRANCH  11  13
ATOM     13  O   UNL     1      -4.150   1.916  24.059  0.00  0.00    -0.459 OA
BRANCH  13  14
ATOM     14  C   UNL     1      -4.542   2.404  24.597  0.00  0.00    +0.245 A 
ATOM     15  C   UNL     1      -4.266   3.169  24.737  0.00  0.00    +0.156 A 
ATOM     16  N   UNL     1      -4.657   3.657  25.275  0.00  0.00    -0.236 NA
ATOM     17  C   UNL     1      -5.325   3.379  25.673  0.00  0.00    +0.120 A 
ATOM     18  C   UNL     1      -5.601   2.615  25.532  0.00  0.00    +0.123 A 
ATOM     19  N   UNL     1      -5.210   2.128  24.994  0.00  0.00    -0.207 NA
ENDBRANCH  13  14
ENDBRANCH  11  13
TORSDOF 4
ENDMDL
MODEL 2
REMARK VINA RESULT:      -7.3      1.141      2.040
REMARK  Name = 
REMARK  4 active torsions:
REMARK  status: ('A' for Active; 'I' for Inactive)
REMARK    1  A    between atoms: O_2  and  C_3
REMARK    2  A    between atoms: C_3  and  C_4
REMARK    3  A    between atoms: C_11  and  O_13
REMARK    4  A    between atoms: O_13  and  C_14
REMARK                            x       y       z     vdW  Elec       q    Type
REMARK                         _______ _______ _______ _____ _____    ______ ____
ROOT
ATOM      4  C   UNL     1      -1.911   0.392  24.275  0.00  0.00    +0.256 C 
ATOM      5  O   UNL     1      -1.749   1.037  23.786  0.00  0.00    -0.272 OA
ATOM      6  N   UNL     1      -2.672   0.283  24.576  0.00  0.00    -0.271 N 
ATOM      7  C   UNL     1      -2.774  -0.379  25.058  0.00  0.00    +0.126 C 
ATOM      8  C   UNL     1      -3.459  -0.636  25.439  0.00  0.00    +0.164 C 
ATOM      9  O   UNL     1      -4.211  -0.296  25.431  0.00  0.00    -0.348 OA
ATOM     10  C   UNL     1      -4.463   0.386  25.040  0.00  0.00    +0.187 C 
ATOM     11  C   UNL     1      -4.026   0.896  24.561  0.00  0.00    +0.217 C 
ATOM     12  C   UNL     1      -3.228   0.850  24.354  0.00  0.00    +0.140 C 
ENDROOT
BRANCH   4   3
ATOM      3  C   UNL     1      -1.312  -0.144  24.462  0.00  0.00    +0.227 C 
BRANCH   3   2
ATOM      1  C   UNL     1      -0.012  -0.671  24.194  0.00  0.00    +0.175 C 
ATOM      2  O   UNL     1      -0.565  -0.064  24.121  0.00  0.00    -0.342 OA
ENDBRANCH   3   2
ENDBRANCH   4   3
BRANCH  11  13
ATOM     13  O   UNL     1      -4.440   1.536  24.248  0.00  0.00    -0.459 OA
BRANCH  13  14
ATOM     14  C   UNL     1      -4.711   2.136  24.746  0.00  0.00    +0.245 A 
ATOM     15  C   UNL     1      -5.487   2.121  25.026  0.00  0.00    +0.156 A 
ATOM     16  N   UNL     1      -5.757   2.721  25.524  0.00  0.00    -0.236 NA
ATOM     17  C   UNL     1      -5.251   3.335  25.741  0.00  0.00    +0.120 A 
ATOM     18  C   UNL     1      -4.476   3.350  25.462  0.00  0.00    +0.123 A 
ATOM     19  N   UNL     1      -4.205   2.750  24.964  0.00  0.00    -0.207 NA
ENDBRANCH  13  14
ENDBRANCH  11  13
TORSDOF 4
ENDMDL
MODEL 3
REMARK VINA RESULT:      -7.2     17.526     18.746
REMARK  Name = 
REMARK  4 active torsions:
REMARK  status: ('A' for Active; 'I' for Inactive)
REMARK    1  A    between atoms: O_2  and  C_3
REMARK    2  A    between atoms: C_3  and  C_4
REMARK    3  A    between atoms: C_11  and  O_13
REMARK    4  A    between atoms: O_13  and  C_14
REMARK                            x       y       z     vdW  Elec       q    Type
REMARK                         _______ _______ _______ _____ _____    ______ ____
ROOT
ATOM      4  C   UNL     1      13.127   7.612  17.713  0.00  0.00    +0.256 C 
ATOM      5  O   UNL     1      12.367   7.488  17.415  0.00  0.00    -0.272 OA
ATOM      6  N   UNL     1      13.304   7.407  18.492  0.00  0.00    -0.271 N 
ATOM      7  C   UNL     1      14.079   7.554  18.734  0.00  0.00    +0.126 C 
ATOM      8  C   UNL     1      14.423   7.412  19.470  0.00  0.00    +0.164 C 
ATOM      9  O   UNL     1      14.078   7.089  20.146  0.00  0.00    -0.348 OA
ATOM     10  C   UNL     1      13.304   6.827  20.252  0.00  0.00    +0.187 C 
ATOM     11  C   UNL     1      12.682   6.824  19.710  0.00  0.00    +0.217 C 
ATOM     12  C   UNL     1      12.682   7.083  18.926  0.00  0.00    +0.140 C 
ENDROOT
BRANCH   4   3
ATOM      3  C   UNL     1      13.709   7.941  17.230  0.00  0.00    +0.227 C 
BRANCH   3   2
ATOM      1  C   UNL     1      14.076   8.559  15.995  0.00  0.00    +0.175 C 
ATOM      2  O   UNL     1      13.541   8.117  16.441  0.00  0.00    -0.342 OA
ENDBRANCH   3   2
ENDBRANCH   4   3
BRANCH  11  13
ATOM     13  O   UNL     1      11.966   6.524  19.988  0.00  0.00    -0.459 OA
BRANCH  13  14
ATOM     14  C   UNL     1      11.557   6.919  20.585  0.00  0.00    +0.245 A 
ATOM     15  C   UNL     1      11.570   6.628  21.358  0.00  0.00    +0.156 A 
ATOM     16  N   UNL     1      11.161   7.023  21.955  0.00  0.00    -0.236 NA
ATOM     17  C   UNL     1      10.739   7.710  21.780  0.00  0.00    +0.120 A 
ATOM     18  C   UNL     1      10.725   8.001  21.009  0.00  0.00    +0.123 A 
ATOM     19  N   UNL     1      11.134   7.606  20.412  0.00  0.00    -0.207 NA
ENDBRANCH  13  14
ENDBRANCH  11  13
TORSDOF 4
ENDMDL
MODEL 4
REMARK VINA RESULT:      -7.1      2.452      2.678
REMARK  Name = 
REMARK  4 active torsions:
REMARK  status: ('A' for Active; 'I' for Inactive)
REMARK    1  A    between atoms: O_2  and  C_3
REMARK    2  A    between atoms: C_3  and  C_4
REMARK    3  A    between atoms: C_11  and  O_13
REMARK    4  A    between atoms: O_13  and  C_14
REMARK                            x       y       z     vdW  Elec       q    Type
REMARK                         _______ _______ _______ _____ _____    ______ ____
ROOT
ATOM      4  C   UNL     1      -1.599   1.758  23.954  0.00  0.00    +0.256 C 
ATOM      5  O   UNL     1      -2.086   1.510  23.335  0.00  0.00    -0.272 OA
ATOM      6  N   UNL     1      -1.863   2.334  24.482  0.00  0.00    -0.271 N 
ATOM      7  C   UNL     1      -1.334   2.542  25.080  0.00  0.00    +0.126 C 
ATOM      8  C   UNL     1      -1.433   3.093  25.685  0.00  0.00    +0.164 C 
ATOM      9  O   UNL     1      -2.086   3.573  25.842  0.00  0.00    -0.348 OA
ATOM     10  C   UNL     1      -2.800   3.620  25.433  0.00  0.00    +0.187 C 
ATOM     11  C   UNL     1      -3.039   3.199  24.765  0.00  0.00    +0.217 C 
ATOM     12  C   UNL     1      -2.622   2.626  24.341  0.00  0.00    +0.140 C 
ENDROOT
BRANCH   4   3
ATOM      3  C   UNL     1      -0.847   1.429  24.044  0.00  0.00    +0.227 C 
BRANCH   3   2
ATOM      1  C   UNL     1       0.123   0.446  23.679  0.00  0.00    +0.175 C 
ATOM      2  O   UNL     1      -0.604   0.814  23.551  0.00  0.00    -0.342 OA
ENDBRANCH   3   2
ENDBRANCH   4   3
BRANCH  11  13
ATOM     13  O   UNL     1      -3.794   3.373  24.483  0.00  0.00    -0.459 OA
BRANCH  13  14
ATOM     14  C   UNL     1      -4.459   3.098  24.887  0.00  0.00    +0.245 A 
ATOM     15  C   UNL     1      -4.806   3.562  25.475  0.00  0.00    +0.156 A 
ATOM     16  N   UNL     1      -5.470   3.287  25.879  0.00  0.00    -0.236 NA
ATOM     17  C   UNL     1      -5.787   2.547  25.696  0.00  0.00    +0.120 A 
ATOM     18  C   UNL     1      -5.441   2.084  25.109  0.00  0.00    +0.123 A 
ATOM     19  N   UNL     1      -4.776   2.359  24.705  0.00  0.00    -0.207 NA
ENDBRANCH  13  14
ENDBRANCH  11  13
TORSDOF 4
ENDMDL
MODEL 5
REMARK VINA RESULT:      -7.1      1.589      2.325
REMARK  Name = 
REMARK  4 active torsions:
REMARK  status: ('A' for Active; 'I' for Inactive)
REMARK    1  A    between atoms: O_2  and  C_3
REMARK    2  A    between atoms: C_3  and  C_4
REMARK    3  A    between atoms: C_11  and  O_13
REMARK    4  A    between atoms: O_13  and  C_14
REMARK                            x       y       z     vdW  Elec       q    Type
REMARK                         _______ _______ _______ _____ _____    ______ ____
ROOT
ATOM      4  C   UNL     1      -3.780   0.313  24.069  0.00  0.00    +0.256 C 
ATOM      5  O   UNL     1      -3.126   0.346  23.567  0.00  0.00    -0.272 OA
ATOM      6  N   UNL     1      -4.076   1.005  24.407  0.00  0.00    -0.271 N 
ATOM      7  C   UNL     1      -4.731   0.911  24.900  0.00  0.00    +0.126 C 
ATOM      8  C   UNL     1      -5.149   1.489  25.315  0.00  0.00    +0.164 C 
ATOM      9  O   UNL     1      -5.016   2.303  25.339  0.00  0.00    -0.348 OA
ATOM     10  C   UNL     1      -4.432   2.740  24.954  0.00  0.00    +0.187 C 
ATOM     11  C   UNL     1      -3.836   2.472  24.450  0.00  0.00    +0.217 C 
ATOM     12  C   UNL     1      -3.678   1.699  24.206  0.00  0.00    +0.140 C 
ENDROOT
BRANCH   4   3
ATOM      3  C   UNL     1      -4.138  -0.412  24.233  0.00  0.00    +0.227 C 
BRANCH   3   2
ATOM      1  C   UNL     1      -4.225  -1.823  24.027  0.00  0.00    +0.175 C 
ATOM      2  O   UNL     1      -3.889  -1.094  23.840  0.00  0.00    -0.342 OA
ENDBRANCH   3   2
ENDBRANCH   4   3
BRANCH  11  13
ATOM     13  O   UNL     1      -3.333   3.052  24.151  0.00  0.00    -0.459 OA
BRANCH  13  14
ATOM     14  C   UNL     1      -2.742   3.373  24.629  0.00  0.00    +0.245 A 
ATOM     15  C   UNL     1      -2.903   4.035  25.095  0.00  0.00    +0.156 A 
ATOM     16  N   UNL     1      -2.313   4.356  25.574  0.00  0.00    -0.236 NA
ATOM     17  C   UNL     1      -1.562   4.015  25.586  0.00  0.00    +0.120 A 
ATOM     18  C   UNL     1      -1.401   3.353  25.122  0.00  0.00    +0.123 A 
ATOM     19  N   UNL     1      -1.991   3.032  24.643  0.00  0.00    -0.207 NA
ENDBRANCH  13  14
ENDBRANCH  11  13
TORSDOF 4
ENDMDL
MODEL 6
REMARK VINA RESULT:      -7.1      1.476      4.166
REMARK  Name = 
REMARK  4 active torsions:
REMARK  status: ('A' for Active; 'I' for Inactive)
REMARK    1  A    between atoms: O_2  and  C_3
REMARK    2  A    between atoms: C_3  and  C_4
REMARK    3  A    between atoms: C_11  and  O_13
REMARK    4  A    between atoms: O_13  and  C_14
REMARK                            x       y       z     vdW  Elec       q    Type
REMARK                         _______ _______ _______ _____ _____    ______ ____
ROOT
ATOM      4  C   UNL     1      -2.445   2.998  24.642  0.00  0.00    +0.256 C 
ATOM      5  O   UNL     1      -1.784   2.674  24.268  0.00  0.00    -0.272 OA
ATOM      6  N   UNL     1      -3.145   2.565  24.692  0.00  0.00    -0.271 N 
ATOM      7  C   UNL     1      -3.772   2.940  25.077  0.00  0.00    +0.126 C 
ATOM      8  C   UNL     1      -4.534   2.656  25.214  0.00  0.00    +0.164 C 
ATOM      9  O   UNL     1      -4.858   1.927  25.002  0.00  0.00    -0.348 OA
ATOM     10  C   UNL     1      -4.500   1.303  24.600  0.00  0.00    +0.187 C 
ATOM     11  C   UNL     1      -3.729   1.252  24.309  0.00  0.00    +0.217 C 
ATOM     12  C   UNL     1      -3.126   1.814  24.350  0.00  0.00    +0.140 C 
ENDROOT
BRANCH   4   3
ATOM      3  C   UNL     1      -2.405   3.756  24.966  0.00  0.00    +0.227 C 
BRANCH   3   2
ATOM      1  C   UNL     1      -1.659   4.939  25.258  0.00  0.00    +0.175 C 
ATOM      2  O   UNL     1      -1.702   4.187  24.923  0.00  0.00    -0.342 OA
ENDBRANCH   3   2
ENDBRANCH   4   3
BRANCH  11  13
ATOM     13  O   UNL     1      -3.536   0.547  23.928  0.00  0.00    -0.459 OA
BRANCH  13  14
ATOM     14  C   UNL     1      -3.509  -0.158  24.355  0.00  0.00    +0.245 A 
ATOM     15  C   UNL     1      -4.120  -0.709  24.280  0.00  0.00    +0.156 A 
ATOM     16  N   UNL     1      -4.094  -1.415  24.707  0.00  0.00    -0.236 NA
ATOM     17  C   UNL     1      -3.457  -1.570  25.208  0.00  0.00    +0.120 A 
ATOM     18  C   UNL     1      -2.847  -1.020  25.282  0.00  0.00    +0.123 A 
ATOM     19  N   UNL     1      -2.873  -0.315  24.855  0.00  0.00    -0.207 NA
ENDBRANCH  13  14
ENDBRANCH  11  13
TORSDOF 4
ENDMDL
MODEL 7
REMARK VINA RESULT:      -6.9      2.491      4.230
REMARK  Name = 
REMARK  4 active torsions:
REMARK  status: ('A' for Active; 'I' for Inactive)
REMARK    1  A    between atoms: O_2  and  C_3
REMARK    2  A    between atoms: C_3  and  C_4
REMARK    3  A    between atoms: C_11  and  O_13
REMARK    4  A    between atoms: O_13  and  C_14
REMARK                            x       y       z     vdW  Elec       q    Type
REMARK                         _______ _______ _______ _____ _____    ______ ____
ROOT
ATOM      4  C   UNL     1      -1.596   1.342  24.846  0.00  0.00    +0.256 C 
ATOM      5  O   UNL     1      -2.330   1.608  25.114  0.00  0.00    -0.272 OA
ATOM      6  N   UNL     1      -1.432   0.534  24.829  0.00  0.00    -0.271 N 
ATOM      7  C   UNL     1      -0.682   0.327  24.551  0.00  0.00    +0.126 C 
ATOM      8  C   UNL     1      -0.355  -0.426  24.468  0.00  0.00    +0.164 C 
ATOM      9  O   UNL     1      -0.696  -1.157  24.641  0.00  0.00    -0.348 OA
ATOM     10  C   UNL     1      -1.447  -1.316  24.940  0.00  0.00    +0.187 C 
ATOM     11  C   UNL     1      -2.045  -0.784  25.141  0.00  0.00    +0.217 C 
ATOM     12  C   UNL     1      -2.038   0.040  25.091  0.00  0.00    +0.140 C 
ENDROOT
BRANCH   4   3
ATOM      3  C   UNL     1      -1.027   1.885  24.595  0.00  0.00    +0.227 C 
BRANCH   3   2
ATOM      1  C   UNL     1      -0.614   3.236  24.385  0.00  0.00    +0.175 C 
ATOM      2  O   UNL     1      -1.191   2.693  24.615  0.00  0.00    -0.342 OA
ENDBRANCH   3   2
ENDBRANCH   4   3
BRANCH  11  13
ATOM     13  O   UNL     1      -2.741  -1.119  25.429  0.00  0.00    -0.459 OA
BRANCH  13  14
ATOM     14  C   UNL     1      -3.227  -1.556  24.925  0.00  0.00    +0.245 A 
ATOM     15  C   UNL     1      -3.179  -2.380  24.916  0.00  0.00    +0.156 A 
ATOM     16  N   UNL     1      -3.665  -2.816  24.412  0.00  0.00    -0.236 NA
ATOM     17  C   UNL     1      -4.200  -2.429  23.918  0.00  0.00    +0.120 A 
ATOM     18  C   UNL     1      -4.249  -1.606  23.927  0.00  0.00    +0.123 A 
ATOM     19  N   UNL     1      -3.763  -1.169  24.431  0.00  0.00    -0.207 NA
ENDBRANCH  13  14
ENDBRANCH  11  13
TORSDOF 4
ENDMDL
MODEL 8
REMARK VINA RESULT:      -6.8      1.657      4.048
REMARK  Name = 
REMARK  4 active torsions:
REMARK  status: ('A' for Active; 'I' for Inactive)
REMARK    1  A    between atoms: O_2  and  C_3
REMARK    2  A    between atoms: C_3  and  C_4
REMARK    3  A    between atoms: C_11  and  O_13
REMARK    4  A    between atoms: O_13  and  C_14
REMARK                            x       y       z     vdW  Elec       q    Type
REMARK                         _______ _______ _______ _____ _____    ______ ____
ROOT
ATOM      4  C   UNL     1      -4.058   1.100  24.998  0.00  0.00    +0.256 C 
ATOM      5  O   UNL     1      -3.628   1.717  25.339  0.00  0.00    -0.272 OA
ATOM      6  N   UNL     1      -3.689   0.380  24.835  0.00  0.00    -0.271 N 
ATOM      7  C   UNL     1      -4.169  -0.199  24.495  0.00  0.00    +0.126 C 
ATOM      8  C   UNL     1      -3.967  -0.966  24.270  0.00  0.00    +0.164 C 
ATOM      9  O   UNL     1      -3.236  -1.345  24.330  0.00  0.00    -0.348 OA
ATOM     10  C   UNL     1      -2.527  -1.048  24.629  0.00  0.00    +0.187 C 
ATOM     11  C   UNL     1      -2.372  -0.301  24.942  0.00  0.00    +0.217 C 
ATOM     12  C   UNL     1      -2.890   0.335  25.035  0.00  0.00    +0.140 C 
ENDROOT
BRANCH   4   3
ATOM      3  C   UNL     1      -4.858   1.204  24.821  0.00  0.00    +0.227 C 
BRANCH   3   2
ATOM      1  C   UNL     1      -6.050   1.971  24.994  0.00  0.00    +0.175 C 
ATOM      2  O   UNL     1      -5.227   1.923  24.986  0.00  0.00    -0.342 OA
ENDBRANCH   3   2
ENDBRANCH   4   3
BRANCH  11  13
ATOM     13  O   UNL     1      -1.599  -0.173  25.198  0.00  0.00    -0.459 OA
BRANCH  13  14
ATOM     14  C   UNL     1      -0.992  -0.087  24.646  0.00  0.00    +0.245 A 
ATOM     15  C   UNL     1      -0.539  -0.742  24.426  0.00  0.00    +0.156 A 
ATOM     16  N   UNL     1       0.069  -0.656  23.874  0.00  0.00    -0.236 NA
ATOM     17  C   UNL     1       0.223   0.084  23.542  0.00  0.00    +0.120 A 
ATOM     18  C   UNL     1      -0.229   0.737  23.762  0.00  0.00    +0.123 A 
ATOM     19  N   UNL     1      -0.837   0.652  24.314  0.00  0.00    -0.207 NA
ENDBRANCH  13  14
ENDBRANCH  11  13
TORSDOF 4
ENDMDL
MODEL 9
REMARK VINA RESULT:      -6.6     17.317     18.550
REMARK  Name = 
REMARK  4 active torsions:
REMARK  status: ('A' for Active; 'I' for Inactive)
REMARK    1  A    between atoms: O_2  and  C_3
REMARK    2  A    between atoms: C_3  and  C_4
REMARK    3  A    between atoms: C_11  and  O_13
REMARK    4  A    between atoms: O_13  and  C_14
REMARK                            x       y       z     vdW  Elec       q    Type
REMARK                         _______ _______ _______ _____ _____    ______ ____
ROOT
ATOM      4  C   UNL     1      14.510   6.784  20.404  0.00  0.00    +0.256 C 
ATOM      5  O   UNL     1      14.779   6.747  21.184  0.00  0.00    -0.272 OA
ATOM      6  N   UNL     1      13.704   6.868  20.249  0.00  0.00    -0.271 N 
ATOM      7  C   UNL     1      13.495   6.899  19.451  0.00  0.00    +0.126 C 
ATOM      8  C   UNL     1      12.744   6.980  19.120  0.00  0.00    +0.164 C 
ATOM      9  O   UNL     1      12.017   7.050  19.504  0.00  0.00    -0.348 OA
ATOM     10  C   UNL     1      11.862   7.057  20.314  0.00  0.00    +0.187 C 
ATOM     11  C   UNL     1      12.395   6.995  20.941  0.00  0.00    +0.217 C 
ATOM     12  C   UNL     1      13.216   6.911  20.912  0.00  0.00    +0.140 C 
ENDROOT
BRANCH   4   3
ATOM      3  C   UNL     1      15.049   6.736  19.780  0.00  0.00    +0.227 C 
BRANCH   3   2
ATOM      1  C   UNL     1      16.350   6.399  19.297  0.00  0.00    +0.175 C 
ATOM      2  O   UNL     1      15.833   6.527  19.927  0.00  0.00    -0.342 OA
ENDBRANCH   3   2
ENDBRANCH   4   3
BRANCH  11  13
ATOM     13  O   UNL     1      12.064   7.020  21.696  0.00  0.00    -0.459 OA
BRANCH  13  14
ATOM     14  C   UNL     1      11.654   7.691  21.944  0.00  0.00    +0.245 A 
ATOM     15  C   UNL     1      10.829   7.680  21.984  0.00  0.00    +0.156 A 
ATOM     16  N   UNL     1      10.418   8.351  22.232  0.00  0.00    -0.236 NA
ATOM     17  C   UNL     1      10.833   9.034  22.440  0.00  0.00    +0.120 A 
ATOM     18  C   UNL     1      11.656   9.045  22.401  0.00  0.00    +0.123 A 
ATOM     19  N   UNL     1      12.066   8.374  22.153  0.00  0.00    -0.207 NA
ENDBRANCH  13  14
ENDBRANCH  11  13
TORSDOF 4
ENDMDL
MODEL 10
REMARK VINA RESULT:      -6.4     18.643     19.621
REMARK  Name = 
REMARK  4 active torsions:
REMARK  status: ('A' for Active; 'I' for Inactive)
REMARK    1  A    between atoms: O_2  and  C_3
REMARK    2  A    between atoms: C_3  and  C_4
REMARK    3  A    between atoms: C_11  and  O_13
REMARK    4  A    between atoms: O_13  and  C_14
REMARK                            x       y       z     vdW  Elec       q    Type
REMARK                         _______ _______ _______ _____ _____    ______ ____
ROOT
ATOM      4  C   UNL     1      12.011   7.801  17.858  0.00  0.00    +0.256 C 
ATOM      5  O   UNL     1      12.140   7.066  17.505  0.00  0.00    -0.272 OA
ATOM      6  N   UNL     1      12.361   7.977  18.585  0.00  0.00    -0.271 N 
ATOM      7  C   UNL     1      12.197   8.726  18.889  0.00  0.00    +0.126 C 
ATOM      8  C   UNL     1      12.460   9.063  19.595  0.00  0.00    +0.164 C 
ATOM      9  O   UNL     1      12.952   8.734  20.170  0.00  0.00    -0.348 OA
ATOM     10  C   UNL     1      13.302   7.988  20.181  0.00  0.00    +0.187 C 
ATOM     11  C   UNL     1      13.247   7.384  19.621  0.00  0.00    +0.217 C 
ATOM     12  C   UNL     1      12.828   7.380  18.910  0.00  0.00    +0.140 C 
ENDROOT
BRANCH   4   3
ATOM      3  C   UNL     1      11.532   8.360  17.485  0.00  0.00    +0.227 C 
BRANCH   3   2
ATOM      1  C   UNL     1      10.675   8.721  16.401  0.00  0.00    +0.175 C 
ATOM      2  O   UNL     1      11.081   8.145  16.828  0.00  0.00    -0.342 OA
ENDBRANCH   3   2
ENDBRANCH   4   3
BRANCH  11  13
ATOM     13  O   UNL     1      13.667   6.696  19.794  0.00  0.00    -0.459 OA
BRANCH  13  14
ATOM     14  C   UNL     1      14.490   6.717  19.847  0.00  0.00    +0.245 A 
ATOM     15  C   UNL     1      14.856   6.707  20.586  0.00  0.00    +0.156 A 
ATOM     16  N   UNL     1      15.679   6.727  20.639  0.00  0.00    -0.236 NA
ATOM     17  C   UNL     1      16.136   6.758  19.953  0.00  0.00    +0.120 A 
ATOM     18  C   UNL     1      15.770   6.768  19.214  0.00  0.00    +0.123 A 
ATOM     19  N   UNL     1      14.947   6.747  19.161  0.00  0.00    -0.207 NA
ENDBRANCH  13  14
ENDBRANCH  11  13
TORSDOF 4
ENDMDL
