MODEL 1
REMARK VINA RESULT:     -11.3      0.000      0.000
REMARK  Name = 
REMARK  9 active torsions:
REMARK  status: ('A' for Active; 'I' for Inactive)
REMARK    1  A    between atoms: O_2  and  C_3
REMARK    2  A    between atoms: C_3  and  C_5
REMARK    3  A    between atoms: C_5  and  C_6
REMARK    4  A    between atoms: C_5  and  N_13
REMARK    5  A    between atoms: C_6  and  C_7
REMARK    6  A    between atoms: C_14  and  C_16
REMARK    7  A    between atoms: N_21  and  S_22
REMARK    8  A    between atoms: S_22  and  C_25
REMARK    9  A    between atoms: N_33  and  C_34
REMARK                            x       y       z     vdW  Elec       q    Type
REMARK                         _______ _______ _______ _____ _____    ______ ____
ROOT
ATOM     16  C   UNL     1      -4.173   1.498  24.794  0.00  0.00    +0.177 C 
ATOM     17  C   UNL     1      -4.435   2.262  24.967  0.00  0.00    +0.122 C 
ATOM     18  N   UNL     1      -5.094   2.371  25.452  0.00  0.00    -0.259 N 
ATOM     19  C   UNL     1      -5.490   1.718  25.762  0.00  0.00    +0.114 C 
ATOM     20  C   UNL     1      -5.228   0.955  25.589  0.00  0.00    +0.118 C 
ATOM     21  N   UNL     1      -4.569   0.846  25.104  0.00  0.00    -0.145 NA
ATOM     31  C   UNL     1      -5.356   3.134  25.625  0.00  0.00    +0.323 C 
ATOM     32  O   UNL     1      -6.015   3.243  26.109  0.00  0.00    -0.251 OA
ATOM     33  N   UNL     1      -4.959   3.787  25.315  0.00  0.00    -0.190 NA
ENDROOT
BRANCH  16  14
ATOM     13  N   UNL     1      -2.776   1.675  24.545  0.00  0.00    -0.194 NA
ATOM     14  C   UNL     1      -3.514   1.390  24.310  0.00  0.00    +0.260 C 
ATOM     15  O   UNL     1      -3.593   0.995  23.588  0.00  0.00    -0.272 OA
BRANCH  13   5
ATOM      5  C   UNL     1      -2.118   1.565  24.060  0.00  0.00    +0.198 C 
BRANCH   5   3
ATOM      3  C   UNL     1      -2.104   1.891  23.303  0.00  0.00    +0.337 C 
ATOM      4  O   UNL     1      -2.051   2.709  23.206  0.00  0.00    -0.248 OA
BRANCH   3   2
ATOM      1  C   UNL     1      -2.142   1.726  21.883  0.00  0.00    +0.256 C 
ATOM      2  O   UNL     1      -2.144   1.399  22.642  0.00  0.00    -0.443 OA
ENDBRANCH   3   2
ENDBRANCH   5   3
BRANCH   5   6
ATOM      6  C   UNL     1      -1.472   1.129  24.333  0.00  0.00    +0.061 C 
BRANCH   6   7
ATOM      7  C   UNL     1      -0.906   1.487  24.814  0.00  0.00    -0.001 A 
ATOM      8  C   UNL     1      -0.999   1.484  25.634  0.00  0.00    -0.001 A 
ATOM      9  C   UNL     1      -0.433   1.842  26.115  0.00  0.00    +0.020 A 
ATOM     10  C   UNL     1       0.226   2.205  25.776  0.00  0.00    +0.099 A 
ATOM     11  N   UNL     1       0.319   2.209  24.957  0.00  0.00    -0.243 NA
ATOM     12  C   UNL     1      -0.247   1.850  24.475  0.00  0.00    +0.095 A 
ENDBRANCH   6   7
ENDBRANCH   5   6
ENDBRANCH  13   5
ENDBRANCH  16  14
BRANCH  21  22
ATOM     22  S   UNL     1      -4.307   0.083  24.931  0.00  0.00    +0.064 S 
ATOM     23  O   UNL     1      -3.892   0.064  25.645  0.00  0.00    -0.153 OA
ATOM     24  O   UNL     1      -4.721   0.102  24.218  0.00  0.00    -0.153 OA
BRANCH  22  25
ATOM     25  C   UNL     1      -4.045  -0.680  24.758  0.00  0.00    +0.122 A 
ATOM     26  C   UNL     1      -4.257  -1.038  24.046  0.00  0.00    +0.020 A 
ATOM     27  C   UNL     1      -3.995  -1.801  23.873  0.00  0.00    +0.001 A 
ATOM     28  C   UNL     1      -3.520  -2.206  24.413  0.00  0.00    +0.000 A 
ATOM     29  C   UNL     1      -3.308  -1.849  25.125  0.00  0.00    +0.001 A 
ATOM     30  C   UNL     1      -3.570  -1.085  25.298  0.00  0.00    +0.020 A 
ENDBRANCH  22  25
ENDBRANCH  21  22
BRANCH  33  34
ATOM     34  C   UNL     1      -4.300   3.677  24.830  0.00  0.00    +0.097 C 
ATOM     35  C   UNL     1      -4.399   3.539  24.024  0.00  0.00    +0.023 C 
ATOM     36  C   UNL     1      -3.541   3.705  25.154  0.00  0.00    +0.023 C 
ENDBRANCH  33  34
TORSDOF 9
ENDMDL
MODEL 2
REMARK VINA RESULT:     -11.0      1.700      4.535
REMARK  Name = 
REMARK  9 active torsions:
REMARK  status: ('A' for Active; 'I' for Inactive)
REMARK    1  A    between atoms: O_2  and  C_3
REMARK    2  A    between atoms: C_3  and  C_5
REMARK    3  A    between atoms: C_5  and  C_6
REMARK    4  A    between atoms: C_5  and  N_13
REMARK    5  A    between atoms: C_6  and  C_7
REMARK    6  A    between atoms: C_14  and  C_16
REMARK    7  A    between atoms: N_21  and  S_22
REMARK    8  A    between atoms: S_22  and  C_25
REMARK    9  A    between atoms: N_33  and  C_34
REMARK                            x       y       z     vdW  Elec       q    Type
REMARK                         _______ _______ _______ _____ _____    ______ ____
ROOT
ATOM     16  C   UNL     1      -2.042  -0.123  24.855  0.00  0.00    +0.177 C 
ATOM     17  C   UNL     1      -2.416  -0.848  24.732  0.00  0.00    +0.122 C 
ATOM     18  N   UNL     1      -1.966  -1.525  24.592  0.00  0.00    -0.259 N 
ATOM     19  C   UNL     1      -1.144  -1.478  24.575  0.00  0.00    +0.114 C 
ATOM     20  C   UNL     1      -0.769  -0.753  24.698  0.00  0.00    +0.118 C 
ATOM     21  N   UNL     1      -1.219  -0.075  24.838  0.00  0.00    -0.145 NA
ATOM     31  C   UNL     1      -2.341  -2.251  24.469  0.00  0.00    +0.323 C 
ATOM     32  O   UNL     1      -1.891  -2.928  24.329  0.00  0.00    -0.251 OA
ATOM     33  N   UNL     1      -3.164  -2.298  24.486  0.00  0.00    -0.190 NA
ENDROOT
BRANCH  16  14
ATOM     13  N   UNL     1      -2.935   0.889  24.384  0.00  0.00    -0.194 NA
ATOM     14  C   UNL     1      -2.492   0.554  24.994  0.00  0.00    +0.260 C 
ATOM     15  O   UNL     1      -2.499   0.897  25.745  0.00  0.00    -0.272 OA
BRANCH  13   5
ATOM      5  C   UNL     1      -3.384   1.567  24.525  0.00  0.00    +0.198 C 
BRANCH   5   3
ATOM      3  C   UNL     1      -3.384   2.184  23.979  0.00  0.00    +0.337 C 
ATOM      4  O   UNL     1      -3.277   2.961  24.234  0.00  0.00    -0.248 OA
BRANCH   3   2
ATOM      1  C   UNL     1      -3.212   2.557  22.609  0.00  0.00    +0.256 C 
ATOM      2  O   UNL     1      -3.489   2.024  23.176  0.00  0.00    -0.443 OA
ENDBRANCH   3   2
ENDBRANCH   5   3
BRANCH   5   6
ATOM      6  C   UNL     1      -3.836   1.626  25.214  0.00  0.00    +0.061 C 
BRANCH   6   7
ATOM      7  C   UNL     1      -4.637   1.814  25.167  0.00  0.00    -0.001 A 
ATOM      8  C   UNL     1      -4.921   2.502  25.523  0.00  0.00    -0.001 A 
ATOM      9  C   UNL     1      -5.723   2.690  25.476  0.00  0.00    +0.020 A 
ATOM     10  C   UNL     1      -6.241   2.191  25.073  0.00  0.00    +0.099 A 
ATOM     11  N   UNL     1      -5.957   1.503  24.716  0.00  0.00    -0.243 NA
ATOM     12  C   UNL     1      -5.155   1.315  24.764  0.00  0.00    +0.095 A 
ENDBRANCH   6   7
ENDBRANCH   5   6
ENDBRANCH  13   5
ENDBRANCH  16  14
BRANCH  21  22
ATOM     22  S   UNL     1      -0.845   0.649  24.961  0.00  0.00    +0.064 S 
ATOM     23  O   UNL     1      -0.762   0.745  24.145  0.00  0.00    -0.153 OA
ATOM     24  O   UNL     1      -0.927   0.555  25.776  0.00  0.00    -0.153 OA
BRANCH  22  25
ATOM     25  C   UNL     1      -0.470   1.375  25.083  0.00  0.00    +0.122 A 
ATOM     26  C   UNL     1      -0.418   1.689  25.843  0.00  0.00    +0.020 A 
ATOM     27  C   UNL     1      -0.044   2.413  25.966  0.00  0.00    +0.001 A 
ATOM     28  C   UNL     1       0.279   2.824  25.327  0.00  0.00    +0.000 A 
ATOM     29  C   UNL     1       0.228   2.510  24.567  0.00  0.00    +0.001 A 
ATOM     30  C   UNL     1      -0.147   1.785  24.444  0.00  0.00    +0.020 A 
ENDBRANCH  22  25
ENDBRANCH  21  22
BRANCH  33  34
ATOM     34  C   UNL     1      -3.613  -1.620  24.625  0.00  0.00    +0.097 C 
ATOM     35  C   UNL     1      -3.745  -1.364  25.398  0.00  0.00    +0.023 C 
ATOM     36  C   UNL     1      -3.930  -1.197  23.991  0.00  0.00    +0.023 C 
ENDBRANCH  33  34
TORSDOF 9
ENDMDL
MODEL 3
REMARK VINA RESULT:     -10.8      1.374      3.483
REMARK  Name = 
REMARK  9 active torsions:
REMARK  status: ('A' for Active; 'I' for Inactive)
REMARK    1  A    between atoms: O_2  and  C_3
REMARK    2  A    between atoms: C_3  and  C_5
REMARK    3  A    between atoms: C_5  and  C_6
REMARK    4  A    between atoms: C_5  and  N_13
REMARK    5  A    between atoms: C_6  and  C_7
REMARK    6  A    between atoms: C_14  and  C_16
REMARK    7  A    between atoms: N_21  and  S_22
REMARK    8  A    between atoms: S_22  and  C_25
REMARK    9  A    between atoms: N_33  and  C_34
REMARK                            x       y       z     vdW  Elec       q    Type
REMARK                         _______ _______ _______ _____ _____    ______ ____
ROOT
ATOM     16  C   UNL     1      -1.860   1.494  24.965  0.00  0.00    +0.177 C 
ATOM     17  C   UNL     1      -1.326   2.091  25.165  0.00  0.00    +0.122 C 
ATOM     18  N   UNL     1      -0.663   1.915  25.623  0.00  0.00    -0.259 N 
ATOM     19  C   UNL     1      -0.533   1.143  25.881  0.00  0.00    +0.114 C 
ATOM     20  C   UNL     1      -1.066   0.546  25.681  0.00  0.00    +0.118 C 
ATOM     21  N   UNL     1      -1.730   0.722  25.223  0.00  0.00    -0.145 NA
ATOM     31  C   UNL     1      -0.129   2.513  25.822  0.00  0.00    +0.323 C 
ATOM     32  O   UNL     1       0.534   2.336  26.280  0.00  0.00    -0.251 OA
ATOM     33  N   UNL     1      -0.259   3.285  25.564  0.00  0.00    -0.190 NA
ENDROOT
BRANCH  16  14
ATOM     13  N   UNL     1      -3.123   2.145  24.815  0.00  0.00    -0.194 NA
ATOM     14  C   UNL     1      -2.523   1.670  24.507  0.00  0.00    +0.260 C 
ATOM     15  O   UNL     1      -2.585   1.372  23.740  0.00  0.00    -0.272 OA
BRANCH  13   5
ATOM      5  C   UNL     1      -3.786   2.321  24.356  0.00  0.00    +0.198 C 
BRANCH   5   3
ATOM      3  C   UNL     1      -3.751   2.924  23.795  0.00  0.00    +0.337 C 
ATOM      4  O   UNL     1      -3.687   3.710  24.037  0.00  0.00    -0.248 OA
BRANCH   3   2
ATOM      1  C   UNL     1      -3.846   3.346  22.432  0.00  0.00    +0.256 C 
ATOM      2  O   UNL     1      -3.782   2.741  22.991  0.00  0.00    -0.443 OA
ENDBRANCH   3   2
ENDBRANCH   5   3
BRANCH   5   6
ATOM      6  C   UNL     1      -4.484   1.892  24.458  0.00  0.00    +0.061 C 
BRANCH   6   7
ATOM      7  C   UNL     1      -5.035   2.131  25.023  0.00  0.00    -0.001 A 
ATOM      8  C   UNL     1      -5.786   1.789  25.039  0.00  0.00    -0.001 A 
ATOM      9  C   UNL     1      -6.337   2.028  25.603  0.00  0.00    +0.020 A 
ATOM     10  C   UNL     1      -6.138   2.610  26.153  0.00  0.00    +0.099 A 
ATOM     11  N   UNL     1      -5.388   2.953  26.138  0.00  0.00    -0.243 NA
ATOM     12  C   UNL     1      -4.836   2.713  25.573  0.00  0.00    +0.095 A 
ENDBRANCH   6   7
ENDBRANCH   5   6
ENDBRANCH  13   5
ENDBRANCH  16  14
BRANCH  21  22
ATOM     22  S   UNL     1      -2.263   0.125  25.024  0.00  0.00    +0.064 S 
ATOM     23  O   UNL     1      -2.622   0.199  25.763  0.00  0.00    -0.153 OA
ATOM     24  O   UNL     1      -1.905   0.051  24.285  0.00  0.00    -0.153 OA
BRANCH  22  25
ATOM     25  C   UNL     1      -2.797  -0.473  24.825  0.00  0.00    +0.122 A 
ATOM     26  C   UNL     1      -2.843  -0.741  24.047  0.00  0.00    +0.020 A 
ATOM     27  C   UNL     1      -3.376  -1.338  23.848  0.00  0.00    +0.001 A 
ATOM     28  C   UNL     1      -3.863  -1.667  24.428  0.00  0.00    +0.000 A 
ATOM     29  C   UNL     1      -3.816  -1.398  25.206  0.00  0.00    +0.001 A 
ATOM     30  C   UNL     1      -3.283  -0.801  25.405  0.00  0.00    +0.020 A 
ENDBRANCH  22  25
ENDBRANCH  21  22
BRANCH  33  34
ATOM     34  C   UNL     1      -0.923   3.460  25.106  0.00  0.00    +0.097 C 
ATOM     35  C   UNL     1      -1.611   3.737  25.465  0.00  0.00    +0.023 C 
ATOM     36  C   UNL     1      -0.897   3.358  24.287  0.00  0.00    +0.023 C 
ENDBRANCH  33  34
TORSDOF 9
ENDMDL
MODEL 4
REMARK VINA RESULT:     -10.2      1.800      4.623
REMARK  Name = 
REMARK  9 active torsions:
REMARK  status: ('A' for Active; 'I' for Inactive)
REMARK    1  A    between atoms: O_2  and  C_3
REMARK    2  A    between atoms: C_3  and  C_5
REMARK    3  A    between atoms: C_5  and  C_6
REMARK    4  A    between atoms: C_5  and  N_13
REMARK    5  A    between atoms: C_6  and  C_7
REMARK    6  A    between atoms: C_14  and  C_16
REMARK    7  A    between atoms: N_21  and  S_22
REMARK    8  A    between atoms: S_22  and  C_25
REMARK    9  A    between atoms: N_33  and  C_34
REMARK                            x       y       z     vdW  Elec       q    Type
REMARK                         _______ _______ _______ _____ _____    ______ ____
ROOT
ATOM     16  C   UNL     1      -1.610   1.561  24.985  0.00  0.00    +0.177 C 
ATOM     17  C   UNL     1      -1.638   0.748  25.129  0.00  0.00    +0.122 C 
ATOM     18  N   UNL     1      -1.165   0.418  25.719  0.00  0.00    -0.259 N 
ATOM     19  C   UNL     1      -0.666   0.899  26.165  0.00  0.00    +0.114 C 
ATOM     20  C   UNL     1      -0.639   1.711  26.022  0.00  0.00    +0.118 C 
ATOM     21  N   UNL     1      -1.111   2.042  25.432  0.00  0.00    -0.145 NA
ATOM     31  C   UNL     1      -1.192  -0.394  25.863  0.00  0.00    +0.323 C 
ATOM     32  O   UNL     1      -0.720  -0.724  26.453  0.00  0.00    -0.251 OA
ATOM     33  N   UNL     1      -1.692  -0.876  25.416  0.00  0.00    -0.190 NA
ENDROOT
BRANCH  16  14
ATOM     13  N   UNL     1      -2.903   1.903  24.481  0.00  0.00    -0.194 NA
ATOM     14  C   UNL     1      -2.083   1.891  24.395  0.00  0.00    +0.260 C 
ATOM     15  O   UNL     1      -1.734   2.210  23.718  0.00  0.00    -0.272 OA
BRANCH  13   5
ATOM      5  C   UNL     1      -3.375   2.233  23.890  0.00  0.00    +0.198 C 
BRANCH   5   3
ATOM      3  C   UNL     1      -3.289   1.988  23.108  0.00  0.00    +0.337 C 
ATOM      4  O   UNL     1      -3.467   1.210  22.897  0.00  0.00    -0.248 OA
BRANCH   3   2
ATOM      1  C   UNL     1      -2.962   2.282  21.748  0.00  0.00    +0.256 C 
ATOM      2  O   UNL     1      -3.025   2.520  22.536  0.00  0.00    -0.443 OA
ENDBRANCH   3   2
ENDBRANCH   5   3
BRANCH   5   6
ATOM      6  C   UNL     1      -3.933   2.810  24.083  0.00  0.00    +0.061 C 
BRANCH   6   7
ATOM      7  C   UNL     1      -4.573   2.620  24.566  0.00  0.00    -0.001 A 
ATOM      8  C   UNL     1      -4.690   3.024  25.276  0.00  0.00    -0.001 A 
ATOM      9  C   UNL     1      -5.330   2.833  25.759  0.00  0.00    +0.020 A 
ATOM     10  C   UNL     1      -5.854   2.237  25.534  0.00  0.00    +0.099 A 
ATOM     11  N   UNL     1      -5.738   1.832  24.825  0.00  0.00    -0.243 NA
ATOM     12  C   UNL     1      -5.097   2.023  24.341  0.00  0.00    +0.095 A 
ENDBRANCH   6   7
ENDBRANCH   5   6
ENDBRANCH  13   5
ENDBRANCH  16  14
BRANCH  21  22
ATOM     22  S   UNL     1      -1.084   2.854  25.289  0.00  0.00    +0.064 S 
ATOM     23  O   UNL     1      -1.606   2.981  25.915  0.00  0.00    -0.153 OA
ATOM     24  O   UNL     1      -0.562   2.727  24.663  0.00  0.00    -0.153 OA
BRANCH  22  25
ATOM     25  C   UNL     1      -1.056   3.666  25.146  0.00  0.00    +0.122 A 
ATOM     26  C   UNL     1      -1.552   4.175  25.564  0.00  0.00    +0.020 A 
ATOM     27  C   UNL     1      -1.525   4.987  25.422  0.00  0.00    +0.001 A 
ATOM     28  C   UNL     1      -1.001   5.290  24.860  0.00  0.00    +0.000 A 
ATOM     29  C   UNL     1      -0.505   4.781  24.442  0.00  0.00    +0.001 A 
ATOM     30  C   UNL     1      -0.533   3.968  24.585  0.00  0.00    +0.020 A 
ENDBRANCH  22  25
ENDBRANCH  21  22
BRANCH  33  34
ATOM     34  C   UNL     1      -2.164  -0.544  24.826  0.00  0.00    +0.097 C 
ATOM     35  C   UNL     1      -1.852  -0.407  24.075  0.00  0.00    +0.023 C 
ATOM     36  C   UNL     1      -2.951  -0.350  24.988  0.00  0.00    +0.023 C 
ENDBRANCH  33  34
TORSDOF 9
ENDMDL
MODEL 5
REMARK VINA RESULT:     -10.1      1.398      3.680
REMARK  Name = 
REMARK  9 active torsions:
REMARK  status: ('A' for Active; 'I' for Inactive)
REMARK    1  A    between atoms: O_2  and  C_3
REMARK    2  A    between atoms: C_3  and  C_5
REMARK    3  A    between atoms: C_5  and  C_6
REMARK    4  A    between atoms: C_5  and  N_13
REMARK    5  A    between atoms: C_6  and  C_7
REMARK    6  A    between atoms: C_14  and  C_16
REMARK    7  A    between atoms: N_21  and  S_22
REMARK    8  A    between atoms: S_22  and  C_25
REMARK    9  A    between atoms: N_33  and  C_34
REMARK                            x       y       z     vdW  Elec       q    Type
REMARK                         _______ _______ _______ _____ _____    ______ ____
ROOT
ATOM     16  C   UNL     1      -3.428   2.265  25.012  0.00  0.00    +0.177 C 
ATOM     17  C   UNL     1      -4.239   2.315  25.159  0.00  0.00    +0.122 C 
ATOM     18  N   UNL     1      -4.562   3.015  25.452  0.00  0.00    -0.259 N 
ATOM     19  C   UNL     1      -4.076   3.664  25.597  0.00  0.00    +0.114 C 
ATOM     20  C   UNL     1      -3.266   3.615  25.451  0.00  0.00    +0.118 C 
ATOM     21  N   UNL     1      -2.942   2.914  25.158  0.00  0.00    -0.145 NA
ATOM     31  C   UNL     1      -5.373   3.065  25.598  0.00  0.00    +0.323 C 
ATOM     32  O   UNL     1      -5.696   3.766  25.891  0.00  0.00    -0.251 OA
ATOM     33  N   UNL     1      -5.860   2.415  25.452  0.00  0.00    -0.190 NA
ENDROOT
BRANCH  16  14
ATOM     13  N   UNL     1      -3.056   0.899  25.204  0.00  0.00    -0.194 NA
ATOM     14  C   UNL     1      -3.105   1.565  24.720  0.00  0.00    +0.260 C 
ATOM     15  O   UNL     1      -2.832   1.530  23.942  0.00  0.00    -0.272 OA
BRANCH  13   5
ATOM      5  C   UNL     1      -2.732   0.199  24.911  0.00  0.00    +0.198 C 
BRANCH   5   3
ATOM      3  C   UNL     1      -2.102  -0.161  25.302  0.00  0.00    +0.337 C 
ATOM      4  O   UNL     1      -2.137  -0.283  26.117  0.00  0.00    -0.248 OA
BRANCH   3   2
ATOM      1  C   UNL     1      -0.786  -0.719  25.275  0.00  0.00    +0.256 C 
ATOM      2  O   UNL     1      -1.436  -0.400  24.878  0.00  0.00    -0.443 OA
ENDBRANCH   3   2
ENDBRANCH   5   3
BRANCH   5   6
ATOM      6  C   UNL     1      -3.040  -0.142  24.224  0.00  0.00    +0.061 C 
BRANCH   6   7
ATOM      7  C   UNL     1      -3.448  -0.857  24.265  0.00  0.00    -0.001 A 
ATOM      8  C   UNL     1      -3.788  -1.179  23.586  0.00  0.00    -0.001 A 
ATOM      9  C   UNL     1      -4.196  -1.894  23.627  0.00  0.00    +0.020 A 
ATOM     10  C   UNL     1      -4.264  -2.288  24.349  0.00  0.00    +0.099 A 
ATOM     11  N   UNL     1      -3.925  -1.967  25.029  0.00  0.00    -0.243 NA
ATOM     12  C   UNL     1      -3.517  -1.251  24.987  0.00  0.00    +0.095 A 
ENDBRANCH   6   7
ENDBRANCH   5   6
ENDBRANCH  13   5
ENDBRANCH  16  14
BRANCH  21  22
ATOM     22  S   UNL     1      -2.132   2.864  25.012  0.00  0.00    +0.064 S 
ATOM     23  O   UNL     1      -1.997   2.716  25.813  0.00  0.00    -0.153 OA
ATOM     24  O   UNL     1      -2.267   3.012  24.212  0.00  0.00    -0.153 OA
BRANCH  22  25
ATOM     25  C   UNL     1      -1.321   2.815  24.866  0.00  0.00    +0.122 A 
ATOM     26  C   UNL     1      -1.040   2.820  24.091  0.00  0.00    +0.020 A 
ATOM     27  C   UNL     1      -0.230   2.770  23.945  0.00  0.00    +0.001 A 
ATOM     28  C   UNL     1       0.300   2.715  24.576  0.00  0.00    +0.000 A 
ATOM     29  C   UNL     1       0.019   2.710  25.351  0.00  0.00    +0.001 A 
ATOM     30  C   UNL     1      -0.792   2.760  25.497  0.00  0.00    +0.020 A 
ENDBRANCH  22  25
ENDBRANCH  21  22
BRANCH  33  34
ATOM     34  C   UNL     1      -5.536   1.715  25.159  0.00  0.00    +0.097 C 
ATOM     35  C   UNL     1      -5.419   1.622  24.349  0.00  0.00    +0.023 C 
ATOM     36  C   UNL     1      -5.328   1.108  25.679  0.00  0.00    +0.023 C 
ENDBRANCH  33  34
TORSDOF 9
ENDMDL
MODEL 6
REMARK VINA RESULT:     -10.1      1.666      3.423
REMARK  Name = 
REMARK  9 active torsions:
REMARK  status: ('A' for Active; 'I' for Inactive)
REMARK    1  A    between atoms: O_2  and  C_3
REMARK    2  A    between atoms: C_3  and  C_5
REMARK    3  A    between atoms: C_5  and  C_6
REMARK    4  A    between atoms: C_5  and  N_13
REMARK    5  A    between atoms: C_6  and  C_7
REMARK    6  A    between atoms: C_14  and  C_16
REMARK    7  A    between atoms: N_21  and  S_22
REMARK    8  A    between atoms: S_22  and  C_25
REMARK    9  A    between atoms: N_33  and  C_34
REMARK                            x       y       z     vdW  Elec       q    Type
REMARK                         _______ _______ _______ _____ _____    ______ ____
ROOT
ATOM     16  C   UNL     1      -3.700   2.863  25.098  0.00  0.00    +0.177 C 
ATOM     17  C   UNL     1      -4.436   2.520  25.247  0.00  0.00    +0.122 C 
ATOM     18  N   UNL     1      -4.926   2.832  25.832  0.00  0.00    -0.259 N 
ATOM     19  C   UNL     1      -4.681   3.486  26.269  0.00  0.00    +0.114 C 
ATOM     20  C   UNL     1      -3.946   3.830  26.121  0.00  0.00    +0.118 C 
ATOM     21  N   UNL     1      -3.455   3.518  25.535  0.00  0.00    -0.145 NA
ATOM     31  C   UNL     1      -5.662   2.488  25.981  0.00  0.00    +0.323 C 
ATOM     32  O   UNL     1      -6.152   2.800  26.566  0.00  0.00    -0.251 OA
ATOM     33  N   UNL     1      -5.907   1.833  25.543  0.00  0.00    -0.190 NA
ENDROOT
BRANCH  16  14
ATOM     13  N   UNL     1      -2.891   1.796  24.601  0.00  0.00    -0.194 NA
ATOM     14  C   UNL     1      -3.211   2.551  24.513  0.00  0.00    +0.260 C 
ATOM     15  O   UNL     1      -3.041   2.995  23.837  0.00  0.00    -0.272 OA
BRANCH  13   5
ATOM      5  C   UNL     1      -2.401   1.484  24.014  0.00  0.00    +0.198 C 
BRANCH   5   3
ATOM      3  C   UNL     1      -2.657   1.462  23.231  0.00  0.00    +0.337 C 
ATOM      4  O   UNL     1      -3.298   0.987  23.019  0.00  0.00    -0.248 OA
BRANCH   3   2
ATOM      1  C   UNL     1      -2.471   1.829  21.862  0.00  0.00    +0.256 C 
ATOM      2  O   UNL     1      -2.273   1.916  22.659  0.00  0.00    -0.443 OA
ENDBRANCH   3   2
ENDBRANCH   5   3
BRANCH   5   6
ATOM      6  C   UNL     1      -1.653   1.195  24.212  0.00  0.00    +0.061 C 
BRANCH   6   7
ATOM      7  C   UNL     1      -1.583   0.490  24.634  0.00  0.00    -0.001 A 
ATOM      8  C   UNL     1      -1.293   0.497  25.406  0.00  0.00    -0.001 A 
ATOM      9  C   UNL     1      -1.223  -0.208  25.828  0.00  0.00    +0.020 A 
ATOM     10  C   UNL     1      -1.442  -0.922  25.477  0.00  0.00    +0.099 A 
ATOM     11  N   UNL     1      -1.731  -0.930  24.704  0.00  0.00    -0.243 NA
ATOM     12  C   UNL     1      -1.802  -0.224  24.283  0.00  0.00    +0.095 A 
ENDBRANCH   6   7
ENDBRANCH   5   6
ENDBRANCH  13   5
ENDBRANCH  16  14
BRANCH  21  22
ATOM     22  S   UNL     1      -2.720   3.861  25.387  0.00  0.00    +0.064 S 
ATOM     23  O   UNL     1      -2.402   3.456  26.032  0.00  0.00    -0.153 OA
ATOM     24  O   UNL     1      -3.038   4.266  24.743  0.00  0.00    -0.153 OA
BRANCH  22  25
ATOM     25  C   UNL     1      -1.984   4.205  25.240  0.00  0.00    +0.122 A 
ATOM     26  C   UNL     1      -1.305   3.885  25.577  0.00  0.00    +0.020 A 
ATOM     27  C   UNL     1      -0.569   4.228  25.430  0.00  0.00    +0.001 A 
ATOM     28  C   UNL     1      -0.514   4.893  24.944  0.00  0.00    +0.000 A 
ATOM     29  C   UNL     1      -1.194   5.214  24.606  0.00  0.00    +0.001 A 
ATOM     30  C   UNL     1      -1.930   4.870  24.754  0.00  0.00    +0.020 A 
ENDBRANCH  22  25
ENDBRANCH  21  22
BRANCH  33  34
ATOM     34  C   UNL     1      -5.416   1.521  24.958  0.00  0.00    +0.097 C 
ATOM     35  C   UNL     1      -5.401   1.862  24.207  0.00  0.00    +0.023 C 
ATOM     36  C   UNL     1      -4.940   0.867  25.124  0.00  0.00    +0.023 C 
ENDBRANCH  33  34
TORSDOF 9
ENDMDL
MODEL 7
REMARK VINA RESULT:     -10.0      1.876      2.556
REMARK  Name = 
REMARK  9 active torsions:
REMARK  status: ('A' for Active; 'I' for Inactive)
REMARK    1  A    between atoms: O_2  and  C_3
REMARK    2  A    between atoms: C_3  and  C_5
REMARK    3  A    between atoms: C_5  and  C_6
REMARK    4  A    between atoms: C_5  and  N_13
REMARK    5  A    between atoms: C_6  and  C_7
REMARK    6  A    between atoms: C_14  and  C_16
REMARK    7  A    between atoms: N_21  and  S_22
REMARK    8  A    between atoms: S_22  and  C_25
REMARK    9  A    between atoms: N_33  and  C_34
REMARK                            x       y       z     vdW  Elec       q    Type
REMARK                         _______ _______ _______ _____ _____    ______ ____
ROOT
ATOM     16  C   UNL     1      -3.220   1.410  24.842  0.00  0.00    +0.177 C 
ATOM     17  C   UNL     1      -3.933   1.827  24.842  0.00  0.00    +0.122 C 
ATOM     18  N   UNL     1      -4.648   1.420  24.889  0.00  0.00    -0.259 N 
ATOM     19  C   UNL     1      -4.653   0.597  24.935  0.00  0.00    +0.114 C 
ATOM     20  C   UNL     1      -3.942   0.180  24.936  0.00  0.00    +0.118 C 
ATOM     21  N   UNL     1      -3.225   0.587  24.889  0.00  0.00    -0.145 NA
ATOM     31  C   UNL     1      -5.361   1.837  24.888  0.00  0.00    +0.323 C 
ATOM     32  O   UNL     1      -6.077   1.430  24.935  0.00  0.00    -0.251 OA
ATOM     33  N   UNL     1      -5.356   2.661  24.842  0.00  0.00    -0.190 NA
ENDROOT
BRANCH  16  14
ATOM     13  N   UNL     1      -2.252   2.282  25.428  0.00  0.00    -0.194 NA
ATOM     14  C   UNL     1      -2.504   1.817  24.795  0.00  0.00    +0.260 C 
ATOM     15  O   UNL     1      -2.041   1.758  24.114  0.00  0.00    -0.272 OA
BRANCH  13   5
ATOM      5  C   UNL     1      -1.535   2.688  25.380  0.00  0.00    +0.198 C 
BRANCH   5   3
ATOM      3  C   UNL     1      -0.996   2.650  26.003  0.00  0.00    +0.337 C 
ATOM      4  O   UNL     1      -1.234   2.847  26.768  0.00  0.00    -0.248 OA
BRANCH   3   2
ATOM      1  C   UNL     1       0.297   2.289  26.493  0.00  0.00    +0.256 C 
ATOM      2  O   UNL     1      -0.218   2.416  25.860  0.00  0.00    -0.443 OA
ENDBRANCH   3   2
ENDBRANCH   5   3
BRANCH   5   6
ATOM      6  C   UNL     1      -1.358   3.134  24.708  0.00  0.00    +0.061 C 
BRANCH   6   7
ATOM      7  C   UNL     1      -1.245   3.948  24.771  0.00  0.00    -0.001 A 
ATOM      8  C   UNL     1      -0.648   4.318  24.338  0.00  0.00    -0.001 A 
ATOM      9  C   UNL     1      -0.535   5.132  24.401  0.00  0.00    +0.020 A 
ATOM     10  C   UNL     1      -1.019   5.578  24.898  0.00  0.00    +0.099 A 
ATOM     11  N   UNL     1      -1.617   5.210  25.332  0.00  0.00    -0.243 NA
ATOM     12  C   UNL     1      -1.730   4.394  25.268  0.00  0.00    +0.095 A 
ENDBRANCH   6   7
ENDBRANCH   5   6
ENDBRANCH  13   5
ENDBRANCH  16  14
BRANCH  21  22
ATOM     22  S   UNL     1      -2.513   0.169  24.889  0.00  0.00    +0.064 S 
ATOM     23  O   UNL     1      -2.487   0.215  24.065  0.00  0.00    -0.153 OA
ATOM     24  O   UNL     1      -2.540   0.124  25.712  0.00  0.00    -0.153 OA
BRANCH  22  25
ATOM     25  C   UNL     1      -1.801  -0.249  24.889  0.00  0.00    +0.122 A 
ATOM     26  C   UNL     1      -1.533  -0.606  25.581  0.00  0.00    +0.020 A 
ATOM     27  C   UNL     1      -0.822  -1.024  25.581  0.00  0.00    +0.001 A 
ATOM     28  C   UNL     1      -0.378  -1.083  24.887  0.00  0.00    +0.000 A 
ATOM     29  C   UNL     1      -0.647  -0.726  24.195  0.00  0.00    +0.001 A 
ATOM     30  C   UNL     1      -1.359  -0.308  24.195  0.00  0.00    +0.020 A 
ENDBRANCH  22  25
ENDBRANCH  21  22
BRANCH  33  34
ATOM     34  C   UNL     1      -4.640   3.067  24.795  0.00  0.00    +0.097 C 
ATOM     35  C   UNL     1      -4.270   3.171  24.065  0.00  0.00    +0.023 C 
ATOM     36  C   UNL     1      -4.292   3.370  25.480  0.00  0.00    +0.023 C 
ENDBRANCH  33  34
TORSDOF 9
ENDMDL
MODEL 8
REMARK VINA RESULT:      -9.9      1.771      4.945
REMARK  Name = 
REMARK  9 active torsions:
REMARK  status: ('A' for Active; 'I' for Inactive)
REMARK    1  A    between atoms: O_2  and  C_3
REMARK    2  A    between atoms: C_3  and  C_5
REMARK    3  A    between atoms: C_5  and  C_6
REMARK    4  A    between atoms: C_5  and  N_13
REMARK    5  A    between atoms: C_6  and  C_7
REMARK    6  A    between atoms: C_14  and  C_16
REMARK    7  A    between atoms: N_21  and  S_22
REMARK    8  A    between atoms: S_22  and  C_25
REMARK    9  A    between atoms: N_33  and  C_34
REMARK                            x       y       z     vdW  Elec       q    Type
REMARK                         _______ _______ _______ _____ _____    ______ ____
ROOT
ATOM     16  C   UNL     1      -0.898   1.224  24.526  0.00  0.00    +0.177 C 
ATOM     17  C   UNL     1      -0.395   0.665  24.184  0.00  0.00    +0.122 C 
ATOM     18  N   UNL     1       0.334   0.901  23.877  0.00  0.00    -0.259 N 
ATOM     19  C   UNL     1       0.559   1.693  23.910  0.00  0.00    +0.114 C 
ATOM     20  C   UNL     1       0.056   2.251  24.251  0.00  0.00    +0.118 C 
ATOM     21  N   UNL     1      -0.673   2.015  24.559  0.00  0.00    -0.145 NA
ATOM     31  C   UNL     1       0.837   0.342  23.535  0.00  0.00    +0.323 C 
ATOM     32  O   UNL     1       1.565   0.578  23.228  0.00  0.00    -0.251 OA
ATOM     33  N   UNL     1       0.611  -0.451  23.502  0.00  0.00    -0.190 NA
ENDROOT
BRANCH  16  14
ATOM     13  N   UNL     1      -2.227   0.737  24.326  0.00  0.00    -0.194 NA
ATOM     14  C   UNL     1      -1.626   0.988  24.833  0.00  0.00    +0.260 C 
ATOM     15  O   UNL     1      -1.754   1.004  25.649  0.00  0.00    -0.272 OA
BRANCH  13   5
ATOM      5  C   UNL     1      -2.955   0.501  24.635  0.00  0.00    +0.198 C 
BRANCH   5   3
ATOM      3  C   UNL     1      -3.650   0.858  24.373  0.00  0.00    +0.337 C 
ATOM      4  O   UNL     1      -3.778   0.968  23.565  0.00  0.00    -0.248 OA
BRANCH   3   2
ATOM      1  C   UNL     1      -4.872   1.542  24.663  0.00  0.00    +0.256 C 
ATOM      2  O   UNL     1      -4.218   1.106  24.917  0.00  0.00    -0.443 OA
ENDBRANCH   3   2
ENDBRANCH   5   3
BRANCH   5   6
ATOM      6  C   UNL     1      -2.987  -0.093  25.208  0.00  0.00    +0.061 C 
BRANCH   6   7
ATOM      7  C   UNL     1      -3.266  -0.843  25.009  0.00  0.00    -0.001 A 
ATOM      8  C   UNL     1      -3.251  -1.451  25.567  0.00  0.00    -0.001 A 
ATOM      9  C   UNL     1      -3.530  -2.200  25.367  0.00  0.00    +0.020 A 
ATOM     10  C   UNL     1      -3.824  -2.343  24.610  0.00  0.00    +0.099 A 
ATOM     11  N   UNL     1      -3.840  -1.736  24.052  0.00  0.00    -0.243 NA
ATOM     12  C   UNL     1      -3.560  -0.985  24.252  0.00  0.00    +0.095 A 
ENDBRANCH   6   7
ENDBRANCH   5   6
ENDBRANCH  13   5
ENDBRANCH  16  14
BRANCH  21  22
ATOM     22  S   UNL     1      -1.175   2.574  24.900  0.00  0.00    +0.064 S 
ATOM     23  O   UNL     1      -1.452   2.782  24.151  0.00  0.00    -0.153 OA
ATOM     24  O   UNL     1      -0.899   2.366  25.649  0.00  0.00    -0.153 OA
BRANCH  22  25
ATOM     25  C   UNL     1      -1.678   3.133  25.241  0.00  0.00    +0.122 A 
ATOM     26  C   UNL     1      -1.768   3.162  26.060  0.00  0.00    +0.020 A 
ATOM     27  C   UNL     1      -2.270   3.720  26.401  0.00  0.00    +0.001 A 
ATOM     28  C   UNL     1      -2.684   4.250  25.921  0.00  0.00    +0.000 A 
ATOM     29  C   UNL     1      -2.594   4.221  25.103  0.00  0.00    +0.001 A 
ATOM     30  C   UNL     1      -2.091   3.662  24.762  0.00  0.00    +0.020 A 
ENDBRANCH  22  25
ENDBRANCH  21  22
BRANCH  33  34
ATOM     34  C   UNL     1      -0.118  -0.685  23.810  0.00  0.00    +0.097 C 
ATOM     35  C   UNL     1      -0.185  -0.881  24.607  0.00  0.00    +0.023 C 
ATOM     36  C   UNL     1      -0.780  -0.723  23.318  0.00  0.00    +0.023 C 
ENDBRANCH  33  34
TORSDOF 9
ENDMDL
