MODEL 1
REMARK VINA RESULT:     -11.6      0.000      0.000
REMARK  Name = 
REMARK  4 active torsions:
REMARK  status: ('A' for Active; 'I' for Inactive)
REMARK    1  A    between atoms: C_4  and  C_13
REMARK    2  A    between atoms: N_5  and  C_6
REMARK    3  A    between atoms: C_6  and  C_7
REMARK    4  A    between atoms: C_15  and  C_18
REMARK                            x       y       z     vdW  Elec       q    Type
REMARK                         _______ _______ _______ _____ _____    ______ ____
ROOT
ATOM      1  O   UNL     1      -5.741   3.375  25.721  0.00  0.00    -0.222 OA
ATOM      2  C   UNL     1      -5.098   2.953  25.422  0.00  0.00    +0.170 C 
ATOM      3  C   UNL     1      -5.121   2.187  25.119  0.00  0.00    +0.060 C 
ATOM      4  C   UNL     1      -4.357   1.983  24.883  0.00  0.00    +0.141 C 
ATOM      5  N   UNL     1      -3.862   2.624  25.041  0.00  0.00    -0.258 NA
ATOM     12  C   UNL     1      -4.321   3.224  25.375  0.00  0.00    +0.106 C 
ENDROOT
BRANCH   4  13
ATOM     13  C   UNL     1      -4.128   1.265  24.549  0.00  0.00    +0.251 A 
ATOM     14  N   UNL     1      -4.152   0.528  24.919  0.00  0.00    -0.190 NA
ATOM     15  C   UNL     1      -3.874  -0.035  24.383  0.00  0.00    +0.203 A 
ATOM     16  N   UNL     1      -3.677   0.354  23.683  0.00  0.00    -0.056 NA
ATOM     17  O   UNL     1      -3.834   1.158  23.785  0.00  0.00    -0.336 OA
BRANCH  15  18
ATOM     18  C   UNL     1      -3.804  -0.845  24.524  0.00  0.00    +0.039 A 
ATOM     19  C   UNL     1      -4.097  -1.386  23.974  0.00  0.00    +0.005 A 
ATOM     20  C   UNL     1      -4.027  -2.196  24.115  0.00  0.00    +0.030 A 
ATOM     21  C   UNL     1      -3.664  -2.465  24.806  0.00  0.00    +0.140 A 
ATOM     22  F   UNL     1      -3.594  -3.274  24.946  0.00  0.00    -0.204 F 
ATOM     23  C   UNL     1      -3.371  -1.924  25.355  0.00  0.00    +0.030 A 
ATOM     24  C   UNL     1      -3.441  -1.114  25.214  0.00  0.00    +0.005 A 
ENDBRANCH  15  18
ENDBRANCH   4  13
BRANCH   5   6
ATOM      6  C   UNL     1      -3.052   2.660  24.893  0.00  0.00    +0.139 C 
BRANCH   6   7
ATOM      7  C   UNL     1      -2.614   3.311  25.146  0.00  0.00    +0.155 A 
ATOM      8  N   UNL     1      -2.198   3.369  25.856  0.00  0.00    -0.226 NA
ATOM      9  C   UNL     1      -1.842   4.112  25.884  0.00  0.00    +0.121 A 
ATOM     10  C   UNL     1      -2.038   4.515  25.191  0.00  0.00    +0.121 A 
ATOM     11  N   UNL     1      -2.516   4.019  24.736  0.00  0.00    -0.226 NA
ENDBRANCH   6   7
ENDBRANCH   5   6
TORSDOF 4
ENDMDL
MODEL 2
REMARK VINA RESULT:     -11.2      1.214      1.381
REMARK  Name = 
REMARK  4 active torsions:
REMARK  status: ('A' for Active; 'I' for Inactive)
REMARK    1  A    between atoms: C_4  and  C_13
REMARK    2  A    between atoms: N_5  and  C_6
REMARK    3  A    between atoms: C_6  and  C_7
REMARK    4  A    between atoms: C_15  and  C_18
REMARK                            x       y       z     vdW  Elec       q    Type
REMARK                         _______ _______ _______ _____ _____    ______ ____
ROOT
ATOM      1  O   UNL     1      -3.978   3.718  23.491  0.00  0.00    -0.222 OA
ATOM      2  C   UNL     1      -3.713   3.055  23.905  0.00  0.00    +0.170 C 
ATOM      3  C   UNL     1      -4.145   2.365  24.040  0.00  0.00    +0.060 C 
ATOM      4  C   UNL     1      -3.669   1.850  24.476  0.00  0.00    +0.141 C 
ATOM      5  N   UNL     1      -2.945   2.222  24.609  0.00  0.00    -0.258 NA
ATOM     12  C   UNL     1      -2.973   2.967  24.256  0.00  0.00    +0.106 C 
ENDROOT
BRANCH   4  13
ATOM     13  C   UNL     1      -3.881   1.095  24.732  0.00  0.00    +0.251 A 
ATOM     14  N   UNL     1      -3.662   0.383  24.378  0.00  0.00    -0.190 NA
ATOM     15  C   UNL     1      -3.995  -0.233  24.816  0.00  0.00    +0.203 A 
ATOM     16  N   UNL     1      -4.421   0.099  25.439  0.00  0.00    -0.056 NA
ATOM     17  O   UNL     1      -4.351   0.920  25.388  0.00  0.00    -0.336 OA
BRANCH  15  18
ATOM     18  C   UNL     1      -3.917  -1.039  24.657  0.00  0.00    +0.039 A 
ATOM     19  C   UNL     1      -4.271  -1.363  23.986  0.00  0.00    +0.005 A 
ATOM     20  C   UNL     1      -4.193  -2.168  23.828  0.00  0.00    +0.030 A 
ATOM     21  C   UNL     1      -3.760  -2.650  24.339  0.00  0.00    +0.140 A 
ATOM     22  F   UNL     1      -3.681  -3.455  24.180  0.00  0.00    -0.204 F 
ATOM     23  C   UNL     1      -3.405  -2.325  25.009  0.00  0.00    +0.030 A 
ATOM     24  C   UNL     1      -3.484  -1.519  25.168  0.00  0.00    +0.005 A 
ENDBRANCH  15  18
ENDBRANCH   4  13
BRANCH   5   6
ATOM      6  C   UNL     1      -2.306   1.905  25.022  0.00  0.00    +0.139 C 
BRANCH   6   7
ATOM      7  C   UNL     1      -1.610   2.340  25.103  0.00  0.00    +0.155 A 
ATOM      8  N   UNL     1      -1.433   2.860  25.718  0.00  0.00    -0.226 NA
ATOM      9  C   UNL     1      -0.682   3.173  25.579  0.00  0.00    +0.121 A 
ATOM     10  C   UNL     1      -0.395   2.846  24.877  0.00  0.00    +0.121 A 
ATOM     11  N   UNL     1      -0.969   2.332  24.584  0.00  0.00    -0.226 NA
ENDBRANCH   6   7
ENDBRANCH   5   6
TORSDOF 4
ENDMDL
MODEL 3
REMARK VINA RESULT:     -10.7      1.957      2.745
REMARK  Name = 
REMARK  4 active torsions:
REMARK  status: ('A' for Active; 'I' for Inactive)
REMARK    1  A    between atoms: C_4  and  C_13
REMARK    2  A    between atoms: N_5  and  C_6
REMARK    3  A    between atoms: C_6  and  C_7
REMARK    4  A    between atoms: C_15  and  C_18
REMARK                            x       y       z     vdW  Elec       q    Type
REMARK                         _______ _______ _______ _____ _____    ______ ____
ROOT
ATOM      1  O   UNL     1       0.717   1.875  24.185  0.00  0.00    -0.222 OA
ATOM      2  C   UNL     1      -0.031   1.674  24.468  0.00  0.00    +0.170 C 
ATOM      3  C   UNL     1      -0.318   0.908  24.574  0.00  0.00    +0.060 C 
ATOM      4  C   UNL     1      -1.088   0.964  24.866  0.00  0.00    +0.141 C 
ATOM      5  N   UNL     1      -1.275   1.764  24.940  0.00  0.00    -0.258 NA
ATOM     12  C   UNL     1      -0.621   2.202  24.694  0.00  0.00    +0.106 C 
ENDROOT
BRANCH   4  13
ATOM     13  C   UNL     1      -1.583   0.331  25.052  0.00  0.00    +0.251 A 
ATOM     14  N   UNL     1      -2.078  -0.069  24.526  0.00  0.00    -0.190 NA
ATOM     15  C   UNL     1      -2.471  -0.661  24.946  0.00  0.00    +0.203 A 
ATOM     16  N   UNL     1      -2.219  -0.628  25.731  0.00  0.00    -0.056 NA
ATOM     17  O   UNL     1      -1.670  -0.015  25.797  0.00  0.00    -0.336 OA
BRANCH  15  18
ATOM     18  C   UNL     1      -3.020  -1.193  24.635  0.00  0.00    +0.039 A 
ATOM     19  C   UNL     1      -2.873  -2.004  24.670  0.00  0.00    +0.005 A 
ATOM     20  C   UNL     1      -3.422  -2.536  24.359  0.00  0.00    +0.030 A 
ATOM     21  C   UNL     1      -4.117  -2.257  24.013  0.00  0.00    +0.140 A 
ATOM     22  F   UNL     1      -4.666  -2.788  23.702  0.00  0.00    -0.204 F 
ATOM     23  C   UNL     1      -4.264  -1.446  23.978  0.00  0.00    +0.030 A 
ATOM     24  C   UNL     1      -3.715  -0.913  24.289  0.00  0.00    +0.005 A 
ENDBRANCH  15  18
ENDBRANCH   4  13
BRANCH   5   6
ATOM      6  C   UNL     1      -1.991   2.071  25.213  0.00  0.00    +0.139 C 
BRANCH   6   7
ATOM      7  C   UNL     1      -2.103   2.887  25.246  0.00  0.00    +0.155 A 
ATOM      8  N   UNL     1      -1.886   3.382  25.870  0.00  0.00    -0.226 NA
ATOM      9  C   UNL     1      -2.100   4.153  25.672  0.00  0.00    +0.121 A 
ATOM     10  C   UNL     1      -2.450   4.136  24.925  0.00  0.00    +0.121 A 
ATOM     11  N   UNL     1      -2.451   3.354  24.662  0.00  0.00    -0.226 NA
ENDBRANCH   6   7
ENDBRANCH   5   6
TORSDOF 4
ENDMDL
MODEL 4
REMARK VINA RESULT:     -10.6      2.311      4.494
REMARK  Name = 
REMARK  4 active torsions:
REMARK  status: ('A' for Active; 'I' for Inactive)
REMARK    1  A    between atoms: C_4  and  C_13
REMARK    2  A    between atoms: N_5  and  C_6
REMARK    3  A    between atoms: C_6  and  C_7
REMARK    4  A    between atoms: C_15  and  C_18
REMARK                            x       y       z     vdW  Elec       q    Type
REMARK                         _______ _______ _______ _____ _____    ______ ____
ROOT
ATOM      1  O   UNL     1      -3.964  -2.700  24.239  0.00  0.00    -0.222 OA
ATOM      2  C   UNL     1      -3.677  -1.932  24.338  0.00  0.00    +0.170 C 
ATOM      3  C   UNL     1      -4.082  -1.237  24.154  0.00  0.00    +0.060 C 
ATOM      4  C   UNL     1      -3.590  -0.601  24.340  0.00  0.00    +0.141 C 
ATOM      5  N   UNL     1      -2.883  -0.903  24.639  0.00  0.00    -0.258 NA
ATOM     12  C   UNL     1      -2.938  -1.727  24.637  0.00  0.00    +0.106 C 
ENDROOT
BRANCH   4  13
ATOM     13  C   UNL     1      -3.774   0.197  24.245  0.00  0.00    +0.251 A 
ATOM     14  N   UNL     1      -4.205   0.663  24.773  0.00  0.00    -0.190 NA
ATOM     15  C   UNL     1      -4.257   1.424  24.458  0.00  0.00    +0.203 A 
ATOM     16  N   UNL     1      -3.859   1.429  23.736  0.00  0.00    -0.056 NA
ATOM     17  O   UNL     1      -3.560   0.671  23.604  0.00  0.00    -0.336 OA
BRANCH  15  18
ATOM     18  C   UNL     1      -4.639   2.068  24.805  0.00  0.00    +0.039 A 
ATOM     19  C   UNL     1      -4.229   2.771  24.936  0.00  0.00    +0.005 A 
ATOM     20  C   UNL     1      -4.611   3.413  25.283  0.00  0.00    +0.030 A 
ATOM     21  C   UNL     1      -5.405   3.354  25.500  0.00  0.00    +0.140 A 
ATOM     22  F   UNL     1      -5.788   3.996  25.847  0.00  0.00    -0.204 F 
ATOM     23  C   UNL     1      -5.816   2.650  25.369  0.00  0.00    +0.030 A 
ATOM     24  C   UNL     1      -5.433   2.007  25.022  0.00  0.00    +0.005 A 
ENDBRANCH  15  18
ENDBRANCH   4  13
BRANCH   5   6
ATOM      6  C   UNL     1      -2.236  -0.461  24.895  0.00  0.00    +0.139 C 
BRANCH   6   7
ATOM      7  C   UNL     1      -1.494  -0.814  24.957  0.00  0.00    +0.155 A 
ATOM      8  N   UNL     1      -0.917  -0.837  24.367  0.00  0.00    -0.226 NA
ATOM      9  C   UNL     1      -0.263  -1.243  24.665  0.00  0.00    +0.121 A 
ATOM     10  C   UNL     1      -0.436  -1.471  25.439  0.00  0.00    +0.121 A 
ATOM     11  N   UNL     1      -1.196  -1.206  25.619  0.00  0.00    -0.226 NA
ENDBRANCH   6   7
ENDBRANCH   5   6
TORSDOF 4
ENDMDL
MODEL 5
REMARK VINA RESULT:     -10.5      2.693      4.202
REMARK  Name = 
REMARK  4 active torsions:
REMARK  status: ('A' for Active; 'I' for Inactive)
REMARK    1  A    between atoms: C_4  and  C_13
REMARK    2  A    between atoms: N_5  and  C_6
REMARK    3  A    between atoms: C_6  and  C_7
REMARK    4  A    between atoms: C_15  and  C_18
REMARK                            x       y       z     vdW  Elec       q    Type
REMARK                         _______ _______ _______ _____ _____    ______ ____
ROOT
ATOM      1  O   UNL     1       0.442   2.598  26.276  0.00  0.00    -0.222 OA
ATOM      2  C   UNL     1      -0.151   2.381  25.744  0.00  0.00    +0.170 C 
ATOM      3  C   UNL     1      -0.896   2.729  25.681  0.00  0.00    +0.060 C 
ATOM      4  C   UNL     1      -1.308   2.342  25.081  0.00  0.00    +0.141 C 
ATOM      5  N   UNL     1      -0.817   1.754  24.773  0.00  0.00    -0.258 NA
ATOM     12  C   UNL     1      -0.101   1.779  25.184  0.00  0.00    +0.106 C 
ENDROOT
BRANCH   4  13
ATOM     13  C   UNL     1      -2.075   2.511  24.832  0.00  0.00    +0.251 A 
ATOM     14  N   UNL     1      -2.770   2.230  25.176  0.00  0.00    -0.190 NA
ATOM     15  C   UNL     1      -3.408   2.538  24.752  0.00  0.00    +0.203 A 
ATOM     16  N   UNL     1      -3.107   3.008  24.145  0.00  0.00    -0.056 NA
ATOM     17  O   UNL     1      -2.283   2.992  24.194  0.00  0.00    -0.336 OA
BRANCH  15  18
ATOM     18  C   UNL     1      -4.206   2.398  24.907  0.00  0.00    +0.039 A 
ATOM     19  C   UNL     1      -4.662   2.978  25.277  0.00  0.00    +0.005 A 
ATOM     20  C   UNL     1      -5.460   2.839  25.432  0.00  0.00    +0.030 A 
ATOM     21  C   UNL     1      -5.803   2.120  25.217  0.00  0.00    +0.140 A 
ATOM     22  F   UNL     1      -6.600   1.980  25.372  0.00  0.00    -0.204 F 
ATOM     23  C   UNL     1      -5.347   1.540  24.847  0.00  0.00    +0.030 A 
ATOM     24  C   UNL     1      -4.549   1.679  24.692  0.00  0.00    +0.005 A 
ENDBRANCH  15  18
ENDBRANCH   4  13
BRANCH   5   6
ATOM      6  C   UNL     1      -1.007   1.234  24.162  0.00  0.00    +0.139 C 
BRANCH   6   7
ATOM      7  C   UNL     1      -0.547   0.562  24.035  0.00  0.00    +0.155 A 
ATOM      8  N   UNL     1       0.094   0.503  23.518  0.00  0.00    -0.226 NA
ATOM      9  C   UNL     1       0.390  -0.265  23.565  0.00  0.00    +0.121 A 
ATOM     10  C   UNL     1      -0.067  -0.682  24.111  0.00  0.00    +0.121 A 
ATOM     11  N   UNL     1      -0.646  -0.171  24.401  0.00  0.00    -0.226 NA
ENDBRANCH   6   7
ENDBRANCH   5   6
TORSDOF 4
ENDMDL
MODEL 6
REMARK VINA RESULT:     -10.5      2.941      5.480
REMARK  Name = 
REMARK  4 active torsions:
REMARK  status: ('A' for Active; 'I' for Inactive)
REMARK    1  A    between atoms: C_4  and  C_13
REMARK    2  A    between atoms: N_5  and  C_6
REMARK    3  A    between atoms: C_6  and  C_7
REMARK    4  A    between atoms: C_15  and  C_18
REMARK                            x       y       z     vdW  Elec       q    Type
REMARK                         _______ _______ _______ _____ _____    ______ ____
ROOT
ATOM      1  O   UNL     1      -0.006  -1.000  23.810  0.00  0.00    -0.222 OA
ATOM      2  C   UNL     1      -0.450  -0.473  24.264  0.00  0.00    +0.170 C 
ATOM      3  C   UNL     1      -0.209   0.276  24.510  0.00  0.00    +0.060 C 
ATOM      4  C   UNL     1      -0.823   0.609  24.951  0.00  0.00    +0.141 C 
ATOM      5  N   UNL     1      -1.442   0.064  24.976  0.00  0.00    -0.258 NA
ATOM     12  C   UNL     1      -1.211  -0.605  24.552  0.00  0.00    +0.106 C 
ENDROOT
BRANCH   4  13
ATOM     13  C   UNL     1      -0.818   1.354  25.303  0.00  0.00    +0.251 A 
ATOM     14  N   UNL     1      -1.076   2.057  24.955  0.00  0.00    -0.190 NA
ATOM     15  C   UNL     1      -0.972   2.665  25.503  0.00  0.00    +0.203 A 
ATOM     16  N   UNL     1      -0.649   2.339  26.188  0.00  0.00    -0.056 NA
ATOM     17  O   UNL     1      -0.554   1.529  26.065  0.00  0.00    -0.336 OA
BRANCH  15  18
ATOM     18  C   UNL     1      -1.157   3.461  25.385  0.00  0.00    +0.039 A 
ATOM     19  C   UNL     1      -1.892   3.753  25.623  0.00  0.00    +0.005 A 
ATOM     20  C   UNL     1      -2.077   4.547  25.505  0.00  0.00    +0.030 A 
ATOM     21  C   UNL     1      -1.528   5.051  25.150  0.00  0.00    +0.140 A 
ATOM     22  F   UNL     1      -1.714   5.846  25.032  0.00  0.00    -0.204 F 
ATOM     23  C   UNL     1      -0.794   4.759  24.912  0.00  0.00    +0.030 A 
ATOM     24  C   UNL     1      -0.609   3.964  25.030  0.00  0.00    +0.005 A 
ENDBRANCH  15  18
ENDBRANCH   4  13
BRANCH   5   6
ATOM      6  C   UNL     1      -2.165   0.169  25.359  0.00  0.00    +0.139 C 
BRANCH   6   7
ATOM      7  C   UNL     1      -2.760  -0.397  25.280  0.00  0.00    +0.155 A 
ATOM      8  N   UNL     1      -2.889  -1.039  25.782  0.00  0.00    -0.226 NA
ATOM      9  C   UNL     1      -3.539  -1.459  25.497  0.00  0.00    +0.121 A 
ATOM     10  C   UNL     1      -3.813  -1.076  24.819  0.00  0.00    +0.121 A 
ATOM     11  N   UNL     1      -3.331  -0.420  24.685  0.00  0.00    -0.226 NA
ENDBRANCH   6   7
ENDBRANCH   5   6
TORSDOF 4
ENDMDL
MODEL 7
REMARK VINA RESULT:     -10.3      1.582      2.043
REMARK  Name = 
REMARK  4 active torsions:
REMARK  status: ('A' for Active; 'I' for Inactive)
REMARK    1  A    between atoms: C_4  and  C_13
REMARK    2  A    between atoms: N_5  and  C_6
REMARK    3  A    between atoms: C_6  and  C_7
REMARK    4  A    between atoms: C_15  and  C_18
REMARK                            x       y       z     vdW  Elec       q    Type
REMARK                         _______ _______ _______ _____ _____    ______ ____
ROOT
ATOM      1  O   UNL     1      -3.241   3.091  22.457  0.00  0.00    -0.222 OA
ATOM      2  C   UNL     1      -3.350   2.600  23.111  0.00  0.00    +0.170 C 
ATOM      3  C   UNL     1      -3.058   1.833  23.194  0.00  0.00    +0.060 C 
ATOM      4  C   UNL     1      -3.297   1.549  23.931  0.00  0.00    +0.141 C 
ATOM      5  N   UNL     1      -3.736   2.141  24.303  0.00  0.00    -0.258 NA
ATOM     12  C   UNL     1      -3.769   2.791  23.795  0.00  0.00    +0.106 C 
ENDROOT
BRANCH   4  13
ATOM     13  C   UNL     1      -3.126   0.805  24.242  0.00  0.00    +0.251 A 
ATOM     14  N   UNL     1      -3.497   0.097  24.037  0.00  0.00    -0.190 NA
ATOM     15  C   UNL     1      -3.155  -0.509  24.481  0.00  0.00    +0.203 A 
ATOM     16  N   UNL     1      -2.572  -0.175  24.961  0.00  0.00    -0.056 NA
ATOM     17  O   UNL     1      -2.555   0.637  24.813  0.00  0.00    -0.336 OA
BRANCH  15  18
ATOM     18  C   UNL     1      -3.359  -1.308  24.451  0.00  0.00    +0.039 A 
ATOM     19  C   UNL     1      -3.974  -1.558  23.961  0.00  0.00    +0.005 A 
ATOM     20  C   UNL     1      -4.177  -2.356  23.931  0.00  0.00    +0.030 A 
ATOM     21  C   UNL     1      -3.767  -2.905  24.390  0.00  0.00    +0.140 A 
ATOM     22  F   UNL     1      -3.971  -3.703  24.360  0.00  0.00    -0.204 F 
ATOM     23  C   UNL     1      -3.153  -2.655  24.880  0.00  0.00    +0.030 A 
ATOM     24  C   UNL     1      -2.948  -1.856  24.911  0.00  0.00    +0.005 A 
ENDBRANCH  15  18
ENDBRANCH   4  13
BRANCH   5   6
ATOM      6  C   UNL     1      -4.082   2.092  25.050  0.00  0.00    +0.139 C 
BRANCH   6   7
ATOM      7  C   UNL     1      -4.604   2.678  25.302  0.00  0.00    +0.155 A 
ATOM      8  N   UNL     1      -5.427   2.645  25.263  0.00  0.00    -0.226 NA
ATOM      9  C   UNL     1      -5.726   3.348  25.575  0.00  0.00    +0.121 A 
ATOM     10  C   UNL     1      -5.087   3.816  25.807  0.00  0.00    +0.121 A 
ATOM     11  N   UNL     1      -4.394   3.402  25.638  0.00  0.00    -0.226 NA
ENDBRANCH   6   7
ENDBRANCH   5   6
TORSDOF 4
ENDMDL
MODEL 8
REMARK VINA RESULT:     -10.1      2.228      4.878
REMARK  Name = 
REMARK  4 active torsions:
REMARK  status: ('A' for Active; 'I' for Inactive)
REMARK    1  A    between atoms: C_4  and  C_13
REMARK    2  A    between atoms: N_5  and  C_6
REMARK    3  A    between atoms: C_6  and  C_7
REMARK    4  A    between atoms: C_15  and  C_18
REMARK                            x       y       z     vdW  Elec       q    Type
REMARK                         _______ _______ _______ _____ _____    ______ ____
ROOT
ATOM      1  O   UNL     1      -0.418  -0.513  24.959  0.00  0.00    -0.222 OA
ATOM      2  C   UNL     1      -1.213  -0.339  24.824  0.00  0.00    +0.170 C 
ATOM      3  C   UNL     1      -1.522   0.404  24.646  0.00  0.00    +0.060 C 
ATOM      4  C   UNL     1      -2.339   0.324  24.554  0.00  0.00    +0.141 C 
ATOM      5  N   UNL     1      -2.532  -0.468  24.676  0.00  0.00    -0.258 NA
ATOM     12  C   UNL     1      -1.836  -0.878  24.843  0.00  0.00    +0.106 C 
ENDROOT
BRANCH   4  13
ATOM     13  C   UNL     1      -2.868   0.930  24.373  0.00  0.00    +0.251 A 
ATOM     14  N   UNL     1      -3.314   1.363  24.916  0.00  0.00    -0.190 NA
ATOM     15  C   UNL     1      -3.765   1.911  24.495  0.00  0.00    +0.203 A 
ATOM     16  N   UNL     1      -3.599   1.817  23.693  0.00  0.00    -0.056 NA
ATOM     17  O   UNL     1      -3.044   1.211  23.617  0.00  0.00    -0.336 OA
BRANCH  15  18
ATOM     18  C   UNL     1      -4.292   2.458  24.820  0.00  0.00    +0.039 A 
ATOM     19  C   UNL     1      -4.043   3.228  24.975  0.00  0.00    +0.005 A 
ATOM     20  C   UNL     1      -4.569   3.774  25.300  0.00  0.00    +0.030 A 
ATOM     21  C   UNL     1      -5.344   3.550  25.469  0.00  0.00    +0.140 A 
ATOM     22  F   UNL     1      -5.870   4.095  25.794  0.00  0.00    -0.204 F 
ATOM     23  C   UNL     1      -5.593   2.779  25.314  0.00  0.00    +0.030 A 
ATOM     24  C   UNL     1      -5.067   2.232  24.989  0.00  0.00    +0.005 A 
ENDBRANCH  15  18
ENDBRANCH   4  13
BRANCH   5   6
ATOM      6  C   UNL     1      -3.289  -0.794  24.639  0.00  0.00    +0.139 C 
BRANCH   6   7
ATOM      7  C   UNL     1      -3.388  -1.612  24.671  0.00  0.00    +0.155 A 
ATOM      8  N   UNL     1      -3.463  -2.118  24.024  0.00  0.00    -0.226 NA
ATOM      9  C   UNL     1      -3.551  -2.887  24.309  0.00  0.00    +0.121 A 
ATOM     10  C   UNL     1      -3.532  -2.856  25.134  0.00  0.00    +0.121 A 
ATOM     11  N   UNL     1      -3.431  -2.069  25.357  0.00  0.00    -0.226 NA
ENDBRANCH   6   7
ENDBRANCH   5   6
TORSDOF 4
ENDMDL
