MODEL 1
REMARK VINA RESULT:      -8.7      0.000      0.000
REMARK  Name = 
REMARK  8 active torsions:
REMARK  status: ('A' for Active; 'I' for Inactive)
REMARK    1  A    between atoms: O_2  and  C_3
REMARK    2  A    between atoms: C_5  and  C_6
REMARK    3  A    between atoms: C_6  and  N_7
REMARK    4  A    between atoms: C_11  and  C_12
REMARK    5  A    between atoms: C_14  and  C_17
REMARK    6  A    between atoms: C_20  and  N_23
REMARK    7  A    between atoms: C_27  and  O_28
REMARK    8  A    between atoms: C_30  and  O_31
REMARK                            x       y       z     vdW  Elec       q    Type
REMARK                         _______ _______ _______ _____ _____    ______ ____
ROOT
ATOM      7  N   UNL     1      -3.670   2.978  24.599  0.00  0.00    -0.263 NA
ATOM      8  C   UNL     1      -3.809   3.652  24.146  0.00  0.00    +0.073 C 
ATOM      9  C   UNL     1      -4.441   3.491  23.639  0.00  0.00    +0.019 C 
ATOM     10  C   UNL     1      -4.691   2.718  23.781  0.00  0.00    +0.027 C 
ATOM     11  C   UNL     1      -4.213   2.400  24.375  0.00  0.00    +0.138 C 
ENDROOT
BRANCH  11  12
ATOM     12  C   UNL     1      -4.270   1.640  24.688  0.00  0.00    +0.251 A 
ATOM     13  N   UNL     1      -3.879   0.969  24.408  0.00  0.00    -0.190 NA
ATOM     14  C   UNL     1      -4.096   0.331  24.883  0.00  0.00    +0.205 A 
ATOM     15  N   UNL     1      -4.620   0.606  25.456  0.00  0.00    -0.056 NA
ATOM     16  O   UNL     1      -4.728   1.414  25.336  0.00  0.00    -0.336 OA
BRANCH  14  17
ATOM     17  C   UNL     1      -3.833  -0.447  24.799  0.00  0.00    +0.058 A 
ATOM     18  C   UNL     1      -4.177  -0.939  24.233  0.00  0.00    +0.008 A 
ATOM     19  C   UNL     1      -3.915  -1.717  24.149  0.00  0.00    +0.034 A 
ATOM     20  C   UNL     1      -3.309  -2.002  24.631  0.00  0.00    +0.132 A 
ATOM     21  N   UNL     1      -2.965  -1.510  25.197  0.00  0.00    -0.229 NA
ATOM     22  C   UNL     1      -3.228  -0.732  25.281  0.00  0.00    +0.103 A 
BRANCH  20  23
ATOM     23  N   UNL     1      -3.047  -2.780  24.547  0.00  0.00    -0.290 N 
ATOM     24  C   UNL     1      -3.589  -3.402  24.555  0.00  0.00    +0.114 C 
ATOM     25  C   UNL     1      -2.242  -2.936  24.456  0.00  0.00    +0.114 C 
ENDBRANCH  20  23
ENDBRANCH  14  17
ENDBRANCH  11  12
BRANCH   7   6
ATOM      6  C   UNL     1      -3.087   2.895  25.178  0.00  0.00    +0.100 C 
BRANCH   6   5
ATOM      3  C   UNL     1      -0.979   3.158  24.674  0.00  0.00    +0.175 A 
ATOM      4  C   UNL     1      -1.717   2.805  24.778  0.00  0.00    +0.037 A 
ATOM      5  C   UNL     1      -2.348   3.249  25.073  0.00  0.00    +0.000 A 
ATOM     26  C   UNL     1      -2.241   4.044  25.262  0.00  0.00    +0.037 A 
ATOM     27  C   UNL     1      -1.502   4.397  25.157  0.00  0.00    +0.175 A 
ATOM     30  C   UNL     1      -0.871   3.954  24.863  0.00  0.00    +0.206 A 
BRANCH   3   2
ATOM      1  C   UNL     1      -0.351   1.893  24.458  0.00  0.00    +0.253 C 
ATOM      2  O   UNL     1      -0.349   2.715  24.379  0.00  0.00    -0.468 OA
ENDBRANCH   3   2
BRANCH  27  28
ATOM     28  O   UNL     1      -1.394   5.193  25.346  0.00  0.00    -0.468 OA
ATOM     29  C   UNL     1      -2.048   5.685  25.449  0.00  0.00    +0.253 C 
ENDBRANCH  27  28
BRANCH  30  31
ATOM     31  O   UNL     1      -0.134   4.307  24.758  0.00  0.00    -0.465 OA
ATOM     32  C   UNL     1       0.047   4.680  24.044  0.00  0.00    +0.253 C 
ENDBRANCH  30  31
ENDBRANCH   6   5
ENDBRANCH   7   6
TORSDOF 8
ENDMDL
MODEL 2
REMARK VINA RESULT:      -8.6      2.002      5.960
REMARK  Name = 
REMARK  8 active torsions:
REMARK  status: ('A' for Active; 'I' for Inactive)
REMARK    1  A    between atoms: O_2  and  C_3
REMARK    2  A    between atoms: C_5  and  C_6
REMARK    3  A    between atoms: C_6  and  N_7
REMARK    4  A    between atoms: C_11  and  C_12
REMARK    5  A    between atoms: C_14  and  C_17
REMARK    6  A    between atoms: C_20  and  N_23
REMARK    7  A    between atoms: C_27  and  O_28
REMARK    8  A    between atoms: C_30  and  O_31
REMARK                            x       y       z     vdW  Elec       q    Type
REMARK                         _______ _______ _______ _____ _____    ______ ____
ROOT
ATOM      7  N   UNL     1      -1.108  -0.512  24.856  0.00  0.00    -0.263 NA
ATOM      8  C   UNL     1      -0.856  -1.125  24.365  0.00  0.00    +0.073 C 
ATOM      9  C   UNL     1      -0.158  -0.885  23.997  0.00  0.00    +0.019 C 
ATOM     10  C   UNL     1       0.021  -0.124  24.260  0.00  0.00    +0.027 C 
ATOM     11  C   UNL     1      -0.567   0.107  24.791  0.00  0.00    +0.138 C 
ENDROOT
BRANCH  11  12
ATOM     12  C   UNL     1      -0.607   0.829  25.187  0.00  0.00    +0.251 A 
ATOM     13  N   UNL     1      -0.835   1.551  24.858  0.00  0.00    -0.190 NA
ATOM     14  C   UNL     1      -0.794   2.124  25.449  0.00  0.00    +0.205 A 
ATOM     15  N   UNL     1      -0.541   1.757  26.143  0.00  0.00    -0.056 NA
ATOM     16  O   UNL     1      -0.426   0.958  25.981  0.00  0.00    -0.336 OA
BRANCH  14  17
ATOM     17  C   UNL     1      -0.975   2.925  25.362  0.00  0.00    +0.058 A 
ATOM     18  C   UNL     1      -1.706   3.212  25.613  0.00  0.00    +0.008 A 
ATOM     19  C   UNL     1      -1.886   4.013  25.525  0.00  0.00    +0.034 A 
ATOM     20  C   UNL     1      -1.336   4.525  25.186  0.00  0.00    +0.132 A 
ATOM     21  N   UNL     1      -0.605   4.238  24.935  0.00  0.00    -0.229 NA
ATOM     22  C   UNL     1      -0.424   3.437  25.023  0.00  0.00    +0.103 A 
BRANCH  20  23
ATOM     23  N   UNL     1      -1.517   5.326  25.099  0.00  0.00    -0.290 N 
ATOM     24  C   UNL     1      -2.251   5.612  25.341  0.00  0.00    +0.114 C 
ATOM     25  C   UNL     1      -0.962   5.839  24.768  0.00  0.00    +0.114 C 
ENDBRANCH  20  23
ENDBRANCH  14  17
ENDBRANCH  11  12
BRANCH   7   6
ATOM      6  C   UNL     1      -1.784  -0.517  25.329  0.00  0.00    +0.100 C 
BRANCH   6   5
ATOM      3  C   UNL     1      -3.738  -0.691  24.369  0.00  0.00    +0.175 A 
ATOM      4  C   UNL     1      -3.037  -0.364  24.655  0.00  0.00    +0.037 A 
ATOM      5  C   UNL     1      -2.486  -0.843  25.042  0.00  0.00    +0.000 A 
ATOM     26  C   UNL     1      -2.638  -1.648  25.142  0.00  0.00    +0.037 A 
ATOM     27  C   UNL     1      -3.340  -1.974  24.855  0.00  0.00    +0.175 A 
ATOM     30  C   UNL     1      -3.889  -1.496  24.469  0.00  0.00    +0.206 A 
BRANCH   3   2
ATOM      1  C   UNL     1      -4.322   0.595  24.153  0.00  0.00    +0.253 C 
ATOM      2  O   UNL     1      -4.287  -0.212  23.983  0.00  0.00    -0.468 OA
ENDBRANCH   3   2
BRANCH  27  28
ATOM     28  O   UNL     1      -3.492  -2.779  24.955  0.00  0.00    -0.468 OA
ATOM     29  C   UNL     1      -3.165  -3.184  25.595  0.00  0.00    +0.253 C 
ENDBRANCH  27  28
BRANCH  30  31
ATOM     31  O   UNL     1      -4.591  -1.822  24.183  0.00  0.00    -0.465 OA
ATOM     32  C   UNL     1      -4.580  -2.290  23.503  0.00  0.00    +0.253 C 
ENDBRANCH  30  31
ENDBRANCH   6   5
ENDBRANCH   7   6
TORSDOF 8
ENDMDL
MODEL 3
REMARK VINA RESULT:      -8.5      2.302      4.308
REMARK  Name = 
REMARK  8 active torsions:
REMARK  status: ('A' for Active; 'I' for Inactive)
REMARK    1  A    between atoms: O_2  and  C_3
REMARK    2  A    between atoms: C_5  and  C_6
REMARK    3  A    between atoms: C_6  and  N_7
REMARK    4  A    between atoms: C_11  and  C_12
REMARK    5  A    between atoms: C_14  and  C_17
REMARK    6  A    between atoms: C_20  and  N_23
REMARK    7  A    between atoms: C_27  and  O_28
REMARK    8  A    between atoms: C_30  and  O_31
REMARK                            x       y       z     vdW  Elec       q    Type
REMARK                         _______ _______ _______ _____ _____    ______ ____
ROOT
ATOM      7  N   UNL     1      -3.794  -0.030  24.780  0.00  0.00    -0.263 NA
ATOM      8  C   UNL     1      -4.546  -0.282  24.553  0.00  0.00    +0.073 C 
ATOM      9  C   UNL     1      -4.464  -1.000  24.154  0.00  0.00    +0.019 C 
ATOM     10  C   UNL     1      -3.662  -1.191  24.135  0.00  0.00    +0.027 C 
ATOM     11  C   UNL     1      -3.248  -0.590  24.522  0.00  0.00    +0.138 C 
ENDROOT
BRANCH  11  12
ATOM     12  C   UNL     1      -2.431  -0.558  24.632  0.00  0.00    +0.251 A 
ATOM     13  N   UNL     1      -1.873  -0.342  24.063  0.00  0.00    -0.190 NA
ATOM     14  C   UNL     1      -1.126  -0.386  24.410  0.00  0.00    +0.205 A 
ATOM     15  N   UNL     1      -1.222  -0.628  25.192  0.00  0.00    -0.056 NA
ATOM     16  O   UNL     1      -2.027  -0.734  25.329  0.00  0.00    -0.336 OA
BRANCH  14  17
ATOM     17  C   UNL     1      -0.409  -0.217  24.038  0.00  0.00    +0.058 A 
ATOM     18  C   UNL     1      -0.189   0.567  23.904  0.00  0.00    +0.008 A 
ATOM     19  C   UNL     1       0.528   0.736  23.532  0.00  0.00    +0.034 A 
ATOM     20  C   UNL     1       1.025   0.122  23.295  0.00  0.00    +0.132 A 
ATOM     21  N   UNL     1       0.805  -0.662  23.430  0.00  0.00    -0.229 NA
ATOM     22  C   UNL     1       0.088  -0.831  23.801  0.00  0.00    +0.103 A 
BRANCH  20  23
ATOM     23  N   UNL     1       1.742   0.291  22.924  0.00  0.00    -0.290 N 
ATOM     24  C   UNL     1       2.259   0.842  23.256  0.00  0.00    +0.114 C 
ATOM     25  C   UNL     1       1.942  -0.091  22.221  0.00  0.00    +0.114 C 
ENDBRANCH  20  23
ENDBRANCH  14  17
ENDBRANCH  11  12
BRANCH   7   6
ATOM      6  C   UNL     1      -3.620   0.663  25.193  0.00  0.00    +0.100 C 
BRANCH   6   5
ATOM      3  C   UNL     1      -4.428   2.555  24.462  0.00  0.00    +0.175 A 
ATOM      4  C   UNL     1      -3.940   1.894  24.540  0.00  0.00    +0.037 A 
ATOM      5  C   UNL     1      -4.108   1.324  25.114  0.00  0.00    +0.000 A 
ATOM     26  C   UNL     1      -4.762   1.416  25.608  0.00  0.00    +0.037 A 
ATOM     27  C   UNL     1      -5.249   2.077  25.529  0.00  0.00    +0.175 A 
ATOM     30  C   UNL     1      -5.082   2.647  24.956  0.00  0.00    +0.206 A 
BRANCH   3   2
ATOM      1  C   UNL     1      -3.628   3.012  23.370  0.00  0.00    +0.253 C 
ATOM      2  O   UNL     1      -4.260   3.124  23.889  0.00  0.00    -0.468 OA
ENDBRANCH   3   2
BRANCH  27  28
ATOM     28  O   UNL     1      -5.904   2.169  26.024  0.00  0.00    -0.468 OA
ATOM     29  C   UNL     1      -6.264   1.507  26.357  0.00  0.00    +0.253 C 
ENDBRANCH  27  28
BRANCH  30  31
ATOM     31  O   UNL     1      -5.569   3.307  24.877  0.00  0.00    -0.465 OA
ATOM     32  C   UNL     1      -5.452   3.966  25.362  0.00  0.00    +0.253 C 
ENDBRANCH  30  31
ENDBRANCH   6   5
ENDBRANCH   7   6
TORSDOF 8
ENDMDL
MODEL 4
REMARK VINA RESULT:      -8.5      2.122      4.479
REMARK  Name = 
REMARK  8 active torsions:
REMARK  status: ('A' for Active; 'I' for Inactive)
REMARK    1  A    between atoms: O_2  and  C_3
REMARK    2  A    between atoms: C_5  and  C_6
REMARK    3  A    between atoms: C_6  and  N_7
REMARK    4  A    between atoms: C_11  and  C_12
REMARK    5  A    between atoms: C_14  and  C_17
REMARK    6  A    between atoms: C_20  and  N_23
REMARK    7  A    between atoms: C_27  and  O_28
REMARK    8  A    between atoms: C_30  and  O_31
REMARK                            x       y       z     vdW  Elec       q    Type
REMARK                         _______ _______ _______ _____ _____    ______ ____
ROOT
ATOM      7  N   UNL     1      -0.635   2.130  24.920  0.00  0.00    -0.263 NA
ATOM      8  C   UNL     1       0.110   2.112  25.274  0.00  0.00    +0.073 C 
ATOM      9  C   UNL     1       0.135   2.708  25.844  0.00  0.00    +0.019 C 
ATOM     10  C   UNL     1      -0.594   3.094  25.842  0.00  0.00    +0.027 C 
ATOM     11  C   UNL     1      -1.070   2.736  25.270  0.00  0.00    +0.138 C 
ENDROOT
BRANCH  11  12
ATOM     12  C   UNL     1      -1.844   2.948  25.082  0.00  0.00    +0.251 A 
ATOM     13  N   UNL     1      -2.528   2.558  25.331  0.00  0.00    -0.190 NA
ATOM     14  C   UNL     1      -3.178   2.956  25.015  0.00  0.00    +0.205 A 
ATOM     15  N   UNL     1      -2.896   3.591  24.571  0.00  0.00    -0.056 NA
ATOM     16  O   UNL     1      -2.073   3.586  24.612  0.00  0.00    -0.336 OA
BRANCH  14  17
ATOM     17  C   UNL     1      -3.970   2.753  25.124  0.00  0.00    +0.058 A 
ATOM     18  C   UNL     1      -4.289   2.106  24.723  0.00  0.00    +0.008 A 
ATOM     19  C   UNL     1      -5.082   1.904  24.832  0.00  0.00    +0.034 A 
ATOM     20  C   UNL     1      -5.555   2.348  25.341  0.00  0.00    +0.132 A 
ATOM     21  N   UNL     1      -5.236   2.995  25.742  0.00  0.00    -0.229 NA
ATOM     22  C   UNL     1      -4.443   3.197  25.633  0.00  0.00    +0.103 A 
BRANCH  20  23
ATOM     23  N   UNL     1      -6.347   2.145  25.450  0.00  0.00    -0.290 N 
ATOM     24  C   UNL     1      -6.828   1.994  24.797  0.00  0.00    +0.114 C 
ATOM     25  C   UNL     1      -6.658   2.094  26.212  0.00  0.00    +0.114 C 
ENDBRANCH  20  23
ENDBRANCH  14  17
ENDBRANCH  11  12
BRANCH   7   6
ATOM      6  C   UNL     1      -0.898   1.629  24.320  0.00  0.00    +0.100 C 
BRANCH   6   5
ATOM      3  C   UNL     1       0.111  -0.265  23.918  0.00  0.00    +0.175 A 
ATOM      4  C   UNL     1      -0.076   0.538  23.896  0.00  0.00    +0.037 A 
ATOM      5  C   UNL     1      -0.710   0.825  24.341  0.00  0.00    +0.000 A 
ATOM     26  C   UNL     1      -1.155   0.310  24.807  0.00  0.00    +0.037 A 
ATOM     27  C   UNL     1      -0.966  -0.494  24.827  0.00  0.00    +0.175 A 
ATOM     30  C   UNL     1      -0.334  -0.781  24.383  0.00  0.00    +0.206 A 
BRANCH   3   2
ATOM      1  C   UNL     1       0.982  -0.154  22.790  0.00  0.00    +0.253 C 
ATOM      2  O   UNL     1       0.744  -0.552  23.473  0.00  0.00    -0.468 OA
ENDBRANCH   3   2
BRANCH  27  28
ATOM     28  O   UNL     1      -1.411  -1.010  25.293  0.00  0.00    -0.468 OA
ATOM     29  C   UNL     1      -2.212  -0.862  25.422  0.00  0.00    +0.253 C 
ENDBRANCH  27  28
BRANCH  30  31
ATOM     31  O   UNL     1      -0.146  -1.583  24.404  0.00  0.00    -0.465 OA
ATOM     32  C   UNL     1       0.145  -1.921  25.100  0.00  0.00    +0.253 C 
ENDBRANCH  30  31
ENDBRANCH   6   5
ENDBRANCH   7   6
TORSDOF 8
ENDMDL
MODEL 5
REMARK VINA RESULT:      -8.4      1.823      5.356
REMARK  Name = 
REMARK  8 active torsions:
REMARK  status: ('A' for Active; 'I' for Inactive)
REMARK    1  A    between atoms: O_2  and  C_3
REMARK    2  A    between atoms: C_5  and  C_6
REMARK    3  A    between atoms: C_6  and  N_7
REMARK    4  A    between atoms: C_11  and  C_12
REMARK    5  A    between atoms: C_14  and  C_17
REMARK    6  A    between atoms: C_20  and  N_23
REMARK    7  A    between atoms: C_27  and  O_28
REMARK    8  A    between atoms: C_30  and  O_31
REMARK                            x       y       z     vdW  Elec       q    Type
REMARK                         _______ _______ _______ _____ _____    ______ ____
ROOT
ATOM      7  N   UNL     1      -4.681   0.719  24.827  0.00  0.00    -0.263 NA
ATOM      8  C   UNL     1      -5.241   0.287  25.251  0.00  0.00    +0.073 C 
ATOM      9  C   UNL     1      -5.707   0.821  25.675  0.00  0.00    +0.019 C 
ATOM     10  C   UNL     1      -5.434   1.582  25.511  0.00  0.00    +0.027 C 
ATOM     11  C   UNL     1      -4.800   1.518  24.986  0.00  0.00    +0.138 C 
ENDROOT
BRANCH  11  12
ATOM     12  C   UNL     1      -4.362   2.145  24.677  0.00  0.00    +0.251 A 
ATOM     13  N   UNL     1      -3.660   2.446  24.988  0.00  0.00    -0.190 NA
ATOM     14  C   UNL     1      -3.413   3.068  24.506  0.00  0.00    +0.205 A 
ATOM     15  N   UNL     1      -3.963   3.151  23.897  0.00  0.00    -0.056 NA
ATOM     16  O   UNL     1      -4.549   2.581  24.003  0.00  0.00    -0.336 OA
BRANCH  14  17
ATOM     17  C   UNL     1      -2.735   3.526  24.613  0.00  0.00    +0.058 A 
ATOM     18  C   UNL     1      -2.767   4.205  25.081  0.00  0.00    +0.008 A 
ATOM     19  C   UNL     1      -2.089   4.663  25.189  0.00  0.00    +0.034 A 
ATOM     20  C   UNL     1      -1.380   4.442  24.829  0.00  0.00    +0.132 A 
ATOM     21  N   UNL     1      -1.348   3.763  24.362  0.00  0.00    -0.229 NA
ATOM     22  C   UNL     1      -2.026   3.305  24.254  0.00  0.00    +0.103 A 
BRANCH  20  23
ATOM     23  N   UNL     1      -0.702   4.901  24.937  0.00  0.00    -0.290 N 
ATOM     24  C   UNL     1      -0.745   5.722  24.871  0.00  0.00    +0.114 C 
ATOM     25  C   UNL     1       0.017   4.537  25.111  0.00  0.00    +0.114 C 
ENDBRANCH  20  23
ENDBRANCH  14  17
ENDBRANCH  11  12
BRANCH   7   6
ATOM      6  C   UNL     1      -4.103   0.405  24.328  0.00  0.00    +0.100 C 
BRANCH   6   5
ATOM      3  C   UNL     1      -2.737  -1.067  25.185  0.00  0.00    +0.175 A 
ATOM      4  C   UNL     1      -3.089  -0.344  25.004  0.00  0.00    +0.037 A 
ATOM      5  C   UNL     1      -3.751  -0.319  24.510  0.00  0.00    +0.000 A 
ATOM     26  C   UNL     1      -4.059  -1.018  24.199  0.00  0.00    +0.037 A 
ATOM     27  C   UNL     1      -3.706  -1.741  24.381  0.00  0.00    +0.175 A 
ATOM     30  C   UNL     1      -3.045  -1.766  24.873  0.00  0.00    +0.206 A 
BRANCH   3   2
ATOM      1  C   UNL     1      -1.624  -0.410  25.795  0.00  0.00    +0.253 C 
ATOM      2  O   UNL     1      -2.076  -1.091  25.678  0.00  0.00    -0.468 OA
ENDBRANCH   3   2
BRANCH  27  28
ATOM     28  O   UNL     1      -4.015  -2.441  24.069  0.00  0.00    -0.468 OA
ATOM     29  C   UNL     1      -4.581  -2.411  23.471  0.00  0.00    +0.253 C 
ENDBRANCH  27  28
BRANCH  30  31
ATOM     31  O   UNL     1      -2.693  -2.489  25.055  0.00  0.00    -0.465 OA
ATOM     32  C   UNL     1      -2.095  -2.789  24.571  0.00  0.00    +0.253 C 
ENDBRANCH  30  31
ENDBRANCH   6   5
ENDBRANCH   7   6
TORSDOF 8
ENDMDL
MODEL 6
REMARK VINA RESULT:      -8.4      1.531      2.741
REMARK  Name = 
REMARK  8 active torsions:
REMARK  status: ('A' for Active; 'I' for Inactive)
REMARK    1  A    between atoms: O_2  and  C_3
REMARK    2  A    between atoms: C_5  and  C_6
REMARK    3  A    between atoms: C_6  and  N_7
REMARK    4  A    between atoms: C_11  and  C_12
REMARK    5  A    between atoms: C_14  and  C_17
REMARK    6  A    between atoms: C_20  and  N_23
REMARK    7  A    between atoms: C_27  and  O_28
REMARK    8  A    between atoms: C_30  and  O_31
REMARK                            x       y       z     vdW  Elec       q    Type
REMARK                         _______ _______ _______ _____ _____    ______ ____
ROOT
ATOM      7  N   UNL     1      -0.661   1.983  25.019  0.00  0.00    -0.263 NA
ATOM      8  C   UNL     1      -0.156   2.514  24.641  0.00  0.00    +0.073 C 
ATOM      9  C   UNL     1       0.403   2.077  24.219  0.00  0.00    +0.019 C 
ATOM     10  C   UNL     1       0.242   1.277  24.337  0.00  0.00    +0.027 C 
ATOM     11  C   UNL     1      -0.415   1.219  24.832  0.00  0.00    +0.138 C 
ENDROOT
BRANCH  11  12
ATOM     12  C   UNL     1      -0.765   0.520  25.094  0.00  0.00    +0.251 A 
ATOM     13  N   UNL     1      -1.327   0.076  24.683  0.00  0.00    -0.190 NA
ATOM     14  C   UNL     1      -1.524  -0.577  25.147  0.00  0.00    +0.205 A 
ATOM     15  N   UNL     1      -1.085  -0.537  25.844  0.00  0.00    -0.056 NA
ATOM     16  O   UNL     1      -0.617   0.140  25.811  0.00  0.00    -0.336 OA
BRANCH  14  17
ATOM     17  C   UNL     1      -2.066  -1.167  24.949  0.00  0.00    +0.058 A 
ATOM     18  C   UNL     1      -2.857  -1.091  25.171  0.00  0.00    +0.008 A 
ATOM     19  C   UNL     1      -3.399  -1.681  24.973  0.00  0.00    +0.034 A 
ATOM     20  C   UNL     1      -3.150  -2.346  24.553  0.00  0.00    +0.132 A 
ATOM     21  N   UNL     1      -2.359  -2.422  24.331  0.00  0.00    -0.229 NA
ATOM     22  C   UNL     1      -1.817  -1.832  24.529  0.00  0.00    +0.103 A 
BRANCH  20  23
ATOM     23  N   UNL     1      -3.692  -2.936  24.355  0.00  0.00    -0.290 N 
ATOM     24  C   UNL     1      -4.307  -2.772  23.829  0.00  0.00    +0.114 C 
ATOM     25  C   UNL     1      -3.619  -3.690  24.682  0.00  0.00    +0.114 C 
ENDBRANCH  20  23
ENDBRANCH  14  17
ENDBRANCH  11  12
BRANCH   7   6
ATOM      6  C   UNL     1      -1.300   2.182  25.502  0.00  0.00    +0.100 C 
BRANCH   6   5
ATOM      3  C   UNL     1      -3.024   3.176  24.603  0.00  0.00    +0.175 A 
ATOM      4  C   UNL     1      -2.501   2.583  24.836  0.00  0.00    +0.037 A 
ATOM      5  C   UNL     1      -1.824   2.776  25.268  0.00  0.00    +0.000 A 
ATOM     26  C   UNL     1      -1.672   3.562  25.466  0.00  0.00    +0.037 A 
ATOM     27  C   UNL     1      -2.196   4.155  25.232  0.00  0.00    +0.175 A 
ATOM     30  C   UNL     1      -2.872   3.962  24.801  0.00  0.00    +0.206 A 
BRANCH   3   2
ATOM      1  C   UNL     1      -3.733   2.270  23.756  0.00  0.00    +0.253 C 
ATOM      2  O   UNL     1      -3.700   2.982  24.172  0.00  0.00    -0.468 OA
ENDBRANCH   3   2
BRANCH  27  28
ATOM     28  O   UNL     1      -2.043   4.942  25.430  0.00  0.00    -0.468 OA
ATOM     29  C   UNL     1      -1.345   5.302  25.180  0.00  0.00    +0.253 C 
ENDBRANCH  27  28
BRANCH  30  31
ATOM     31  O   UNL     1      -3.395   4.555  24.568  0.00  0.00    -0.465 OA
ATOM     32  C   UNL     1      -4.121   4.639  24.952  0.00  0.00    +0.253 C 
ENDBRANCH  30  31
ENDBRANCH   6   5
ENDBRANCH   7   6
TORSDOF 8
ENDMDL
MODEL 7
REMARK VINA RESULT:      -8.1      2.160      4.457
REMARK  Name = 
REMARK  8 active torsions:
REMARK  status: ('A' for Active; 'I' for Inactive)
REMARK    1  A    between atoms: O_2  and  C_3
REMARK    2  A    between atoms: C_5  and  C_6
REMARK    3  A    between atoms: C_6  and  N_7
REMARK    4  A    between atoms: C_11  and  C_12
REMARK    5  A    between atoms: C_14  and  C_17
REMARK    6  A    between atoms: C_20  and  N_23
REMARK    7  A    between atoms: C_27  and  O_28
REMARK    8  A    between atoms: C_30  and  O_31
REMARK                            x       y       z     vdW  Elec       q    Type
REMARK                         _______ _______ _______ _____ _____    ______ ____
ROOT
ATOM      7  N   UNL     1      -0.861  -0.821  24.455  0.00  0.00    -0.263 NA
ATOM      8  C   UNL     1      -0.223  -1.204  24.812  0.00  0.00    +0.073 C 
ATOM      9  C   UNL     1      -0.519  -1.676  25.421  0.00  0.00    +0.019 C 
ATOM     10  C   UNL     1      -1.338  -1.585  25.439  0.00  0.00    +0.027 C 
ATOM     11  C   UNL     1      -1.549  -1.056  24.842  0.00  0.00    +0.138 C 
ENDROOT
BRANCH  11  12
ATOM     12  C   UNL     1      -2.315  -0.806  24.663  0.00  0.00    +0.251 A 
ATOM     13  N   UNL     1      -2.683  -0.126  24.952  0.00  0.00    -0.190 NA
ATOM     14  C   UNL     1      -3.442  -0.092  24.632  0.00  0.00    +0.205 A 
ATOM     15  N   UNL     1      -3.544  -0.750  24.146  0.00  0.00    -0.056 NA
ATOM     16  O   UNL     1      -2.848  -1.191  24.165  0.00  0.00    -0.336 OA
BRANCH  14  17
ATOM     17  C   UNL     1      -4.002   0.498  24.773  0.00  0.00    +0.058 A 
ATOM     18  C   UNL     1      -3.926   1.234  24.410  0.00  0.00    +0.008 A 
ATOM     19  C   UNL     1      -4.485   1.824  24.551  0.00  0.00    +0.034 A 
ATOM     20  C   UNL     1      -5.121   1.677  25.056  0.00  0.00    +0.132 A 
ATOM     21  N   UNL     1      -5.197   0.940  25.420  0.00  0.00    -0.229 NA
ATOM     22  C   UNL     1      -4.637   0.351  25.278  0.00  0.00    +0.103 A 
BRANCH  20  23
ATOM     23  N   UNL     1      -5.681   2.267  25.198  0.00  0.00    -0.290 N 
ATOM     24  C   UNL     1      -6.471   2.143  24.995  0.00  0.00    +0.114 C 
ATOM     25  C   UNL     1      -5.450   2.980  25.542  0.00  0.00    +0.114 C 
ENDBRANCH  20  23
ENDBRANCH  14  17
ENDBRANCH  11  12
BRANCH   7   6
ATOM      6  C   UNL     1      -0.816  -0.295  23.821  0.00  0.00    +0.100 C 
BRANCH   6   5
ATOM      3  C   UNL     1       0.802   1.170  23.858  0.00  0.00    +0.175 A 
ATOM      4  C   UNL     1       0.090   0.791  24.030  0.00  0.00    +0.037 A 
ATOM      5  C   UNL     1      -0.103   0.085  23.649  0.00  0.00    +0.000 A 
ATOM     26  C   UNL     1       0.415  -0.241  23.095  0.00  0.00    +0.037 A 
ATOM     27  C   UNL     1       1.127   0.139  22.924  0.00  0.00    +0.175 A 
ATOM     30  C   UNL     1       1.321   0.844  23.305  0.00  0.00    +0.206 A 
BRANCH   3   2
ATOM      1  C   UNL     1       0.401   2.335  24.581  0.00  0.00    +0.253 C 
ATOM      2  O   UNL     1       0.996   1.875  24.239  0.00  0.00    -0.468 OA
ENDBRANCH   3   2
BRANCH  27  28
ATOM     28  O   UNL     1       1.646  -0.187  22.370  0.00  0.00    -0.468 OA
ATOM     29  C   UNL     1       1.349  -0.553  21.694  0.00  0.00    +0.253 C 
ENDBRANCH  27  28
BRANCH  30  31
ATOM     31  O   UNL     1       2.032   1.224  23.133  0.00  0.00    -0.465 OA
ATOM     32  C   UNL     1       2.749   0.868  23.337  0.00  0.00    +0.253 C 
ENDBRANCH  30  31
ENDBRANCH   6   5
ENDBRANCH   7   6
TORSDOF 8
ENDMDL
