MODEL 1
REMARK VINA RESULT:     -12.2      0.000      0.000
REMARK  Name = 
REMARK  6 active torsions:
REMARK  status: ('A' for Active; 'I' for Inactive)
REMARK    1  A    between atoms: C_5  and  S_8
REMARK    2  A    between atoms: S_8  and  C_11
REMARK    3  A    between atoms: C_11  and  C_12
REMARK    4  A    between atoms: C_15  and  C_17
REMARK    5  A    between atoms: N_22  and  C_23
REMARK    6  A    between atoms: C_23  and  C_24
REMARK                            x       y       z     vdW  Elec       q    Type
REMARK                         _______ _______ _______ _____ _____    ______ ____
ROOT
ATOM     12  C   UNL     1      -0.802   0.797  24.806  0.00  0.00    +0.205 A 
ATOM     13  N   UNL     1      -0.688   0.983  24.010  0.00  0.00    -0.059 NA
ATOM     14  O   UNL     1      -0.858   1.784  23.909  0.00  0.00    -0.336 OA
ATOM     15  C   UNL     1      -1.077   2.093  24.642  0.00  0.00    +0.251 A 
ATOM     16  N   UNL     1      -1.042   1.482  25.196  0.00  0.00    -0.192 NA
ENDROOT
BRANCH  15  17
ATOM     17  C   UNL     1      -1.293   2.874  24.794  0.00  0.00    +0.140 C 
ATOM     18  C   UNL     1      -0.777   3.496  24.962  0.00  0.00    +0.060 C 
ATOM     19  C   UNL     1      -1.227   4.177  25.077  0.00  0.00    +0.170 C 
ATOM     20  O   UNL     1      -0.934   4.927  25.257  0.00  0.00    -0.222 OA
ATOM     21  C   UNL     1      -2.022   3.977  24.981  0.00  0.00    +0.106 C 
ATOM     22  N   UNL     1      -2.062   3.171  24.806  0.00  0.00    -0.260 NA
BRANCH  22  23
ATOM     23  C   UNL     1      -2.751   2.740  24.668  0.00  0.00    +0.100 C 
BRANCH  23  24
ATOM     24  C   UNL     1      -3.485   3.056  24.873  0.00  0.00    -0.006 A 
ATOM     25  C   UNL     1      -3.778   2.955  25.637  0.00  0.00    -0.001 A 
ATOM     26  C   UNL     1      -4.512   3.271  25.843  0.00  0.00    +0.029 A 
ATOM     27  C   UNL     1      -4.952   3.688  25.283  0.00  0.00    +0.140 A 
ATOM     28  F   UNL     1      -5.687   4.005  25.489  0.00  0.00    -0.204 F 
ATOM     29  C   UNL     1      -4.659   3.789  24.519  0.00  0.00    +0.029 A 
ATOM     30  C   UNL     1      -3.926   3.473  24.314  0.00  0.00    -0.001 A 
ENDBRANCH  23  24
ENDBRANCH  22  23
ENDBRANCH  15  17
BRANCH  12  11
ATOM     11  C   UNL     1      -0.694   0.055  25.151  0.00  0.00    +0.224 C 
BRANCH  11   8
ATOM      8  S   UNL     1      -1.275  -0.526  25.069  0.00  0.00    +0.016 S 
ATOM      9  O   UNL     1      -1.552  -0.354  25.828  0.00  0.00    -0.168 OA
ATOM     10  O   UNL     1      -0.999  -0.697  24.312  0.00  0.00    -0.168 OA
BRANCH   8   5
ATOM      1  C   UNL     1      -3.598  -2.847  24.748  0.00  0.00    +0.031 C 
ATOM      2  C   UNL     1      -3.018  -2.266  24.829  0.00  0.00    -0.022 A 
ATOM      3  C   UNL     1      -3.199  -1.549  25.193  0.00  0.00    -0.003 A 
ATOM      4  C   UNL     1      -2.619  -0.968  25.273  0.00  0.00    +0.018 A 
ATOM      5  C   UNL     1      -1.856  -1.105  24.989  0.00  0.00    +0.106 A 
ATOM      6  C   UNL     1      -1.674  -1.824  24.625  0.00  0.00    +0.018 A 
ATOM      7  C   UNL     1      -2.255  -2.403  24.545  0.00  0.00    -0.003 A 
ENDBRANCH   8   5
ENDBRANCH  11   8
ENDBRANCH  12  11
TORSDOF 6
ENDMDL
MODEL 2
REMARK VINA RESULT:     -11.9      2.536      5.457
REMARK  Name = 
REMARK  6 active torsions:
REMARK  status: ('A' for Active; 'I' for Inactive)
REMARK    1  A    between atoms: C_5  and  S_8
REMARK    2  A    between atoms: S_8  and  C_11
REMARK    3  A    between atoms: C_11  and  C_12
REMARK    4  A    between atoms: C_15  and  C_17
REMARK    5  A    between atoms: N_22  and  C_23
REMARK    6  A    between atoms: C_23  and  C_24
REMARK                            x       y       z     vdW  Elec       q    Type
REMARK                         _______ _______ _______ _____ _____    ______ ____
ROOT
ATOM     12  C   UNL     1      -4.605   1.633  24.794  0.00  0.00    +0.205 A 
ATOM     13  N   UNL     1      -4.961   1.311  25.466  0.00  0.00    -0.059 NA
ATOM     14  O   UNL     1      -4.819   0.498  25.465  0.00  0.00    -0.336 OA
ATOM     15  C   UNL     1      -4.377   0.317  24.793  0.00  0.00    +0.251 A 
ATOM     16  N   UNL     1      -4.244   1.018  24.378  0.00  0.00    -0.192 NA
ENDROOT
BRANCH  15  17
ATOM     17  C   UNL     1      -4.113  -0.433  24.574  0.00  0.00    +0.140 C 
ATOM     18  C   UNL     1      -4.536  -0.986  24.131  0.00  0.00    +0.060 C 
ATOM     19  C   UNL     1      -4.065  -1.656  24.042  0.00  0.00    +0.170 C 
ATOM     20  O   UNL     1      -4.271  -2.344  23.636  0.00  0.00    -0.222 OA
ATOM     21  C   UNL     1      -3.349  -1.518  24.430  0.00  0.00    +0.106 C 
ATOM     22  N   UNL     1      -3.379  -0.762  24.759  0.00  0.00    -0.260 NA
BRANCH  22  23
ATOM     23  C   UNL     1      -2.781  -0.399  25.195  0.00  0.00    +0.100 C 
BRANCH  23  24
ATOM     24  C   UNL     1      -1.994  -0.617  25.078  0.00  0.00    -0.006 A 
ATOM     25  C   UNL     1      -1.539  -0.230  24.510  0.00  0.00    -0.001 A 
ATOM     26  C   UNL     1      -0.751  -0.448  24.392  0.00  0.00    +0.029 A 
ATOM     27  C   UNL     1      -0.420  -1.054  24.844  0.00  0.00    +0.140 A 
ATOM     28  F   UNL     1       0.367  -1.273  24.726  0.00  0.00    -0.204 F 
ATOM     29  C   UNL     1      -0.876  -1.442  25.412  0.00  0.00    +0.029 A 
ATOM     30  C   UNL     1      -1.662  -1.224  25.529  0.00  0.00    -0.001 A 
ENDBRANCH  23  24
ENDBRANCH  22  23
ENDBRANCH  15  17
BRANCH  12  11
ATOM     11  C   UNL     1      -4.610   2.428  24.576  0.00  0.00    +0.224 C 
BRANCH  11   8
ATOM      8  S   UNL     1      -3.953   2.902  24.732  0.00  0.00    +0.016 S 
ATOM      9  O   UNL     1      -3.704   2.814  23.950  0.00  0.00    -0.168 OA
ATOM     10  O   UNL     1      -4.201   2.990  25.514  0.00  0.00    -0.168 OA
BRANCH   8   5
ATOM      1  C   UNL     1      -1.323   4.797  25.353  0.00  0.00    +0.031 C 
ATOM      2  C   UNL     1      -1.980   4.323  25.198  0.00  0.00    -0.022 A 
ATOM      3  C   UNL     1      -1.963   3.785  24.573  0.00  0.00    -0.003 A 
ATOM      4  C   UNL     1      -2.620   3.311  24.417  0.00  0.00    +0.018 A 
ATOM      5  C   UNL     1      -3.295   3.376  24.887  0.00  0.00    +0.106 A 
ATOM      6  C   UNL     1      -3.313   3.914  25.513  0.00  0.00    +0.018 A 
ATOM      7  C   UNL     1      -2.655   4.388  25.667  0.00  0.00    -0.003 A 
ENDBRANCH   8   5
ENDBRANCH  11   8
ENDBRANCH  12  11
TORSDOF 6
ENDMDL
MODEL 3
REMARK VINA RESULT:     -11.8      2.065      2.940
REMARK  Name = 
REMARK  6 active torsions:
REMARK  status: ('A' for Active; 'I' for Inactive)
REMARK    1  A    between atoms: C_5  and  S_8
REMARK    2  A    between atoms: S_8  and  C_11
REMARK    3  A    between atoms: C_11  and  C_12
REMARK    4  A    between atoms: C_15  and  C_17
REMARK    5  A    between atoms: N_22  and  C_23
REMARK    6  A    between atoms: C_23  and  C_24
REMARK                            x       y       z     vdW  Elec       q    Type
REMARK                         _______ _______ _______ _____ _____    ______ ____
ROOT
ATOM     12  C   UNL     1      -4.239   0.132  24.833  0.00  0.00    +0.205 A 
ATOM     13  N   UNL     1      -4.312   0.384  24.050  0.00  0.00    -0.059 NA
ATOM     14  O   UNL     1      -4.473   1.194  24.057  0.00  0.00    -0.336 OA
ATOM     15  C   UNL     1      -4.499   1.442  24.844  0.00  0.00    +0.251 A 
ATOM     16  N   UNL     1      -4.354   0.785  25.323  0.00  0.00    -0.192 NA
ENDROOT
BRANCH  15  17
ATOM     17  C   UNL     1      -4.644   2.210  25.105  0.00  0.00    +0.140 C 
ATOM     18  C   UNL     1      -5.376   2.514  25.336  0.00  0.00    +0.060 C 
ATOM     19  C   UNL     1      -5.267   3.301  25.556  0.00  0.00    +0.170 C 
ATOM     20  O   UNL     1      -5.854   3.815  25.824  0.00  0.00    -0.222 OA
ATOM     21  C   UNL     1      -4.468   3.485  25.461  0.00  0.00    +0.106 C 
ATOM     22  N   UNL     1      -4.083   2.810  25.182  0.00  0.00    -0.260 NA
BRANCH  22  23
ATOM     23  C   UNL     1      -3.279   2.748  25.011  0.00  0.00    +0.100 C 
BRANCH  23  24
ATOM     24  C   UNL     1      -2.782   3.397  25.117  0.00  0.00    -0.006 A 
ATOM     25  C   UNL     1      -2.707   3.961  24.520  0.00  0.00    -0.001 A 
ATOM     26  C   UNL     1      -2.210   4.612  24.627  0.00  0.00    +0.029 A 
ATOM     27  C   UNL     1      -1.788   4.697  25.331  0.00  0.00    +0.140 A 
ATOM     28  F   UNL     1      -1.291   5.347  25.437  0.00  0.00    -0.204 F 
ATOM     29  C   UNL     1      -1.864   4.133  25.928  0.00  0.00    +0.029 A 
ATOM     30  C   UNL     1      -2.360   3.483  25.821  0.00  0.00    -0.001 A 
ENDBRANCH  23  24
ENDBRANCH  22  23
ENDBRANCH  15  17
BRANCH  12  11
ATOM     11  C   UNL     1      -4.078  -0.638  25.081  0.00  0.00    +0.224 C 
BRANCH  11   8
ATOM      8  S   UNL     1      -3.300  -0.910  25.102  0.00  0.00    +0.016 S 
ATOM      9  O   UNL     1      -3.275  -0.771  25.916  0.00  0.00    -0.168 OA
ATOM     10  O   UNL     1      -3.325  -1.049  24.290  0.00  0.00    -0.168 OA
BRANCH   8   5
ATOM      1  C   UNL     1      -0.186  -2.000  25.192  0.00  0.00    +0.031 C 
ATOM      2  C   UNL     1      -0.964  -1.727  25.170  0.00  0.00    -0.022 A 
ATOM      3  C   UNL     1      -1.171  -1.036  25.571  0.00  0.00    -0.003 A 
ATOM      4  C   UNL     1      -1.950  -0.764  25.548  0.00  0.00    +0.018 A 
ATOM      5  C   UNL     1      -2.521  -1.182  25.125  0.00  0.00    +0.106 A 
ATOM      6  C   UNL     1      -2.314  -1.873  24.724  0.00  0.00    +0.018 A 
ATOM      7  C   UNL     1      -1.536  -2.145  24.747  0.00  0.00    -0.003 A 
ENDBRANCH   8   5
ENDBRANCH  11   8
ENDBRANCH  12  11
TORSDOF 6
ENDMDL
MODEL 4
REMARK VINA RESULT:     -11.7      1.755      4.603
REMARK  Name = 
REMARK  6 active torsions:
REMARK  status: ('A' for Active; 'I' for Inactive)
REMARK    1  A    between atoms: C_5  and  S_8
REMARK    2  A    between atoms: S_8  and  C_11
REMARK    3  A    between atoms: C_11  and  C_12
REMARK    4  A    between atoms: C_15  and  C_17
REMARK    5  A    between atoms: N_22  and  C_23
REMARK    6  A    between atoms: C_23  and  C_24
REMARK                            x       y       z     vdW  Elec       q    Type
REMARK                         _______ _______ _______ _____ _____    ______ ____
ROOT
ATOM     12  C   UNL     1      -1.364   2.372  25.215  0.00  0.00    +0.205 A 
ATOM     13  N   UNL     1      -0.979   2.151  25.911  0.00  0.00    -0.059 NA
ATOM     14  O   UNL     1      -0.749   1.362  25.835  0.00  0.00    -0.336 OA
ATOM     15  C   UNL     1      -0.991   1.096  25.092  0.00  0.00    +0.251 A 
ATOM     16  N   UNL     1      -1.371   1.721  24.709  0.00  0.00    -0.192 NA
ENDROOT
BRANCH  15  17
ATOM     17  C   UNL     1      -0.874   0.340  24.786  0.00  0.00    +0.140 C 
ATOM     18  C   UNL     1      -0.199   0.075  24.391  0.00  0.00    +0.060 C 
ATOM     19  C   UNL     1      -0.318  -0.713  24.181  0.00  0.00    +0.170 C 
ATOM     20  O   UNL     1       0.217  -1.194  23.777  0.00  0.00    -0.222 OA
ATOM     21  C   UNL     1      -1.067  -0.937  24.446  0.00  0.00    +0.106 C 
ATOM     22  N   UNL     1      -1.410  -0.286  24.820  0.00  0.00    -0.260 NA
BRANCH  22  23
ATOM     23  C   UNL     1      -2.159  -0.265  25.166  0.00  0.00    +0.100 C 
BRANCH  23  24
ATOM     24  C   UNL     1      -2.746  -0.784  24.911  0.00  0.00    -0.006 A 
ATOM     25  C   UNL     1      -3.248  -0.567  24.293  0.00  0.00    -0.001 A 
ATOM     26  C   UNL     1      -3.837  -1.086  24.037  0.00  0.00    +0.029 A 
ATOM     27  C   UNL     1      -3.923  -1.822  24.400  0.00  0.00    +0.140 A 
ATOM     28  F   UNL     1      -4.511  -2.341  24.144  0.00  0.00    -0.204 F 
ATOM     29  C   UNL     1      -3.421  -2.039  25.017  0.00  0.00    +0.029 A 
ATOM     30  C   UNL     1      -2.833  -1.521  25.273  0.00  0.00    -0.001 A 
ENDBRANCH  23  24
ENDBRANCH  22  23
ENDBRANCH  15  17
BRANCH  12  11
ATOM     11  C   UNL     1      -1.685   3.115  25.054  0.00  0.00    +0.224 C 
BRANCH  11   8
ATOM      8  S   UNL     1      -2.496   3.241  25.141  0.00  0.00    +0.016 S 
ATOM      9  O   UNL     1      -2.596   3.154  24.327  0.00  0.00    -0.168 OA
ATOM     10  O   UNL     1      -2.395   3.329  25.955  0.00  0.00    -0.168 OA
BRANCH   8   5
ATOM      1  C   UNL     1      -5.738   3.747  25.488  0.00  0.00    +0.031 C 
ATOM      2  C   UNL     1      -4.928   3.620  25.401  0.00  0.00    -0.022 A 
ATOM      3  C   UNL     1      -4.642   3.213  24.744  0.00  0.00    -0.003 A 
ATOM      4  C   UNL     1      -3.831   3.086  24.657  0.00  0.00    +0.018 A 
ATOM      5  C   UNL     1      -3.306   3.367  25.228  0.00  0.00    +0.106 A 
ATOM      6  C   UNL     1      -3.592   3.776  25.886  0.00  0.00    +0.018 A 
ATOM      7  C   UNL     1      -4.403   3.902  25.972  0.00  0.00    -0.003 A 
ENDBRANCH   8   5
ENDBRANCH  11   8
ENDBRANCH  12  11
TORSDOF 6
ENDMDL
MODEL 5
REMARK VINA RESULT:     -11.7      1.665      4.128
REMARK  Name = 
REMARK  6 active torsions:
REMARK  status: ('A' for Active; 'I' for Inactive)
REMARK    1  A    between atoms: C_5  and  S_8
REMARK    2  A    between atoms: S_8  and  C_11
REMARK    3  A    between atoms: C_11  and  C_12
REMARK    4  A    between atoms: C_15  and  C_17
REMARK    5  A    between atoms: N_22  and  C_23
REMARK    6  A    between atoms: C_23  and  C_24
REMARK                            x       y       z     vdW  Elec       q    Type
REMARK                         _______ _______ _______ _____ _____    ______ ____
ROOT
ATOM     12  C   UNL     1      -1.124   0.345  25.145  0.00  0.00    +0.205 A 
ATOM     13  N   UNL     1      -1.196  -0.177  25.780  0.00  0.00    -0.059 NA
ATOM     14  O   UNL     1      -1.917  -0.571  25.705  0.00  0.00    -0.336 OA
ATOM     15  C   UNL     1      -2.290  -0.294  25.024  0.00  0.00    +0.251 A 
ATOM     16  N   UNL     1      -1.799   0.273  24.678  0.00  0.00    -0.192 NA
ENDROOT
BRANCH  15  17
ATOM     17  C   UNL     1      -3.024  -0.539  24.739  0.00  0.00    +0.140 C 
ATOM     18  C   UNL     1      -3.165  -1.206  24.273  0.00  0.00    +0.060 C 
ATOM     19  C   UNL     1      -3.973  -1.240  24.115  0.00  0.00    +0.170 C 
ATOM     20  O   UNL     1      -4.356  -1.818  23.668  0.00  0.00    -0.222 OA
ATOM     21  C   UNL     1      -4.333  -0.594  24.483  0.00  0.00    +0.106 C 
ATOM     22  N   UNL     1      -3.745  -0.161  24.869  0.00  0.00    -0.260 NA
BRANCH  22  23
ATOM     23  C   UNL     1      -3.860   0.528  25.306  0.00  0.00    +0.100 C 
BRANCH  23  24
ATOM     24  C   UNL     1      -4.518   1.004  25.162  0.00  0.00    -0.006 A 
ATOM     25  C   UNL     1      -5.225   0.864  25.563  0.00  0.00    -0.001 A 
ATOM     26  C   UNL     1      -5.883   1.341  25.419  0.00  0.00    +0.029 A 
ATOM     27  C   UNL     1      -5.834   1.957  24.872  0.00  0.00    +0.140 A 
ATOM     28  F   UNL     1      -6.492   2.433  24.728  0.00  0.00    -0.204 F 
ATOM     29  C   UNL     1      -5.127   2.097  24.471  0.00  0.00    +0.029 A 
ATOM     30  C   UNL     1      -4.469   1.621  24.616  0.00  0.00    -0.001 A 
ENDBRANCH  23  24
ENDBRANCH  22  23
ENDBRANCH  15  17
BRANCH  12  11
ATOM     11  C   UNL     1      -0.487   0.851  25.002  0.00  0.00    +0.224 C 
BRANCH  11   8
ATOM      8  S   UNL     1      -0.601   1.668  25.009  0.00  0.00    +0.016 S 
ATOM      9  O   UNL     1      -0.669   1.664  24.186  0.00  0.00    -0.168 OA
ATOM     10  O   UNL     1      -0.532   1.672  25.830  0.00  0.00    -0.168 OA
BRANCH   8   5
ATOM      1  C   UNL     1      -1.055   4.936  25.030  0.00  0.00    +0.031 C 
ATOM      2  C   UNL     1      -0.941   4.119  25.024  0.00  0.00    -0.022 A 
ATOM      3  C   UNL     1      -0.629   3.751  24.356  0.00  0.00    -0.003 A 
ATOM      4  C   UNL     1      -0.515   2.933  24.350  0.00  0.00    +0.018 A 
ATOM      5  C   UNL     1      -0.714   2.485  25.013  0.00  0.00    +0.106 A 
ATOM      6  C   UNL     1      -1.027   2.854  25.683  0.00  0.00    +0.018 A 
ATOM      7  C   UNL     1      -1.141   3.671  25.687  0.00  0.00    -0.003 A 
ENDBRANCH   8   5
ENDBRANCH  11   8
ENDBRANCH  12  11
TORSDOF 6
ENDMDL
