MODEL 1
REMARK VINA RESULT:     -13.0      0.000      0.000
REMARK  Name = 
REMARK  6 active torsions:
REMARK  status: ('A' for Active; 'I' for Inactive)
REMARK    1  A    between atoms: N_4  and  C_5
REMARK    2  A    between atoms: C_8  and  S_11
REMARK    3  A    between atoms: S_11  and  N_14
REMARK    4  A    between atoms: N_14  and  C_15
REMARK    5  A    between atoms: C_25  and  C_27
REMARK    6  A    between atoms: C_29  and  C_33
REMARK                            x       y       z     vdW  Elec       q    Type
REMARK                         _______ _______ _______ _____ _____    ______ ____
ROOT
ATOM     15  C   UNL     1      -1.477   0.471  24.432  0.00  0.00    +0.147 A 
ATOM     16  C   UNL     1      -1.191  -0.292  24.567  0.00  0.00    +0.024 A 
ATOM     17  C   UNL     1      -1.706  -0.888  24.812  0.00  0.00    +0.014 A 
ATOM     18  C   UNL     1      -2.507  -0.722  24.922  0.00  0.00    +0.041 A 
ATOM     19  C   UNL     1      -3.292  -1.129  25.170  0.00  0.00    +0.058 C 
ATOM     20  C   UNL     1      -3.551  -1.749  25.372  0.00  0.00    +0.011 C 
ATOM     21  C   UNL     1      -3.829  -0.996  25.238  0.00  0.00    +0.043 C 
ATOM     22  C   UNL     1      -4.349  -0.162  25.130  0.00  0.00    +0.096 C 
ATOM     23  N   UNL     1      -3.738   0.353  24.887  0.00  0.00    -0.276 N 
ATOM     24  C   UNL     1      -3.808  -0.332  25.070  0.00  0.00    +0.099 C 
ATOM     25  C   UNL     1      -3.371   1.052  24.645  0.00  0.00    +0.249 C 
ATOM     26  O   UNL     1      -2.560   1.060  24.491  0.00  0.00    -0.270 OA
ATOM     36  C   UNL     1      -3.014  -0.562  24.977  0.00  0.00    +0.110 C 
ATOM     37  N   UNL     1      -2.792   0.040  24.787  0.00  0.00    -0.298 N 
ATOM     38  C   UNL     1      -2.277   0.637  24.542  0.00  0.00    +0.277 A 
ATOM     39  O   UNL     1      -2.315   1.438  24.351  0.00  0.00    -0.266 OA
ENDROOT
BRANCH  25  27
ATOM     27  C   UNL     1      -3.815   1.742  24.558  0.00  0.00    +0.054 A 
ATOM     28  C   UNL     1      -4.004   2.197  25.219  0.00  0.00    +0.011 A 
ATOM     29  C   UNL     1      -4.448   2.887  25.132  0.00  0.00    +0.080 A 
ATOM     30  C   UNL     1      -4.702   3.122  24.383  0.00  0.00    +0.007 A 
ATOM     31  C   UNL     1      -4.513   2.667  23.721  0.00  0.00    +0.000 A 
ATOM     32  C   UNL     1      -4.069   1.977  23.809  0.00  0.00    +0.005 A 
BRANCH  29  33
ATOM     33  C   UNL     1      -4.637   3.342  25.793  0.00  0.00    +0.388 C 
ATOM     34  O   UNL     1      -5.392   3.295  26.124  0.00  0.00    -0.241 OA
ATOM     35  O   UNL     1      -4.073   3.844  26.124  0.00  0.00    -0.241 OA
ENDBRANCH  29  33
ENDBRANCH  25  27
BRANCH  15  14
ATOM     14  N   UNL     1      -0.962   1.066  24.188  0.00  0.00    -0.092 NA
BRANCH  14  11
ATOM     11  S   UNL     1      -0.220   0.871  23.884  0.00  0.00    +0.093 S 
ATOM     12  O   UNL     1      -0.540   0.842  23.124  0.00  0.00    -0.148 OA
ATOM     13  O   UNL     1       0.099   0.901  24.643  0.00  0.00    -0.148 OA
BRANCH  11   8
ATOM      5  C   UNL     1       2.004   0.288  22.969  0.00  0.00    +0.073 A 
ATOM      6  C   UNL     1       1.928   0.915  23.500  0.00  0.00    +0.018 A 
ATOM      7  C   UNL     1       1.187   1.109  23.805  0.00  0.00    +0.022 A 
ATOM      8  C   UNL     1       0.522   0.677  23.578  0.00  0.00    +0.127 A 
ATOM      9  C   UNL     1       0.598   0.050  23.047  0.00  0.00    +0.022 A 
ATOM     10  C   UNL     1       1.339  -0.145  22.743  0.00  0.00    +0.018 A 
BRANCH   5   4
ATOM      1  C   UNL     1       4.117   0.428  22.437  0.00  0.00    +0.097 C 
ATOM      2  C   UNL     1       3.375   0.622  22.742  0.00  0.00    +0.246 C 
ATOM      3  O   UNL     1       3.262   1.344  23.123  0.00  0.00    -0.273 OA
ATOM      4  N   UNL     1       2.746   0.094  22.665  0.00  0.00    -0.179 NA
ENDBRANCH   5   4
ENDBRANCH  11   8
ENDBRANCH  14  11
ENDBRANCH  15  14
TORSDOF 6
ENDMDL
MODEL 2
REMARK VINA RESULT:     -12.8      1.504      2.981
REMARK  Name = 
REMARK  6 active torsions:
REMARK  status: ('A' for Active; 'I' for Inactive)
REMARK    1  A    between atoms: N_4  and  C_5
REMARK    2  A    between atoms: C_8  and  S_11
REMARK    3  A    between atoms: S_11  and  N_14
REMARK    4  A    between atoms: N_14  and  C_15
REMARK    5  A    between atoms: C_25  and  C_27
REMARK    6  A    between atoms: C_29  and  C_33
REMARK                            x       y       z     vdW  Elec       q    Type
REMARK                         _______ _______ _______ _____ _____    ______ ____
ROOT
ATOM     15  C   UNL     1      -0.990   0.666  23.866  0.00  0.00    +0.147 A 
ATOM     16  C   UNL     1      -0.817   1.395  23.522  0.00  0.00    +0.024 A 
ATOM     17  C   UNL     1      -1.419   1.944  23.393  0.00  0.00    +0.014 A 
ATOM     18  C   UNL     1      -2.195   1.763  23.608  0.00  0.00    +0.041 A 
ATOM     19  C   UNL     1      -3.040   2.124  23.603  0.00  0.00    +0.058 C 
ATOM     20  C   UNL     1      -3.390   2.703  23.416  0.00  0.00    +0.011 C 
ATOM     21  C   UNL     1      -3.557   1.982  23.756  0.00  0.00    +0.043 C 
ATOM     22  C   UNL     1      -3.953   1.178  24.172  0.00  0.00    +0.096 C 
ATOM     23  N   UNL     1      -3.266   0.709  24.252  0.00  0.00    -0.276 N 
ATOM     24  C   UNL     1      -3.438   1.355  24.005  0.00  0.00    +0.099 C 
ATOM     25  C   UNL     1      -2.797   0.059  24.448  0.00  0.00    +0.249 C 
ATOM     26  O   UNL     1      -1.985   0.076  24.297  0.00  0.00    -0.270 OA
ATOM     36  C   UNL     1      -2.678   1.596  23.766  0.00  0.00    +0.110 C 
ATOM     37  N   UNL     1      -2.368   1.033  23.953  0.00  0.00    -0.298 N 
ATOM     38  C   UNL     1      -1.765   0.485  24.082  0.00  0.00    +0.277 A 
ATOM     39  O   UNL     1      -1.684  -0.274  24.394  0.00  0.00    -0.266 OA
ENDROOT
BRANCH  25  27
ATOM     27  C   UNL     1      -3.138  -0.606  24.795  0.00  0.00    +0.054 A 
ATOM     28  C   UNL     1      -3.380  -1.239  24.325  0.00  0.00    +0.011 A 
ATOM     29  C   UNL     1      -3.722  -1.905  24.673  0.00  0.00    +0.080 A 
ATOM     30  C   UNL     1      -3.821  -1.938  25.491  0.00  0.00    +0.007 A 
ATOM     31  C   UNL     1      -3.579  -1.306  25.962  0.00  0.00    +0.000 A 
ATOM     32  C   UNL     1      -3.237  -0.640  25.614  0.00  0.00    +0.005 A 
BRANCH  29  33
ATOM     33  C   UNL     1      -3.964  -2.537  24.202  0.00  0.00    +0.388 C 
ATOM     34  O   UNL     1      -4.563  -2.430  23.644  0.00  0.00    -0.241 OA
ATOM     35  O   UNL     1      -3.609  -3.276  24.287  0.00  0.00    -0.241 OA
ENDBRANCH  29  33
ENDBRANCH  25  27
BRANCH  15  14
ATOM     14  N   UNL     1      -0.387   0.118  23.995  0.00  0.00    -0.092 NA
BRANCH  14  11
ATOM     11  S   UNL     1       0.366   0.252  23.685  0.00  0.00    +0.093 S 
ATOM     12  O   UNL     1       0.178  -0.211  23.029  0.00  0.00    -0.148 OA
ATOM     13  O   UNL     1       0.553   0.715  24.342  0.00  0.00    -0.148 OA
BRANCH  11   8
ATOM      5  C   UNL     1       2.623   0.652  22.753  0.00  0.00    +0.073 A 
ATOM      6  C   UNL     1       2.164   0.029  22.468  0.00  0.00    +0.018 A 
ATOM      7  C   UNL     1       1.411  -0.104  22.778  0.00  0.00    +0.022 A 
ATOM      8  C   UNL     1       1.119   0.386  23.375  0.00  0.00    +0.127 A 
ATOM      9  C   UNL     1       1.578   1.008  23.660  0.00  0.00    +0.022 A 
ATOM     10  C   UNL     1       2.331   1.141  23.350  0.00  0.00    +0.018 A 
BRANCH   5   4
ATOM      1  C   UNL     1       4.784   0.539  22.462  0.00  0.00    +0.097 C 
ATOM      2  C   UNL     1       4.030   0.406  22.772  0.00  0.00    +0.246 C 
ATOM      3  O   UNL     1       3.933  -0.105  23.411  0.00  0.00    -0.273 OA
ATOM      4  N   UNL     1       3.376   0.785  22.443  0.00  0.00    -0.179 NA
ENDBRANCH   5   4
ENDBRANCH  11   8
ENDBRANCH  14  11
ENDBRANCH  15  14
TORSDOF 6
ENDMDL
MODEL 3
REMARK VINA RESULT:     -12.3      2.692      4.758
REMARK  Name = 
REMARK  6 active torsions:
REMARK  status: ('A' for Active; 'I' for Inactive)
REMARK    1  A    between atoms: N_4  and  C_5
REMARK    2  A    between atoms: C_8  and  S_11
REMARK    3  A    between atoms: S_11  and  N_14
REMARK    4  A    between atoms: N_14  and  C_15
REMARK    5  A    between atoms: C_25  and  C_27
REMARK    6  A    between atoms: C_29  and  C_33
REMARK                            x       y       z     vdW  Elec       q    Type
REMARK                         _______ _______ _______ _____ _____    ______ ____
ROOT
ATOM     15  C   UNL     1      -3.694   1.737  24.367  0.00  0.00    +0.147 A 
ATOM     16  C   UNL     1      -4.513   1.642  24.396  0.00  0.00    +0.024 A 
ATOM     17  C   UNL     1      -4.980   2.204  24.779  0.00  0.00    +0.014 A 
ATOM     18  C   UNL     1      -4.628   2.861  25.133  0.00  0.00    +0.041 A 
ATOM     19  C   UNL     1      -4.845   3.619  25.606  0.00  0.00    +0.058 C 
ATOM     20  C   UNL     1      -5.396   3.965  25.869  0.00  0.00    +0.011 C 
ATOM     21  C   UNL     1      -4.587   4.055  25.839  0.00  0.00    +0.043 C 
ATOM     22  C   UNL     1      -3.642   4.337  25.908  0.00  0.00    +0.096 C 
ATOM     23  N   UNL     1      -3.278   3.708  25.496  0.00  0.00    -0.276 N 
ATOM     24  C   UNL     1      -3.937   3.905  25.682  0.00  0.00    +0.099 C 
ATOM     25  C   UNL     1      -2.675   3.253  25.163  0.00  0.00    +0.249 C 
ATOM     26  O   UNL     1      -2.858   2.553  24.766  0.00  0.00    -0.270 OA
ATOM     36  C   UNL     1      -4.351   3.266  25.345  0.00  0.00    +0.110 C 
ATOM     37  N   UNL     1      -3.809   2.956  25.104  0.00  0.00    -0.298 N 
ATOM     38  C   UNL     1      -3.342   2.394  24.721  0.00  0.00    +0.277 A 
ATOM     39  O   UNL     1      -2.543   2.267  24.563  0.00  0.00    -0.266 OA
ENDROOT
BRANCH  25  27
ATOM     27  C   UNL     1      -1.890   3.498  25.227  0.00  0.00    +0.054 A 
ATOM     28  C   UNL     1      -1.344   3.032  25.632  0.00  0.00    +0.011 A 
ATOM     29  C   UNL     1      -0.558   3.278  25.697  0.00  0.00    +0.080 A 
ATOM     30  C   UNL     1      -0.320   3.990  25.355  0.00  0.00    +0.007 A 
ATOM     31  C   UNL     1      -0.866   4.456  24.950  0.00  0.00    +0.000 A 
ATOM     32  C   UNL     1      -1.651   4.211  24.886  0.00  0.00    +0.005 A 
BRANCH  29  33
ATOM     33  C   UNL     1      -0.013   2.811  26.102  0.00  0.00    +0.388 C 
ATOM     34  O   UNL     1       0.598   2.438  25.690  0.00  0.00    -0.241 OA
ATOM     35  O   UNL     1      -0.076   2.716  26.919  0.00  0.00    -0.241 OA
ENDBRANCH  29  33
ENDBRANCH  25  27
BRANCH  15  14
ATOM     14  N   UNL     1      -3.228   1.175  23.985  0.00  0.00    -0.092 NA
BRANCH  14  11
ATOM     11  S   UNL     1      -3.399   0.372  24.065  0.00  0.00    +0.093 S 
ATOM     12  O   UNL     1      -2.877   0.324  24.702  0.00  0.00    -0.148 OA
ATOM     13  O   UNL     1      -3.922   0.420  23.429  0.00  0.00    -0.148 OA
BRANCH  11   8
ATOM      5  C   UNL     1      -3.913  -2.037  24.309  0.00  0.00    +0.073 A 
ATOM      6  C   UNL     1      -3.616  -1.611  24.950  0.00  0.00    +0.018 A 
ATOM      7  C   UNL     1      -3.445  -0.809  24.869  0.00  0.00    +0.022 A 
ATOM      8  C   UNL     1      -3.571  -0.431  24.146  0.00  0.00    +0.127 A 
ATOM      9  C   UNL     1      -3.868  -0.857  23.505  0.00  0.00    +0.022 A 
ATOM     10  C   UNL     1      -4.039  -1.659  23.586  0.00  0.00    +0.018 A 
BRANCH   5   4
ATOM      1  C   UNL     1      -3.650  -4.201  24.417  0.00  0.00    +0.097 C 
ATOM      2  C   UNL     1      -3.479  -3.397  24.336  0.00  0.00    +0.246 C 
ATOM      3  O   UNL     1      -2.704  -3.153  24.200  0.00  0.00    -0.273 OA
ATOM      4  N   UNL     1      -4.084  -2.839  24.390  0.00  0.00    -0.179 NA
ENDBRANCH   5   4
ENDBRANCH  11   8
ENDBRANCH  14  11
ENDBRANCH  15  14
TORSDOF 6
ENDMDL
MODEL 4
REMARK VINA RESULT:     -12.1      1.763      2.774
REMARK  Name = 
REMARK  6 active torsions:
REMARK  status: ('A' for Active; 'I' for Inactive)
REMARK    1  A    between atoms: N_4  and  C_5
REMARK    2  A    between atoms: C_8  and  S_11
REMARK    3  A    between atoms: S_11  and  N_14
REMARK    4  A    between atoms: N_14  and  C_15
REMARK    5  A    between atoms: C_25  and  C_27
REMARK    6  A    between atoms: C_29  and  C_33
REMARK                            x       y       z     vdW  Elec       q    Type
REMARK                         _______ _______ _______ _____ _____    ______ ____
ROOT
ATOM     15  C   UNL     1      -1.586   2.019  24.920  0.00  0.00    +0.147 A 
ATOM     16  C   UNL     1      -0.878   2.429  25.024  0.00  0.00    +0.024 A 
ATOM     17  C   UNL     1      -0.890   3.237  25.191  0.00  0.00    +0.014 A 
ATOM     18  C   UNL     1      -1.610   3.634  25.254  0.00  0.00    +0.041 A 
ATOM     19  C   UNL     1      -1.951   4.471  25.419  0.00  0.00    +0.058 C 
ATOM     20  C   UNL     1      -1.752   5.129  25.561  0.00  0.00    +0.011 C 
ATOM     21  C   UNL     1      -2.449   4.720  25.458  0.00  0.00    +0.043 C 
ATOM     22  C   UNL     1      -3.382   4.408  25.369  0.00  0.00    +0.096 C 
ATOM     23  N   UNL     1      -3.244   3.600  25.205  0.00  0.00    -0.276 N 
ATOM     24  C   UNL     1      -2.858   4.185  25.336  0.00  0.00    +0.099 C 
ATOM     25  C   UNL     1      -3.411   2.810  25.036  0.00  0.00    +0.249 C 
ATOM     26  O   UNL     1      -2.794   2.269  24.940  0.00  0.00    -0.270 OA
ATOM     36  C   UNL     1      -2.101   3.842  25.285  0.00  0.00    +0.110 C 
ATOM     37  N   UNL     1      -2.318   3.223  25.151  0.00  0.00    -0.298 N 
ATOM     38  C   UNL     1      -2.306   2.415  24.984  0.00  0.00    +0.277 A 
ATOM     39  O   UNL     1      -2.848   1.810  24.844  0.00  0.00    -0.266 OA
ENDROOT
BRANCH  25  27
ATOM     27  C   UNL     1      -4.193   2.560  24.964  0.00  0.00    +0.054 A 
ATOM     28  C   UNL     1      -4.655   2.448  25.638  0.00  0.00    +0.011 A 
ATOM     29  C   UNL     1      -5.438   2.198  25.566  0.00  0.00    +0.080 A 
ATOM     30  C   UNL     1      -5.759   2.060  24.818  0.00  0.00    +0.007 A 
ATOM     31  C   UNL     1      -5.298   2.172  24.144  0.00  0.00    +0.000 A 
ATOM     32  C   UNL     1      -4.515   2.422  24.216  0.00  0.00    +0.005 A 
BRANCH  29  33
ATOM     33  C   UNL     1      -5.899   2.086  26.240  0.00  0.00    +0.388 C 
ATOM     34  O   UNL     1      -6.178   1.332  26.429  0.00  0.00    -0.241 OA
ATOM     35  O   UNL     1      -6.083   2.727  26.726  0.00  0.00    -0.241 OA
ENDBRANCH  29  33
ENDBRANCH  25  27
BRANCH  15  14
ATOM     14  N   UNL     1      -1.573   1.211  24.753  0.00  0.00    -0.092 NA
BRANCH  14  11
ATOM     11  S   UNL     1      -0.936   0.885  24.343  0.00  0.00    +0.093 S 
ATOM     12  O   UNL     1      -1.304   1.064  23.627  0.00  0.00    -0.148 OA
ATOM     13  O   UNL     1      -0.567   0.705  25.059  0.00  0.00    -0.148 OA
BRANCH  11   8
ATOM      5  C   UNL     1       0.975  -0.094  23.111  0.00  0.00    +0.073 A 
ATOM      6  C   UNL     1       0.592   0.574  22.815  0.00  0.00    +0.018 A 
ATOM      7  C   UNL     1      -0.044   0.900  23.226  0.00  0.00    +0.022 A 
ATOM      8  C   UNL     1      -0.298   0.558  23.932  0.00  0.00    +0.127 A 
ATOM      9  C   UNL     1       0.084  -0.111  24.228  0.00  0.00    +0.022 A 
ATOM     10  C   UNL     1       0.720  -0.437  23.817  0.00  0.00    +0.018 A 
BRANCH   5   4
ATOM      1  C   UNL     1       2.969  -0.344  22.258  0.00  0.00    +0.097 C 
ATOM      2  C   UNL     1       2.331  -0.018  22.669  0.00  0.00    +0.246 C 
ATOM      3  O   UNL     1       2.414   0.709  23.048  0.00  0.00    -0.273 OA
ATOM      4  N   UNL     1       1.611  -0.420  22.700  0.00  0.00    -0.179 NA
ENDBRANCH   5   4
ENDBRANCH  11   8
ENDBRANCH  14  11
ENDBRANCH  15  14
TORSDOF 6
ENDMDL
MODEL 5
REMARK VINA RESULT:     -11.5      1.451      5.540
REMARK  Name = 
REMARK  6 active torsions:
REMARK  status: ('A' for Active; 'I' for Inactive)
REMARK    1  A    between atoms: N_4  and  C_5
REMARK    2  A    between atoms: C_8  and  S_11
REMARK    3  A    between atoms: S_11  and  N_14
REMARK    4  A    between atoms: N_14  and  C_15
REMARK    5  A    between atoms: C_25  and  C_27
REMARK    6  A    between atoms: C_29  and  C_33
REMARK                            x       y       z     vdW  Elec       q    Type
REMARK                         _______ _______ _______ _____ _____    ______ ____
ROOT
ATOM     15  C   UNL     1      -1.273   0.961  24.397  0.00  0.00    +0.147 A 
ATOM     16  C   UNL     1      -1.796   0.746  24.998  0.00  0.00    +0.024 A 
ATOM     17  C   UNL     1      -1.731   0.006  25.356  0.00  0.00    +0.014 A 
ATOM     18  C   UNL     1      -1.144  -0.520  25.113  0.00  0.00    +0.041 A 
ATOM     19  C   UNL     1      -0.822  -1.362  25.291  0.00  0.00    +0.058 C 
ATOM     20  C   UNL     1      -0.932  -1.917  25.705  0.00  0.00    +0.011 C 
ATOM     21  C   UNL     1      -0.418  -1.702  25.112  0.00  0.00    +0.043 C 
ATOM     22  C   UNL     1       0.287  -1.628  24.423  0.00  0.00    +0.096 C 
ATOM     23  N   UNL     1       0.125  -0.859  24.139  0.00  0.00    -0.276 N 
ATOM     24  C   UNL     1      -0.135  -1.306  24.629  0.00  0.00    +0.099 C 
ATOM     25  C   UNL     1       0.201  -0.175  23.683  0.00  0.00    +0.249 C 
ATOM     26  O   UNL     1      -0.316   0.458  23.801  0.00  0.00    -0.270 OA
ATOM     36  C   UNL     1      -0.748  -0.821  24.918  0.00  0.00    +0.110 C 
ATOM     37  N   UNL     1      -0.621  -0.305  24.511  0.00  0.00    -0.298 N 
ATOM     38  C   UNL     1      -0.686   0.435  24.154  0.00  0.00    +0.277 A 
ATOM     39  O   UNL     1      -0.305   0.865  23.562  0.00  0.00    -0.266 OA
ENDROOT
BRANCH  25  27
ATOM     27  C   UNL     1       0.793  -0.124  23.111  0.00  0.00    +0.054 A 
ATOM     28  C   UNL     1       1.542   0.154  23.316  0.00  0.00    +0.011 A 
ATOM     29  C   UNL     1       2.134   0.205  22.743  0.00  0.00    +0.080 A 
ATOM     30  C   UNL     1       1.976  -0.022  21.966  0.00  0.00    +0.007 A 
ATOM     31  C   UNL     1       1.228  -0.300  21.761  0.00  0.00    +0.000 A 
ATOM     32  C   UNL     1       0.635  -0.351  22.334  0.00  0.00    +0.005 A 
BRANCH  29  33
ATOM     33  C   UNL     1       2.882   0.482  22.948  0.00  0.00    +0.388 C 
ATOM     34  O   UNL     1       3.003   1.290  23.072  0.00  0.00    -0.241 OA
ATOM     35  O   UNL     1       3.511  -0.045  23.031  0.00  0.00    -0.241 OA
ENDBRANCH  29  33
ENDBRANCH  25  27
BRANCH  15  14
ATOM     14  N   UNL     1      -1.338   1.701  24.039  0.00  0.00    -0.092 NA
BRANCH  14  11
ATOM     11  S   UNL     1      -1.985   2.185  24.207  0.00  0.00    +0.093 S 
ATOM     12  O   UNL     1      -2.400   1.847  23.580  0.00  0.00    -0.148 OA
ATOM     13  O   UNL     1      -1.570   2.523  24.834  0.00  0.00    -0.148 OA
BRANCH  11   8
ATOM      5  C   UNL     1      -3.927   3.635  24.707  0.00  0.00    +0.073 A 
ATOM      6  C   UNL     1      -3.964   3.098  24.082  0.00  0.00    +0.018 A 
ATOM      7  C   UNL     1      -3.317   2.614  23.916  0.00  0.00    +0.022 A 
ATOM      8  C   UNL     1      -2.633   2.669  24.374  0.00  0.00    +0.127 A 
ATOM      9  C   UNL     1      -2.596   3.207  24.998  0.00  0.00    +0.022 A 
ATOM     10  C   UNL     1      -3.243   3.690  25.165  0.00  0.00    +0.018 A 
BRANCH   5   4
ATOM      1  C   UNL     1      -5.813   4.338  25.553  0.00  0.00    +0.097 C 
ATOM      2  C   UNL     1      -5.165   3.855  25.386  0.00  0.00    +0.246 C 
ATOM      3  O   UNL     1      -5.108   3.109  25.731  0.00  0.00    -0.273 OA
ATOM      4  N   UNL     1      -4.574   4.119  24.873  0.00  0.00    -0.179 NA
ENDBRANCH   5   4
ENDBRANCH  11   8
ENDBRANCH  14  11
ENDBRANCH  15  14
TORSDOF 6
ENDMDL
