MODEL 1
REMARK VINA RESULT:      -9.0      0.000      0.000
REMARK  Name = 
REMARK  8 active torsions:
REMARK  status: ('A' for Active; 'I' for Inactive)
REMARK    1  A    between atoms: O_2  and  C_3
REMARK    2  A    between atoms: C_3  and  C_4
REMARK    3  A    between atoms: C_4  and  N_5
REMARK    4  A    between atoms: N_5  and  C_6
REMARK    5  A    between atoms: C_9  and  C_12
REMARK    6  A    between atoms: C_15  and  C_17
REMARK    7  A    between atoms: N_21  and  C_22
REMARK    8  A    between atoms: C_22  and  C_23
REMARK                            x       y       z     vdW  Elec       q    Type
REMARK                         _______ _______ _______ _____ _____    ______ ____
ROOT
ATOM     12  C   UNL     1      -1.005   0.045  24.480  0.00  0.00    +0.205 A 
ATOM     13  N   UNL     1      -1.042  -0.041  25.300  0.00  0.00    -0.056 NA
ATOM     14  O   UNL     1      -1.837  -0.027  25.522  0.00  0.00    -0.336 OA
ATOM     15  C   UNL     1      -2.291   0.067  24.839  0.00  0.00    +0.251 A 
ATOM     16  N   UNL     1      -1.776   0.112  24.195  0.00  0.00    -0.190 NA
ENDROOT
BRANCH  12   9
ATOM      6  C   UNL     1       1.060   0.094  23.116  0.00  0.00    +0.148 A 
ATOM      7  C   UNL     1       0.696   0.800  23.340  0.00  0.00    +0.036 A 
ATOM      8  C   UNL     1       0.008   0.784  23.795  0.00  0.00    +0.008 A 
ATOM      9  C   UNL     1      -0.317   0.061  24.025  0.00  0.00    +0.058 A 
ATOM     10  C   UNL     1       0.046  -0.644  23.802  0.00  0.00    +0.103 A 
ATOM     11  N   UNL     1       0.734  -0.628  23.347  0.00  0.00    -0.228 NA
BRANCH   6   5
ATOM      5  N   UNL     1       1.748   0.110  22.661  0.00  0.00    -0.218 NA
BRANCH   5   4
ATOM      4  C   UNL     1       2.439   0.435  22.972  0.00  0.00    +0.146 C 
BRANCH   4   3
ATOM      3  C   UNL     1       3.152   0.354  22.564  0.00  0.00    +0.166 C 
BRANCH   3   2
ATOM      1  C   UNL     1       4.535   0.468  22.909  0.00  0.00    +0.174 C 
ATOM      2  O   UNL     1       3.801   0.820  22.771  0.00  0.00    -0.349 OA
ENDBRANCH   3   2
ENDBRANCH   4   3
ENDBRANCH   5   4
ENDBRANCH   6   5
ENDBRANCH  12   9
BRANCH  15  17
ATOM     17  C   UNL     1      -3.114   0.110  24.805  0.00  0.00    +0.138 C 
ATOM     18  C   UNL     1      -3.628  -0.528  24.710  0.00  0.00    +0.027 C 
ATOM     19  C   UNL     1      -4.400  -0.235  24.706  0.00  0.00    +0.019 C 
ATOM     20  C   UNL     1      -4.362   0.584  24.800  0.00  0.00    +0.073 C 
ATOM     21  N   UNL     1      -3.567   0.797  24.861  0.00  0.00    -0.263 NA
BRANCH  21  22
ATOM     22  C   UNL     1      -3.277   1.562  24.961  0.00  0.00    +0.099 C 
BRANCH  22  23
ATOM     23  C   UNL     1      -3.772   2.210  24.841  0.00  0.00    -0.006 A 
ATOM     24  C   UNL     1      -4.243   2.490  25.459  0.00  0.00    -0.003 A 
ATOM     25  C   UNL     1      -4.738   3.138  25.340  0.00  0.00    -0.000 A 
ATOM     26  C   UNL     1      -4.764   3.507  24.603  0.00  0.00    -0.000 A 
ATOM     27  C   UNL     1      -4.295   3.228  23.984  0.00  0.00    -0.000 A 
ATOM     28  C   UNL     1      -3.798   2.579  24.104  0.00  0.00    -0.003 A 
ENDBRANCH  22  23
ENDBRANCH  21  22
ENDBRANCH  15  17
TORSDOF 8
ENDMDL
MODEL 2
REMARK VINA RESULT:      -8.4      2.443      3.904
REMARK  Name = 
REMARK  8 active torsions:
REMARK  status: ('A' for Active; 'I' for Inactive)
REMARK    1  A    between atoms: O_2  and  C_3
REMARK    2  A    between atoms: C_3  and  C_4
REMARK    3  A    between atoms: C_4  and  N_5
REMARK    4  A    between atoms: N_5  and  C_6
REMARK    5  A    between atoms: C_9  and  C_12
REMARK    6  A    between atoms: C_15  and  C_17
REMARK    7  A    between atoms: N_21  and  C_22
REMARK    8  A    between atoms: C_22  and  C_23
REMARK                            x       y       z     vdW  Elec       q    Type
REMARK                         _______ _______ _______ _____ _____    ______ ____
ROOT
ATOM     12  C   UNL     1      -0.588   1.676  25.355  0.00  0.00    +0.205 A 
ATOM     13  N   UNL     1       0.046   2.009  25.766  0.00  0.00    -0.056 NA
ATOM     14  O   UNL     1      -0.067   2.826  25.789  0.00  0.00    -0.336 OA
ATOM     15  C   UNL     1      -0.769   2.998  25.393  0.00  0.00    +0.251 A 
ATOM     16  N   UNL     1      -1.091   2.287  25.124  0.00  0.00    -0.190 NA
ENDROOT
BRANCH  12   9
ATOM      6  C   UNL     1      -0.919  -0.734  24.897  0.00  0.00    +0.148 A 
ATOM      7  C   UNL     1      -1.143  -0.417  25.625  0.00  0.00    +0.036 A 
ATOM      8  C   UNL     1      -1.033   0.386  25.778  0.00  0.00    +0.008 A 
ATOM      9  C   UNL     1      -0.698   0.873  25.202  0.00  0.00    +0.058 A 
ATOM     10  C   UNL     1      -0.474   0.557  24.474  0.00  0.00    +0.103 A 
ATOM     11  N   UNL     1      -0.584  -0.246  24.322  0.00  0.00    -0.228 NA
BRANCH   6   5
ATOM      5  N   UNL     1      -1.029  -1.537  24.744  0.00  0.00    -0.218 NA
BRANCH   5   4
ATOM      4  C   UNL     1      -1.740  -1.801  24.420  0.00  0.00    +0.146 C 
BRANCH   4   3
ATOM      3  C   UNL     1      -1.963  -2.590  24.505  0.00  0.00    +0.166 C 
BRANCH   3   2
ATOM      1  C   UNL     1      -3.317  -3.051  24.512  0.00  0.00    +0.174 C 
ATOM      2  O   UNL     1      -2.623  -2.879  24.101  0.00  0.00    -0.349 OA
ENDBRANCH   3   2
ENDBRANCH   4   3
ENDBRANCH   5   4
ENDBRANCH   6   5
ENDBRANCH  12   9
BRANCH  15  17
ATOM     17  C   UNL     1      -1.093   3.749  25.283  0.00  0.00    +0.138 C 
ATOM     18  C   UNL     1      -0.696   4.410  24.990  0.00  0.00    +0.027 C 
ATOM     19  C   UNL     1      -1.229   5.040  24.973  0.00  0.00    +0.019 C 
ATOM     20  C   UNL     1      -1.954   4.769  25.256  0.00  0.00    +0.073 C 
ATOM     21  N   UNL     1      -1.871   3.970  25.447  0.00  0.00    -0.263 NA
BRANCH  21  22
ATOM     22  C   UNL     1      -2.461   3.480  25.750  0.00  0.00    +0.099 C 
BRANCH  22  23
ATOM     23  C   UNL     1      -3.253   3.638  25.585  0.00  0.00    -0.006 A 
ATOM     24  C   UNL     1      -3.573   3.424  24.855  0.00  0.00    -0.003 A 
ATOM     25  C   UNL     1      -4.365   3.581  24.690  0.00  0.00    -0.000 A 
ATOM     26  C   UNL     1      -4.839   3.953  25.254  0.00  0.00    -0.000 A 
ATOM     27  C   UNL     1      -4.520   4.167  25.984  0.00  0.00    -0.000 A 
ATOM     28  C   UNL     1      -3.726   4.009  26.149  0.00  0.00    -0.003 A 
ENDBRANCH  22  23
ENDBRANCH  21  22
ENDBRANCH  15  17
TORSDOF 8
ENDMDL
MODEL 3
REMARK VINA RESULT:      -8.3      1.481      2.695
REMARK  Name = 
REMARK  8 active torsions:
REMARK  status: ('A' for Active; 'I' for Inactive)
REMARK    1  A    between atoms: O_2  and  C_3
REMARK    2  A    between atoms: C_3  and  C_4
REMARK    3  A    between atoms: C_4  and  N_5
REMARK    4  A    between atoms: N_5  and  C_6
REMARK    5  A    between atoms: C_9  and  C_12
REMARK    6  A    between atoms: C_15  and  C_17
REMARK    7  A    between atoms: N_21  and  C_22
REMARK    8  A    between atoms: C_22  and  C_23
REMARK                            x       y       z     vdW  Elec       q    Type
REMARK                         _______ _______ _______ _____ _____    ______ ____
ROOT
ATOM     12  C   UNL     1      -0.096   0.916  23.988  0.00  0.00    +0.205 A 
ATOM     13  N   UNL     1      -0.241   1.304  24.703  0.00  0.00    -0.056 NA
ATOM     14  O   UNL     1      -1.055   1.295  24.837  0.00  0.00    -0.336 OA
ATOM     15  C   UNL     1      -1.414   0.903  24.206  0.00  0.00    +0.251 A 
ATOM     16  N   UNL     1      -0.821   0.668  23.682  0.00  0.00    -0.190 NA
ENDROOT
BRANCH  12   9
ATOM      6  C   UNL     1       2.122   0.560  22.950  0.00  0.00    +0.148 A 
ATOM      7  C   UNL     1       1.525  -0.002  22.853  0.00  0.00    +0.036 A 
ATOM      8  C   UNL     1       0.786   0.116  23.199  0.00  0.00    +0.008 A 
ATOM      9  C   UNL     1       0.643   0.797  23.642  0.00  0.00    +0.058 A 
ATOM     10  C   UNL     1       1.238   1.359  23.739  0.00  0.00    +0.103 A 
ATOM     11  N   UNL     1       1.978   1.240  23.393  0.00  0.00    -0.228 NA
BRANCH   6   5
ATOM      5  N   UNL     1       2.861   0.441  22.604  0.00  0.00    -0.218 NA
BRANCH   5   4
ATOM      4  C   UNL     1       3.547   0.580  23.040  0.00  0.00    +0.146 C 
BRANCH   4   3
ATOM      3  C   UNL     1       4.278   0.332  22.748  0.00  0.00    +0.166 C 
BRANCH   3   2
ATOM      1  C   UNL     1       5.477   0.013  23.458  0.00  0.00    +0.174 C 
ATOM      2  O   UNL     1       4.974   0.573  23.120  0.00  0.00    -0.349 OA
ENDBRANCH   3   2
ENDBRANCH   4   3
ENDBRANCH   5   4
ENDBRANCH   6   5
ENDBRANCH  12   9
BRANCH  15  17
ATOM     17  C   UNL     1      -2.222   0.768  24.115  0.00  0.00    +0.138 C 
ATOM     18  C   UNL     1      -2.754   1.259  23.719  0.00  0.00    +0.027 C 
ATOM     19  C   UNL     1      -3.502   0.913  23.763  0.00  0.00    +0.019 C 
ATOM     20  C   UNL     1      -3.432   0.208  24.186  0.00  0.00    +0.073 C 
ATOM     21  N   UNL     1      -2.641   0.118  24.403  0.00  0.00    -0.263 NA
BRANCH  21  22
ATOM     22  C   UNL     1      -2.325  -0.511  24.833  0.00  0.00    +0.099 C 
BRANCH  22  23
ATOM     23  C   UNL     1      -2.740  -1.221  24.890  0.00  0.00    -0.006 A 
ATOM     24  C   UNL     1      -3.241  -1.357  25.531  0.00  0.00    -0.003 A 
ATOM     25  C   UNL     1      -3.656  -2.067  25.588  0.00  0.00    -0.000 A 
ATOM     26  C   UNL     1      -3.570  -2.643  25.004  0.00  0.00    -0.000 A 
ATOM     27  C   UNL     1      -3.069  -2.508  24.362  0.00  0.00    -0.000 A 
ATOM     28  C   UNL     1      -2.654  -1.797  24.305  0.00  0.00    -0.003 A 
ENDBRANCH  22  23
ENDBRANCH  21  22
ENDBRANCH  15  17
TORSDOF 8
ENDMDL
MODEL 4
REMARK VINA RESULT:      -8.3      2.864      3.942
REMARK  Name = 
REMARK  8 active torsions:
REMARK  status: ('A' for Active; 'I' for Inactive)
REMARK    1  A    between atoms: O_2  and  C_3
REMARK    2  A    between atoms: C_3  and  C_4
REMARK    3  A    between atoms: C_4  and  N_5
REMARK    4  A    between atoms: N_5  and  C_6
REMARK    5  A    between atoms: C_9  and  C_12
REMARK    6  A    between atoms: C_15  and  C_17
REMARK    7  A    between atoms: N_21  and  C_22
REMARK    8  A    between atoms: C_22  and  C_23
REMARK                            x       y       z     vdW  Elec       q    Type
REMARK                         _______ _______ _______ _____ _____    ______ ____
ROOT
ATOM     12  C   UNL     1      -1.984   1.982  24.963  0.00  0.00    +0.205 A 
ATOM     13  N   UNL     1      -2.135   2.186  24.177  0.00  0.00    -0.056 NA
ATOM     14  O   UNL     1      -2.874   1.880  23.972  0.00  0.00    -0.336 OA
ATOM     15  C   UNL     1      -3.179   1.487  24.630  0.00  0.00    +0.251 A 
ATOM     16  N   UNL     1      -2.629   1.550  25.242  0.00  0.00    -0.190 NA
ENDROOT
BRANCH  12   9
ATOM      6  C   UNL     1       0.047   2.563  26.252  0.00  0.00    +0.148 A 
ATOM      7  C   UNL     1      -0.530   3.136  26.109  0.00  0.00    +0.036 A 
ATOM      8  C   UNL     1      -1.207   2.943  25.679  0.00  0.00    +0.008 A 
ATOM      9  C   UNL     1      -1.307   2.175  25.392  0.00  0.00    +0.058 A 
ATOM     10  C   UNL     1      -0.732   1.602  25.535  0.00  0.00    +0.103 A 
ATOM     11  N   UNL     1      -0.055   1.796  25.964  0.00  0.00    -0.228 NA
BRANCH   6   5
ATOM      5  N   UNL     1       0.724   2.756  26.681  0.00  0.00    -0.218 NA
BRANCH   5   4
ATOM      4  C   UNL     1       0.777   2.557  27.480  0.00  0.00    +0.146 C 
BRANCH   4   3
ATOM      3  C   UNL     1       1.469   2.714  27.899  0.00  0.00    +0.166 C 
BRANCH   3   2
ATOM      1  C   UNL     1       2.208   2.635  29.121  0.00  0.00    +0.174 C 
ATOM      2  O   UNL     1       1.488   2.613  28.718  0.00  0.00    -0.349 OA
ENDBRANCH   3   2
ENDBRANCH   4   3
ENDBRANCH   5   4
ENDBRANCH   6   5
ENDBRANCH  12   9
BRANCH  15  17
ATOM     17  C   UNL     1      -3.906   1.100  24.669  0.00  0.00    +0.138 C 
ATOM     18  C   UNL     1      -4.624   1.437  24.898  0.00  0.00    +0.027 C 
ATOM     19  C   UNL     1      -5.205   0.853  24.857  0.00  0.00    +0.019 C 
ATOM     20  C   UNL     1      -4.847   0.155  24.603  0.00  0.00    +0.073 C 
ATOM     21  N   UNL     1      -4.044   0.307  24.487  0.00  0.00    -0.263 NA
BRANCH  21  22
ATOM     22  C   UNL     1      -3.479  -0.237  24.233  0.00  0.00    +0.099 C 
BRANCH  22  23
ATOM     23  C   UNL     1      -3.625  -1.046  24.302  0.00  0.00    -0.006 A 
ATOM     24  C   UNL     1      -3.344  -1.462  24.957  0.00  0.00    -0.003 A 
ATOM     25  C   UNL     1      -3.490  -2.270  25.025  0.00  0.00    -0.000 A 
ATOM     26  C   UNL     1      -3.917  -2.664  24.440  0.00  0.00    -0.000 A 
ATOM     27  C   UNL     1      -4.199  -2.249  23.785  0.00  0.00    -0.000 A 
ATOM     28  C   UNL     1      -4.052  -1.439  23.716  0.00  0.00    -0.003 A 
ENDBRANCH  22  23
ENDBRANCH  21  22
ENDBRANCH  15  17
TORSDOF 8
ENDMDL
MODEL 5
REMARK VINA RESULT:      -8.1      3.409      4.745
REMARK  Name = 
REMARK  8 active torsions:
REMARK  status: ('A' for Active; 'I' for Inactive)
REMARK    1  A    between atoms: O_2  and  C_3
REMARK    2  A    between atoms: C_3  and  C_4
REMARK    3  A    between atoms: C_4  and  N_5
REMARK    4  A    between atoms: N_5  and  C_6
REMARK    5  A    between atoms: C_9  and  C_12
REMARK    6  A    between atoms: C_15  and  C_17
REMARK    7  A    between atoms: N_21  and  C_22
REMARK    8  A    between atoms: C_22  and  C_23
REMARK                            x       y       z     vdW  Elec       q    Type
REMARK                         _______ _______ _______ _____ _____    ______ ____
ROOT
ATOM     12  C   UNL     1      -4.272   1.663  24.686  0.00  0.00    +0.205 A 
ATOM     13  N   UNL     1      -4.766   2.187  24.282  0.00  0.00    -0.056 NA
ATOM     14  O   UNL     1      -4.654   2.940  24.600  0.00  0.00    -0.336 OA
ATOM     15  C   UNL     1      -4.092   2.882  25.202  0.00  0.00    +0.251 A 
ATOM     16  N   UNL     1      -3.857   2.093  25.255  0.00  0.00    -0.190 NA
ENDROOT
BRANCH  12   9
ATOM      6  C   UNL     1      -4.076  -0.768  24.267  0.00  0.00    +0.148 A 
ATOM      7  C   UNL     1      -4.450  -0.496  24.951  0.00  0.00    +0.036 A 
ATOM      8  C   UNL     1      -4.516   0.315  25.091  0.00  0.00    +0.008 A 
ATOM      9  C   UNL     1      -4.207   0.853  24.547  0.00  0.00    +0.058 A 
ATOM     10  C   UNL     1      -3.834   0.581  23.864  0.00  0.00    +0.103 A 
ATOM     11  N   UNL     1      -3.768  -0.229  23.724  0.00  0.00    -0.228 NA
BRANCH   6   5
ATOM      5  N   UNL     1      -4.011  -1.578  24.128  0.00  0.00    -0.218 NA
BRANCH   5   4
ATOM      4  C   UNL     1      -3.460  -2.026  24.547  0.00  0.00    +0.146 C 
BRANCH   4   3
ATOM      3  C   UNL     1      -3.120  -2.692  24.199  0.00  0.00    +0.166 C 
BRANCH   3   2
ATOM      1  C   UNL     1      -1.719  -2.910  24.380  0.00  0.00    +0.174 C 
ATOM      2  O   UNL     1      -2.500  -3.085  24.578  0.00  0.00    -0.349 OA
ENDBRANCH   3   2
ENDBRANCH   4   3
ENDBRANCH   5   4
ENDBRANCH   6   5
ENDBRANCH  12   9
BRANCH  15  17
ATOM     17  C   UNL     1      -3.815   3.503  25.668  0.00  0.00    +0.138 C 
ATOM     18  C   UNL     1      -4.166   3.783  26.361  0.00  0.00    +0.027 C 
ATOM     19  C   UNL     1      -3.705   4.407  26.645  0.00  0.00    +0.019 C 
ATOM     20  C   UNL     1      -3.071   4.511  26.129  0.00  0.00    +0.073 C 
ATOM     21  N   UNL     1      -3.138   3.953  25.525  0.00  0.00    -0.263 NA
BRANCH  21  22
ATOM     22  C   UNL     1      -2.620   3.861  24.890  0.00  0.00    +0.099 C 
BRANCH  22  23
ATOM     23  C   UNL     1      -1.866   4.192  24.921  0.00  0.00    -0.006 A 
ATOM     24  C   UNL     1      -1.214   3.719  25.098  0.00  0.00    -0.003 A 
ATOM     25  C   UNL     1      -0.460   4.050  25.129  0.00  0.00    -0.000 A 
ATOM     26  C   UNL     1      -0.357   4.856  24.983  0.00  0.00    -0.000 A 
ATOM     27  C   UNL     1      -1.008   5.330  24.807  0.00  0.00    -0.000 A 
ATOM     28  C   UNL     1      -1.763   4.998  24.776  0.00  0.00    -0.003 A 
ENDBRANCH  22  23
ENDBRANCH  21  22
ENDBRANCH  15  17
TORSDOF 8
ENDMDL
MODEL 6
REMARK VINA RESULT:      -8.0      1.478      2.257
REMARK  Name = 
REMARK  8 active torsions:
REMARK  status: ('A' for Active; 'I' for Inactive)
REMARK    1  A    between atoms: O_2  and  C_3
REMARK    2  A    between atoms: C_3  and  C_4
REMARK    3  A    between atoms: C_4  and  N_5
REMARK    4  A    between atoms: N_5  and  C_6
REMARK    5  A    between atoms: C_9  and  C_12
REMARK    6  A    between atoms: C_15  and  C_17
REMARK    7  A    between atoms: N_21  and  C_22
REMARK    8  A    between atoms: C_22  and  C_23
REMARK                            x       y       z     vdW  Elec       q    Type
REMARK                         _______ _______ _______ _____ _____    ______ ____
ROOT
ATOM     12  C   UNL     1      -1.079   2.009  24.811  0.00  0.00    +0.205 A 
ATOM     13  N   UNL     1      -1.140   2.090  25.630  0.00  0.00    -0.056 NA
ATOM     14  O   UNL     1      -1.780   2.585  25.791  0.00  0.00    -0.336 OA
ATOM     15  C   UNL     1      -2.115   2.809  25.071  0.00  0.00    +0.251 A 
ATOM     16  N   UNL     1      -1.681   2.453  24.466  0.00  0.00    -0.190 NA
ENDROOT
BRANCH  12   9
ATOM      6  C   UNL     1       0.615   0.668  23.604  0.00  0.00    +0.148 A 
ATOM      7  C   UNL     1      -0.146   0.368  23.716  0.00  0.00    +0.036 A 
ATOM      8  C   UNL     1      -0.710   0.815  24.118  0.00  0.00    +0.008 A 
ATOM      9  C   UNL     1      -0.514   1.562  24.409  0.00  0.00    +0.058 A 
ATOM     10  C   UNL     1       0.246   1.862  24.298  0.00  0.00    +0.103 A 
ATOM     11  N   UNL     1       0.811   1.415  23.895  0.00  0.00    -0.228 NA
BRANCH   6   5
ATOM      5  N   UNL     1       1.180   0.221  23.202  0.00  0.00    -0.218 NA
BRANCH   5   4
ATOM      4  C   UNL     1       1.930   0.533  23.063  0.00  0.00    +0.146 C 
BRANCH   4   3
ATOM      3  C   UNL     1       2.502   0.078  22.679  0.00  0.00    +0.166 C 
BRANCH   3   2
ATOM      1  C   UNL     1       3.880   0.437  22.550  0.00  0.00    +0.174 C 
ATOM      2  O   UNL     1       3.109   0.447  22.257  0.00  0.00    -0.349 OA
ENDBRANCH   3   2
ENDBRANCH   4   3
ENDBRANCH   5   4
ENDBRANCH   6   5
ENDBRANCH  12   9
BRANCH  15  17
ATOM     17  C   UNL     1      -2.769   3.303  24.973  0.00  0.00    +0.138 C 
ATOM     18  C   UNL     1      -2.746   4.104  24.777  0.00  0.00    +0.027 C 
ATOM     19  C   UNL     1      -3.524   4.379  24.737  0.00  0.00    +0.019 C 
ATOM     20  C   UNL     1      -4.026   3.748  24.908  0.00  0.00    +0.073 C 
ATOM     21  N   UNL     1      -3.560   3.082  25.054  0.00  0.00    -0.263 NA
BRANCH  21  22
ATOM     22  C   UNL     1      -3.836   2.330  25.247  0.00  0.00    +0.099 C 
BRANCH  22  23
ATOM     23  C   UNL     1      -4.645   2.173  25.240  0.00  0.00    -0.006 A 
ATOM     24  C   UNL     1      -4.986   1.788  24.594  0.00  0.00    -0.003 A 
ATOM     25  C   UNL     1      -5.795   1.631  24.587  0.00  0.00    -0.000 A 
ATOM     26  C   UNL     1      -6.265   1.859  25.225  0.00  0.00    -0.000 A 
ATOM     27  C   UNL     1      -5.926   2.244  25.871  0.00  0.00    -0.000 A 
ATOM     28  C   UNL     1      -5.116   2.401  25.878  0.00  0.00    -0.003 A 
ENDBRANCH  22  23
ENDBRANCH  21  22
ENDBRANCH  15  17
TORSDOF 8
ENDMDL
MODEL 7
REMARK VINA RESULT:      -5.2     14.574     15.541
REMARK  Name = 
REMARK  8 active torsions:
REMARK  status: ('A' for Active; 'I' for Inactive)
REMARK    1  A    between atoms: O_2  and  C_3
REMARK    2  A    between atoms: C_3  and  C_4
REMARK    3  A    between atoms: C_4  and  N_5
REMARK    4  A    between atoms: N_5  and  C_6
REMARK    5  A    between atoms: C_9  and  C_12
REMARK    6  A    between atoms: C_15  and  C_17
REMARK    7  A    between atoms: N_21  and  C_22
REMARK    8  A    between atoms: C_22  and  C_23
REMARK                            x       y       z     vdW  Elec       q    Type
REMARK                         _______ _______ _______ _____ _____    ______ ____
ROOT
ATOM     12  C   UNL     1      -6.719 -10.074  14.255  0.00  0.00    +0.205 A 
ATOM     13  N   UNL     1      -7.158 -10.759  14.396  0.00  0.00    -0.056 NA
ATOM     14  O   UNL     1      -7.378 -10.762  15.192  0.00  0.00    -0.336 OA
ATOM     15  C   UNL     1      -7.075 -10.079  15.542  0.00  0.00    +0.251 A 
ATOM     16  N   UNL     1      -6.668  -9.654  14.963  0.00  0.00    -0.190 NA
ENDROOT
BRANCH  12   9
ATOM      6  C   UNL     1      -5.731  -9.400  12.089  0.00  0.00    +0.148 A 
ATOM      7  C   UNL     1      -6.489  -9.145  12.294  0.00  0.00    +0.036 A 
ATOM      8  C   UNL     1      -6.819  -9.370  13.016  0.00  0.00    +0.008 A 
ATOM      9  C   UNL     1      -6.390  -9.849  13.533  0.00  0.00    +0.058 A 
ATOM     10  C   UNL     1      -5.633 -10.104  13.328  0.00  0.00    +0.103 A 
ATOM     11  N   UNL     1      -5.304  -9.879  12.606  0.00  0.00    -0.228 NA
BRANCH   6   5
ATOM      5  N   UNL     1      -5.402  -9.175  11.366  0.00  0.00    -0.218 NA
BRANCH   5   4
ATOM      4  C   UNL     1      -5.440  -9.685  10.720  0.00  0.00    +0.146 C 
BRANCH   4   3
ATOM      3  C   UNL     1      -5.095  -9.468  10.002  0.00  0.00    +0.166 C 
BRANCH   3   2
ATOM      1  C   UNL     1      -4.812  -9.751   8.630  0.00  0.00    +0.174 C 
ATOM      2  O   UNL     1      -5.184  -9.951   9.338  0.00  0.00    -0.349 OA
ENDBRANCH   3   2
ENDBRANCH   4   3
ENDBRANCH   5   4
ENDBRANCH   6   5
ENDBRANCH  12   9
BRANCH  15  17
ATOM     17  C   UNL     1      -7.164  -9.859  16.332  0.00  0.00    +0.138 C 
ATOM     18  C   UNL     1      -6.598  -9.948  16.926  0.00  0.00    +0.027 C 
ATOM     19  C   UNL     1      -6.918  -9.656  17.629  0.00  0.00    +0.019 C 
ATOM     20  C   UNL     1      -7.680  -9.386  17.469  0.00  0.00    +0.073 C 
ATOM     21  N   UNL     1      -7.833  -9.512  16.667  0.00  0.00    -0.263 NA
BRANCH  21  22
ATOM     22  C   UNL     1      -8.531  -9.323  16.271  0.00  0.00    +0.099 C 
BRANCH  22  23
ATOM     23  C   UNL     1      -9.155  -8.973  16.680  0.00  0.00    -0.006 A 
ATOM     24  C   UNL     1      -9.216  -8.150  16.714  0.00  0.00    -0.003 A 
ATOM     25  C   UNL     1      -9.840  -7.799  17.123  0.00  0.00    -0.000 A 
ATOM     26  C   UNL     1     -10.404  -8.270  17.498  0.00  0.00    -0.000 A 
ATOM     27  C   UNL     1     -10.345  -9.092  17.464  0.00  0.00    -0.000 A 
ATOM     28  C   UNL     1      -9.720  -9.443  17.055  0.00  0.00    -0.003 A 
ENDBRANCH  22  23
ENDBRANCH  21  22
ENDBRANCH  15  17
TORSDOF 8
ENDMDL
MODEL 8
REMARK VINA RESULT:      -5.0     17.557     18.334
REMARK  Name = 
REMARK  8 active torsions:
REMARK  status: ('A' for Active; 'I' for Inactive)
REMARK    1  A    between atoms: O_2  and  C_3
REMARK    2  A    between atoms: C_3  and  C_4
REMARK    3  A    between atoms: C_4  and  N_5
REMARK    4  A    between atoms: N_5  and  C_6
REMARK    5  A    between atoms: C_9  and  C_12
REMARK    6  A    between atoms: C_15  and  C_17
REMARK    7  A    between atoms: N_21  and  C_22
REMARK    8  A    between atoms: C_22  and  C_23
REMARK                            x       y       z     vdW  Elec       q    Type
REMARK                         _______ _______ _______ _____ _____    ______ ____
ROOT
ATOM     12  C   UNL     1      -5.259  -9.286   9.108  0.00  0.00    +0.205 A 
ATOM     13  N   UNL     1      -5.446  -9.571   8.356  0.00  0.00    -0.056 NA
ATOM     14  O   UNL     1      -6.161  -9.230   8.124  0.00  0.00    -0.336 OA
ATOM     15  C   UNL     1      -6.416  -8.735   8.733  0.00  0.00    +0.251 A 
ATOM     16  N   UNL     1      -5.859  -8.770   9.340  0.00  0.00    -0.190 NA
ENDROOT
BRANCH  12   9
ATOM      6  C   UNL     1      -3.253  -9.878  10.430  0.00  0.00    +0.148 A 
ATOM      7  C   UNL     1      -3.303  -9.139  10.065  0.00  0.00    +0.036 A 
ATOM      8  C   UNL     1      -3.972  -8.942   9.624  0.00  0.00    +0.008 A 
ATOM      9  C   UNL     1      -4.590  -9.484   9.548  0.00  0.00    +0.058 A 
ATOM     10  C   UNL     1      -4.540 -10.221   9.913  0.00  0.00    +0.103 A 
ATOM     11  N   UNL     1      -3.871 -10.419  10.353  0.00  0.00    -0.228 NA
BRANCH   6   5
ATOM      5  N   UNL     1      -2.584 -10.075  10.871  0.00  0.00    -0.218 NA
BRANCH   5   4
ATOM      4  C   UNL     1      -2.646 -10.189  11.685  0.00  0.00    +0.146 C 
BRANCH   4   3
ATOM      3  C   UNL     1      -2.000 -10.477  12.111  0.00  0.00    +0.166 C 
BRANCH   3   2
ATOM      1  C   UNL     1      -1.926 -10.675  13.525  0.00  0.00    +0.174 C 
ATOM      2  O   UNL     1      -1.841 -10.185  12.867  0.00  0.00    -0.349 OA
ENDBRANCH   3   2
ENDBRANCH   4   3
ENDBRANCH   5   4
ENDBRANCH   6   5
ENDBRANCH  12   9
BRANCH  15  17
ATOM     17  C   UNL     1      -7.107  -8.285   8.734  0.00  0.00    +0.138 C 
ATOM     18  C   UNL     1      -7.174  -7.499   8.491  0.00  0.00    +0.027 C 
ATOM     19  C   UNL     1      -7.961  -7.269   8.585  0.00  0.00    +0.019 C 
ATOM     20  C   UNL     1      -8.380  -7.912   8.887  0.00  0.00    +0.073 C 
ATOM     21  N   UNL     1      -7.852  -8.540   8.980  0.00  0.00    -0.263 NA
BRANCH  21  22
ATOM     22  C   UNL     1      -8.038  -9.291   9.266  0.00  0.00    +0.099 C 
BRANCH  22  23
ATOM     23  C   UNL     1      -8.801  -9.454   9.533  0.00  0.00    -0.006 A 
ATOM     24  C   UNL     1      -8.993  -9.343  10.328  0.00  0.00    -0.003 A 
ATOM     25  C   UNL     1      -9.756  -9.506  10.594  0.00  0.00    -0.000 A 
ATOM     26  C   UNL     1     -10.328  -9.780  10.066  0.00  0.00    -0.000 A 
ATOM     27  C   UNL     1     -10.137  -9.891   9.271  0.00  0.00    -0.000 A 
ATOM     28  C   UNL     1      -9.373  -9.727   9.005  0.00  0.00    -0.003 A 
ENDBRANCH  22  23
ENDBRANCH  21  22
ENDBRANCH  15  17
TORSDOF 8
ENDMDL
