MODEL 1
REMARK VINA RESULT:      -8.0      0.000      0.000
REMARK  Name = 
REMARK  6 active torsions:
REMARK  status: ('A' for Active; 'I' for Inactive)
REMARK    1  A    between atoms: O_2  and  C_3
REMARK    2  A    between atoms: C_6  and  C_7
REMARK    3  A    between atoms: C_7  and  C_8
REMARK    4  A    between atoms: N_17  and  C_18
REMARK    5  A    between atoms: C_18  and  C_19
REMARK    6  A    between atoms: C_19  and  N_20
REMARK                            x       y       z     vdW  Elec       q    Type
REMARK                         _______ _______ _______ _____ _____    ______ ____
ROOT
ATOM      8  C   UNL     1      -3.445   1.479  24.347  0.00  0.00    +0.230 C 
ATOM      9  O   UNL     1      -3.462   2.163  23.885  0.00  0.00    -0.275 OA
ATOM     10  N   UNL     1      -2.768   1.008  24.361  0.00  0.00    -0.279 N 
ATOM     11  C   UNL     1      -2.751   0.325  24.823  0.00  0.00    +0.093 C 
ATOM     12  C   UNL     1      -2.075  -0.147  24.838  0.00  0.00    +0.022 C 
ATOM     13  C   UNL     1      -1.414   0.065  24.390  0.00  0.00    +0.012 C 
ATOM     14  C   UNL     1      -0.800  -0.479  24.483  0.00  0.00    +0.085 C 
ATOM     15  C   UNL     1      -0.052  -0.472  24.136  0.00  0.00    +0.226 C 
ATOM     16  O   UNL     1       0.442  -1.100  24.341  0.00  0.00    -0.275 OA
ATOM     17  N   UNL     1       0.267   0.078  23.611  0.00  0.00    -0.278 N 
ATOM     26  C   UNL     1      -0.083   0.758  23.303  0.00  0.00    +0.094 C 
ATOM     27  C   UNL     1      -0.839   1.057  23.444  0.00  0.00    +0.023 C 
ATOM     28  C   UNL     1      -1.431   0.748  23.928  0.00  0.00    +0.022 C 
ATOM     29  C   UNL     1      -2.109   1.220  23.914  0.00  0.00    +0.093 C 
ENDROOT
BRANCH   8   7
ATOM      7  C   UNL     1      -4.105   1.268  24.795  0.00  0.00    +0.112 C 
BRANCH   7   6
ATOM      3  C   UNL     1      -5.689   3.006  25.566  0.00  0.00    +0.139 A 
ATOM      4  C   UNL     1      -4.881   3.095  25.704  0.00  0.00    +0.037 A 
ATOM      5  C   UNL     1      -4.353   2.515  25.447  0.00  0.00    -0.001 A 
ATOM      6  C   UNL     1      -4.633   1.848  25.052  0.00  0.00    -0.013 A 
ATOM     30  C   UNL     1      -5.441   1.759  24.914  0.00  0.00    -0.001 A 
ATOM     31  C   UNL     1      -5.970   2.338  25.171  0.00  0.00    +0.037 A 
BRANCH   3   2
ATOM      1  C   UNL     1      -6.074   4.380  25.656  0.00  0.00    +0.252 C 
ATOM      2  O   UNL     1      -6.218   3.585  25.823  0.00  0.00    -0.471 OA
ENDBRANCH   3   2
ENDBRANCH   7   6
ENDBRANCH   8   7
BRANCH  17  18
ATOM     18  C   UNL     1       1.039  -0.072  23.361  0.00  0.00    +0.111 C 
BRANCH  18  19
ATOM     19  C   UNL     1       1.387   0.408  22.789  0.00  0.00    +0.094 C 
BRANCH  19  20
ATOM     20  N   UNL     1       2.203   0.383  22.670  0.00  0.00    -0.267 NA
ATOM     21  C   UNL     1       2.701   0.868  23.116  0.00  0.00    +0.105 C 
ATOM     22  C   UNL     1       3.517   0.842  22.998  0.00  0.00    +0.159 C 
ATOM     23  O   UNL     1       3.836   0.332  22.433  0.00  0.00    -0.351 OA
ATOM     24  C   UNL     1       3.339  -0.153  21.987  0.00  0.00    +0.159 C 
ATOM     25  C   UNL     1       2.523  -0.127  22.106  0.00  0.00    +0.105 C 
ENDBRANCH  19  20
ENDBRANCH  18  19
ENDBRANCH  17  18
TORSDOF 6
ENDMDL
MODEL 2
REMARK VINA RESULT:      -7.7      1.161      6.995
REMARK  Name = 
REMARK  6 active torsions:
REMARK  status: ('A' for Active; 'I' for Inactive)
REMARK    1  A    between atoms: O_2  and  C_3
REMARK    2  A    between atoms: C_6  and  C_7
REMARK    3  A    between atoms: C_7  and  C_8
REMARK    4  A    between atoms: N_17  and  C_18
REMARK    5  A    between atoms: C_18  and  C_19
REMARK    6  A    between atoms: C_19  and  N_20
REMARK                            x       y       z     vdW  Elec       q    Type
REMARK                         _______ _______ _______ _____ _____    ______ ____
ROOT
ATOM      8  C   UNL     1       1.599   0.716  23.270  0.00  0.00    +0.230 C 
ATOM      9  O   UNL     1       1.926   1.467  23.368  0.00  0.00    -0.275 OA
ATOM     10  N   UNL     1       0.812   0.579  23.479  0.00  0.00    -0.279 N 
ATOM     11  C   UNL     1       0.485  -0.172  23.381  0.00  0.00    +0.093 C 
ATOM     12  C   UNL     1      -0.300  -0.311  23.589  0.00  0.00    +0.022 C 
ATOM     13  C   UNL     1      -0.760   0.302  23.896  0.00  0.00    +0.012 C 
ATOM     14  C   UNL     1      -1.526   0.048  24.068  0.00  0.00    +0.085 C 
ATOM     15  C   UNL     1      -2.154   0.483  24.380  0.00  0.00    +0.226 C 
ATOM     16  O   UNL     1      -2.857   0.066  24.489  0.00  0.00    -0.275 OA
ATOM     17  N   UNL     1      -2.171   1.278  24.597  0.00  0.00    -0.278 N 
ATOM     26  C   UNL     1      -1.565   1.835  24.556  0.00  0.00    +0.094 C 
ATOM     27  C   UNL     1      -0.791   1.736  24.288  0.00  0.00    +0.023 C 
ATOM     28  C   UNL     1      -0.433   1.053  23.994  0.00  0.00    +0.022 C 
ATOM     29  C   UNL     1       0.354   1.191  23.785  0.00  0.00    +0.093 C 
ENDROOT
BRANCH   8   7
ATOM      7  C   UNL     1       2.058   0.104  22.963  0.00  0.00    +0.112 C 
BRANCH   7   6
ATOM      3  C   UNL     1       4.528   0.258  23.015  0.00  0.00    +0.139 A 
ATOM      4  C   UNL     1       4.086   0.842  22.635  0.00  0.00    +0.037 A 
ATOM      5  C   UNL     1       3.262   0.790  22.618  0.00  0.00    -0.001 A 
ATOM      6  C   UNL     1       2.881   0.156  22.980  0.00  0.00    -0.013 A 
ATOM     30  C   UNL     1       3.323  -0.428  23.360  0.00  0.00    -0.001 A 
ATOM     31  C   UNL     1       4.146  -0.378  23.378  0.00  0.00    +0.037 A 
BRANCH   3   2
ATOM      1  C   UNL     1       5.767   0.047  23.696  0.00  0.00    +0.252 C 
ATOM      2  O   UNL     1       5.351   0.309  23.033  0.00  0.00    -0.471 OA
ENDBRANCH   3   2
ENDBRANCH   7   6
ENDBRANCH   8   7
BRANCH  17  18
ATOM     18  C   UNL     1      -2.890   1.552  24.895  0.00  0.00    +0.111 C 
BRANCH  18  19
ATOM     19  C   UNL     1      -3.171   2.295  24.673  0.00  0.00    +0.094 C 
BRANCH  19  20
ATOM     20  N   UNL     1      -3.888   2.571  24.975  0.00  0.00    -0.267 NA
ATOM     21  C   UNL     1      -3.894   3.178  25.535  0.00  0.00    +0.105 C 
ATOM     22  C   UNL     1      -4.611   3.454  25.836  0.00  0.00    +0.159 C 
ATOM     23  O   UNL     1      -5.321   3.123  25.578  0.00  0.00    -0.351 OA
ATOM     24  C   UNL     1      -5.315   2.517  25.019  0.00  0.00    +0.159 C 
ATOM     25  C   UNL     1      -4.599   2.241  24.717  0.00  0.00    +0.105 C 
ENDBRANCH  19  20
ENDBRANCH  18  19
ENDBRANCH  17  18
TORSDOF 6
ENDMDL
MODEL 3
REMARK VINA RESULT:      -6.7     15.058     15.980
REMARK  Name = 
REMARK  6 active torsions:
REMARK  status: ('A' for Active; 'I' for Inactive)
REMARK    1  A    between atoms: O_2  and  C_3
REMARK    2  A    between atoms: C_6  and  C_7
REMARK    3  A    between atoms: C_7  and  C_8
REMARK    4  A    between atoms: N_17  and  C_18
REMARK    5  A    between atoms: C_18  and  C_19
REMARK    6  A    between atoms: C_19  and  N_20
REMARK                            x       y       z     vdW  Elec       q    Type
REMARK                         _______ _______ _______ _____ _____    ______ ____
ROOT
ATOM      8  C   UNL     1      -5.169 -10.508  15.946  0.00  0.00    +0.230 C 
ATOM      9  O   UNL     1      -5.970 -10.316  15.914  0.00  0.00    -0.275 OA
ATOM     10  N   UNL     1      -4.723 -10.532  15.252  0.00  0.00    -0.279 N 
ATOM     11  C   UNL     1      -3.921 -10.724  15.284  0.00  0.00    +0.093 C 
ATOM     12  C   UNL     1      -3.474 -10.749  14.591  0.00  0.00    +0.022 C 
ATOM     13  C   UNL     1      -3.830 -10.581  13.865  0.00  0.00    +0.012 C 
ATOM     14  C   UNL     1      -3.288 -10.637  13.245  0.00  0.00    +0.085 C 
ATOM     15  C   UNL     1      -3.416 -10.513  12.439  0.00  0.00    +0.226 C 
ATOM     16  O   UNL     1      -2.756 -10.612  11.954  0.00  0.00    -0.275 OA
ATOM     17  N   UNL     1      -4.115 -10.305  12.055  0.00  0.00    -0.278 N 
ATOM     26  C   UNL     1      -4.860 -10.168  12.381  0.00  0.00    +0.094 C 
ATOM     27  C   UNL     1      -5.090 -10.205  13.172  0.00  0.00    +0.023 C 
ATOM     28  C   UNL     1      -4.632 -10.389  13.833  0.00  0.00    +0.022 C 
ATOM     29  C   UNL     1      -5.077 -10.365  14.527  0.00  0.00    +0.093 C 
ENDROOT
BRANCH   8   7
ATOM      7  C   UNL     1      -4.814 -10.675  16.671  0.00  0.00    +0.112 C 
BRANCH   7   6
ATOM      3  C   UNL     1      -6.163 -10.648  18.746  0.00  0.00    +0.139 A 
ATOM      4  C   UNL     1      -5.347 -10.532  18.783  0.00  0.00    +0.037 A 
ATOM      5  C   UNL     1      -4.897 -10.541  18.091  0.00  0.00    -0.001 A 
ATOM      6  C   UNL     1      -5.263 -10.666  17.363  0.00  0.00    -0.013 A 
ATOM     30  C   UNL     1      -6.079 -10.781  17.326  0.00  0.00    -0.001 A 
ATOM     31  C   UNL     1      -6.529 -10.772  18.017  0.00  0.00    +0.037 A 
BRANCH   3   2
ATOM      1  C   UNL     1      -6.243 -10.693  20.172  0.00  0.00    +0.252 C 
ATOM      2  O   UNL     1      -6.613 -10.639  19.437  0.00  0.00    -0.471 OA
ENDBRANCH   3   2
ENDBRANCH   7   6
ENDBRANCH   8   7
BRANCH  17  18
ATOM     18  C   UNL     1      -4.062 -10.222  11.236  0.00  0.00    +0.111 C 
BRANCH  18  19
ATOM     19  C   UNL     1      -4.614  -9.761  10.832  0.00  0.00    +0.094 C 
BRANCH  19  20
ATOM     20  N   UNL     1      -4.528  -9.632  10.021  0.00  0.00    -0.267 NA
ATOM     21  C   UNL     1      -4.656 -10.249   9.489  0.00  0.00    +0.105 C 
ATOM     22  C   UNL     1      -4.570 -10.120   8.678  0.00  0.00    +0.159 C 
ATOM     23  O   UNL     1      -4.357  -9.372   8.401  0.00  0.00    -0.351 OA
ATOM     24  C   UNL     1      -4.229  -8.755   8.933  0.00  0.00    +0.159 C 
ATOM     25  C   UNL     1      -4.315  -8.885   9.743  0.00  0.00    +0.105 C 
ENDBRANCH  19  20
ENDBRANCH  18  19
ENDBRANCH  17  18
TORSDOF 6
ENDMDL
MODEL 4
REMARK VINA RESULT:      -6.5     15.285     15.861
REMARK  Name = 
REMARK  6 active torsions:
REMARK  status: ('A' for Active; 'I' for Inactive)
REMARK    1  A    between atoms: O_2  and  C_3
REMARK    2  A    between atoms: C_6  and  C_7
REMARK    3  A    between atoms: C_7  and  C_8
REMARK    4  A    between atoms: N_17  and  C_18
REMARK    5  A    between atoms: C_18  and  C_19
REMARK    6  A    between atoms: C_19  and  N_20
REMARK                            x       y       z     vdW  Elec       q    Type
REMARK                         _______ _______ _______ _____ _____    ______ ____
ROOT
ATOM      8  C   UNL     1      -7.298  -9.941  15.809  0.00  0.00    +0.230 C 
ATOM      9  O   UNL     1      -8.018  -9.704  15.484  0.00  0.00    -0.275 OA
ATOM     10  N   UNL     1      -6.641 -10.047  15.321  0.00  0.00    -0.279 N 
ATOM     11  C   UNL     1      -5.920 -10.284  15.647  0.00  0.00    +0.093 C 
ATOM     12  C   UNL     1      -5.263 -10.391  15.160  0.00  0.00    +0.022 C 
ATOM     13  C   UNL     1      -5.326 -10.261  14.347  0.00  0.00    +0.012 C 
ATOM     14  C   UNL     1      -4.608 -10.398  13.964  0.00  0.00    +0.085 C 
ATOM     15  C   UNL     1      -4.435 -10.333  13.160  0.00  0.00    +0.226 C 
ATOM     16  O   UNL     1      -3.658 -10.509  12.947  0.00  0.00    -0.275 OA
ATOM     17  N   UNL     1      -4.935 -10.114  12.542  0.00  0.00    -0.278 N 
ATOM     26  C   UNL     1      -5.732  -9.907  12.574  0.00  0.00    +0.094 C 
ATOM     27  C   UNL     1      -6.227  -9.867  13.233  0.00  0.00    +0.023 C 
ATOM     28  C   UNL     1      -6.047 -10.025  14.022  0.00  0.00    +0.022 C 
ATOM     29  C   UNL     1      -6.704  -9.918  14.510  0.00  0.00    +0.093 C 
ENDROOT
BRANCH   8   7
ATOM      7  C   UNL     1      -7.235 -10.070  16.621  0.00  0.00    +0.112 C 
BRANCH   7   6
ATOM      3  C   UNL     1      -9.265 -10.068  18.037  0.00  0.00    +0.139 A 
ATOM      4  C   UNL     1      -8.957 -10.781  17.759  0.00  0.00    +0.037 A 
ATOM      5  C   UNL     1      -8.280 -10.781  17.287  0.00  0.00    -0.001 A 
ATOM      6  C   UNL     1      -7.912 -10.070  17.093  0.00  0.00    -0.013 A 
ATOM     30  C   UNL     1      -8.219  -9.357  17.371  0.00  0.00    -0.001 A 
ATOM     31  C   UNL     1      -8.896  -9.355  17.843  0.00  0.00    +0.037 A 
BRANCH   3   2
ATOM      1  C   UNL     1      -9.943 -10.467  19.231  0.00  0.00    +0.252 C 
ATOM      2  O   UNL     1      -9.941 -10.066  18.510  0.00  0.00    -0.471 OA
ENDBRANCH   3   2
ENDBRANCH   7   6
ENDBRANCH   8   7
BRANCH  17  18
ATOM     18  C   UNL     1      -4.592 -10.101  11.791  0.00  0.00    +0.111 C 
BRANCH  18  19
ATOM     19  C   UNL     1      -4.915  -9.628  11.199  0.00  0.00    +0.094 C 
BRANCH  19  20
ATOM     20  N   UNL     1      -4.567  -9.609  10.451  0.00  0.00    -0.267 NA
ATOM     21  C   UNL     1      -4.535 -10.295   9.992  0.00  0.00    +0.105 C 
ATOM     22  C   UNL     1      -4.187 -10.275   9.244  0.00  0.00    +0.159 C 
ATOM     23  O   UNL     1      -3.871  -9.570   8.955  0.00  0.00    -0.351 OA
ATOM     24  C   UNL     1      -3.903  -8.885   9.413  0.00  0.00    +0.159 C 
ATOM     25  C   UNL     1      -4.251  -8.904  10.161  0.00  0.00    +0.105 C 
ENDBRANCH  19  20
ENDBRANCH  18  19
ENDBRANCH  17  18
TORSDOF 6
ENDMDL
MODEL 5
REMARK VINA RESULT:      -6.1     15.798     16.698
REMARK  Name = 
REMARK  6 active torsions:
REMARK  status: ('A' for Active; 'I' for Inactive)
REMARK    1  A    between atoms: O_2  and  C_3
REMARK    2  A    between atoms: C_6  and  C_7
REMARK    3  A    between atoms: C_7  and  C_8
REMARK    4  A    between atoms: N_17  and  C_18
REMARK    5  A    between atoms: C_18  and  C_19
REMARK    6  A    between atoms: C_19  and  N_20
REMARK                            x       y       z     vdW  Elec       q    Type
REMARK                         _______ _______ _______ _____ _____    ______ ____
ROOT
ATOM      8  C   UNL     1      -5.666 -10.301  15.204  0.00  0.00    +0.230 C 
ATOM      9  O   UNL     1      -6.392 -10.072  15.522  0.00  0.00    -0.275 OA
ATOM     10  N   UNL     1      -5.534 -10.241  14.391  0.00  0.00    -0.279 N 
ATOM     11  C   UNL     1      -4.808 -10.470  14.074  0.00  0.00    +0.093 C 
ATOM     12  C   UNL     1      -4.675 -10.410  13.262  0.00  0.00    +0.022 C 
ATOM     13  C   UNL     1      -5.270 -10.120  12.767  0.00  0.00    +0.012 C 
ATOM     14  C   UNL     1      -5.025 -10.105  11.979  0.00  0.00    +0.085 C 
ATOM     15  C   UNL     1      -5.446  -9.857  11.315  0.00  0.00    +0.226 C 
ATOM     16  O   UNL     1      -5.044  -9.910  10.597  0.00  0.00    -0.275 OA
ATOM     17  N   UNL     1      -6.215  -9.562  11.274  0.00  0.00    -0.278 N 
ATOM     26  C   UNL     1      -6.754  -9.444  11.888  0.00  0.00    +0.094 C 
ATOM     27  C   UNL     1      -6.656  -9.589  12.694  0.00  0.00    +0.023 C 
ATOM     28  C   UNL     1      -5.995  -9.890  13.085  0.00  0.00    +0.022 C 
ATOM     29  C   UNL     1      -6.127  -9.951  13.897  0.00  0.00    +0.093 C 
ENDROOT
BRANCH   8   7
ATOM      7  C   UNL     1      -5.073 -10.591  15.698  0.00  0.00    +0.112 C 
BRANCH   7   6
ATOM      3  C   UNL     1      -5.410 -10.626  18.150  0.00  0.00    +0.139 A 
ATOM      4  C   UNL     1      -4.664 -10.462  17.839  0.00  0.00    +0.037 A 
ATOM      5  C   UNL     1      -4.552 -10.451  17.021  0.00  0.00    -0.001 A 
ATOM      6  C   UNL     1      -5.185 -10.603  16.515  0.00  0.00    -0.013 A 
ATOM     30  C   UNL     1      -5.931 -10.766  16.827  0.00  0.00    -0.001 A 
ATOM     31  C   UNL     1      -6.045 -10.778  17.644  0.00  0.00    +0.037 A 
BRANCH   3   2
ATOM      1  C   UNL     1      -6.221 -10.341  19.291  0.00  0.00    +0.252 C 
ATOM      2  O   UNL     1      -5.523 -10.638  18.967  0.00  0.00    -0.471 OA
ENDBRANCH   3   2
ENDBRANCH   7   6
ENDBRANCH   8   7
BRANCH  17  18
ATOM     18  C   UNL     1      -6.482  -9.360  10.520  0.00  0.00    +0.111 C 
BRANCH  18  19
ATOM     19  C   UNL     1      -7.195  -8.957  10.429  0.00  0.00    +0.094 C 
BRANCH  19  20
ATOM     20  N   UNL     1      -7.457  -8.748   9.676  0.00  0.00    -0.267 NA
ATOM     21  C   UNL     1      -8.088  -9.153   9.330  0.00  0.00    +0.105 C 
ATOM     22  C   UNL     1      -8.350  -8.944   8.577  0.00  0.00    +0.159 C 
ATOM     23  O   UNL     1      -7.982  -8.329   8.168  0.00  0.00    -0.351 OA
ATOM     24  C   UNL     1      -7.352  -7.923   8.513  0.00  0.00    +0.159 C 
ATOM     25  C   UNL     1      -7.090  -8.133   9.266  0.00  0.00    +0.105 C 
ENDBRANCH  19  20
ENDBRANCH  18  19
ENDBRANCH  17  18
TORSDOF 6
ENDMDL
