MODEL 1
REMARK VINA RESULT:     -10.7      0.000      0.000
REMARK  Name = 
REMARK  7 active torsions:
REMARK  status: ('A' for Active; 'I' for Inactive)
REMARK    1  A    between atoms: C_2  and  C_3
REMARK    2  A    between atoms: C_5  and  C_6
REMARK    3  A    between atoms: C_6  and  C_7
REMARK    4  A    between atoms: C_7  and  N_11
REMARK    5  A    between atoms: N_11  and  C_12
REMARK    6  A    between atoms: C_12  and  C_13
REMARK    7  A    between atoms: C_16  and  C_19
REMARK                            x       y       z     vdW  Elec       q    Type
REMARK                         _______ _______ _______ _____ _____    ______ ____
ROOT
ATOM      7  C   UNL     1      -4.698   2.081  24.947  0.00  0.00    +0.120 C 
ATOM      8  C   UNL     1      -5.349   1.769  25.348  0.00  0.00    +0.161 C 
ATOM      9  O   UNL     1      -5.735   2.495  25.285  0.00  0.00    -0.351 OA
ATOM     10  C   UNL     1      -5.085   2.807  24.884  0.00  0.00    +0.161 C 
ENDROOT
BRANCH   7   6
ATOM      6  C   UNL     1      -4.048   2.392  24.547  0.00  0.00    +0.070 C 
BRANCH   6   5
ATOM      3  C   UNL     1      -2.450   3.630  25.235  0.00  0.00    +0.187 A 
ATOM      4  C   UNL     1      -2.774   3.115  24.678  0.00  0.00    +0.056 A 
ATOM      5  C   UNL     1      -3.527   2.900  24.937  0.00  0.00    +0.102 A 
ATOM     23  N   UNL     1      -3.670   3.282  25.654  0.00  0.00    -0.082 NA
ATOM     24  O   UNL     1      -3.004   3.733  25.838  0.00  0.00    -0.355 OA
BRANCH   3   2
ATOM      1  O   UNL     1      -1.621   4.789  25.330  0.00  0.00    -0.212 OA
ATOM      2  C   UNL     1      -1.705   3.980  25.197  0.00  0.00    +0.249 C 
ENDBRANCH   3   2
ENDBRANCH   6   5
ENDBRANCH   7   6
BRANCH   7  11
ATOM     11  N   UNL     1      -4.312   1.354  25.010  0.00  0.00    -0.211 NA
BRANCH  11  12
ATOM     12  C   UNL     1      -4.725   0.655  24.866  0.00  0.00    +0.115 C 
BRANCH  12  13
ATOM     13  C   UNL     1      -4.321  -0.065  24.845  0.00  0.00    -0.005 A 
ATOM     14  C   UNL     1      -4.276  -0.491  24.140  0.00  0.00    -0.003 A 
ATOM     15  C   UNL     1      -3.873  -1.211  24.118  0.00  0.00    +0.004 A 
ATOM     16  C   UNL     1      -3.515  -1.503  24.801  0.00  0.00    +0.071 A 
ATOM     17  C   UNL     1      -3.560  -1.077  25.506  0.00  0.00    +0.004 A 
ATOM     18  C   UNL     1      -3.963  -0.357  25.527  0.00  0.00    -0.003 A 
BRANCH  16  19
ATOM     19  C   UNL     1      -3.111  -2.223  24.779  0.00  0.00    +0.419 C 
ATOM     20  F   UNL     1      -2.708  -2.942  24.758  0.00  0.00    -0.166 F 
ATOM     21  F   UNL     1      -3.678  -2.555  25.279  0.00  0.00    -0.166 F 
ATOM     22  F   UNL     1      -2.545  -1.890  24.280  0.00  0.00    -0.166 F 
ENDBRANCH  16  19
ENDBRANCH  12  13
ENDBRANCH  11  12
ENDBRANCH   7  11
TORSDOF 7
ENDMDL
MODEL 2
REMARK VINA RESULT:     -10.4      2.836      4.751
REMARK  Name = 
REMARK  7 active torsions:
REMARK  status: ('A' for Active; 'I' for Inactive)
REMARK    1  A    between atoms: C_2  and  C_3
REMARK    2  A    between atoms: C_5  and  C_6
REMARK    3  A    between atoms: C_6  and  C_7
REMARK    4  A    between atoms: C_7  and  N_11
REMARK    5  A    between atoms: N_11  and  C_12
REMARK    6  A    between atoms: C_12  and  C_13
REMARK    7  A    between atoms: C_16  and  C_19
REMARK                            x       y       z     vdW  Elec       q    Type
REMARK                         _______ _______ _______ _____ _____    ______ ____
ROOT
ATOM      7  C   UNL     1      -4.990   2.105  25.144  0.00  0.00    +0.120 C 
ATOM      8  C   UNL     1      -5.318   2.585  25.731  0.00  0.00    +0.161 C 
ATOM      9  O   UNL     1      -6.047   2.214  25.626  0.00  0.00    -0.351 OA
ATOM     10  C   UNL     1      -5.720   1.735  25.041  0.00  0.00    +0.161 C 
ENDROOT
BRANCH   7   6
ATOM      6  C   UNL     1      -4.663   1.626  24.559  0.00  0.00    +0.070 C 
BRANCH   6   5
ATOM      3  C   UNL     1      -4.078  -0.427  24.592  0.00  0.00    +0.187 A 
ATOM      4  C   UNL     1      -4.220   0.275  24.183  0.00  0.00    +0.056 A 
ATOM      5  C   UNL     1      -4.463   0.844  24.729  0.00  0.00    +0.102 A 
ATOM     23  N   UNL     1      -4.471   0.494  25.475  0.00  0.00    -0.082 NA
ATOM     24  O   UNL     1      -4.234  -0.292  25.391  0.00  0.00    -0.355 OA
BRANCH   3   2
ATOM      1  O   UNL     1      -4.378  -1.697  24.011  0.00  0.00    -0.212 OA
ATOM      2  C   UNL     1      -3.825  -1.139  24.261  0.00  0.00    +0.249 C 
ENDBRANCH   3   2
ENDBRANCH   6   5
ENDBRANCH   7   6
BRANCH   7  11
ATOM     11  N   UNL     1      -4.260   2.477  25.249  0.00  0.00    -0.211 NA
BRANCH  11  12
ATOM     12  C   UNL     1      -4.216   3.300  25.263  0.00  0.00    +0.115 C 
BRANCH  12  13
ATOM     13  C   UNL     1      -3.480   3.674  25.246  0.00  0.00    -0.005 A 
ATOM     14  C   UNL     1      -3.150   3.900  24.525  0.00  0.00    -0.003 A 
ATOM     15  C   UNL     1      -2.414   4.273  24.507  0.00  0.00    +0.004 A 
ATOM     16  C   UNL     1      -2.009   4.419  25.211  0.00  0.00    +0.071 A 
ATOM     17  C   UNL     1      -2.340   4.193  25.932  0.00  0.00    +0.004 A 
ATOM     18  C   UNL     1      -3.076   3.820  25.949  0.00  0.00    -0.003 A 
BRANCH  16  19
ATOM     19  C   UNL     1      -1.273   4.793  25.193  0.00  0.00    +0.419 C 
ATOM     20  F   UNL     1      -0.538   5.166  25.176  0.00  0.00    -0.166 F 
ATOM     21  F   UNL     1      -1.644   5.527  25.258  0.00  0.00    -0.166 F 
ATOM     22  F   UNL     1      -0.903   4.058  25.128  0.00  0.00    -0.166 F 
ENDBRANCH  16  19
ENDBRANCH  12  13
ENDBRANCH  11  12
ENDBRANCH   7  11
TORSDOF 7
ENDMDL
MODEL 3
REMARK VINA RESULT:     -10.2      1.378      2.091
REMARK  Name = 
REMARK  7 active torsions:
REMARK  status: ('A' for Active; 'I' for Inactive)
REMARK    1  A    between atoms: C_2  and  C_3
REMARK    2  A    between atoms: C_5  and  C_6
REMARK    3  A    between atoms: C_6  and  C_7
REMARK    4  A    between atoms: C_7  and  N_11
REMARK    5  A    between atoms: N_11  and  C_12
REMARK    6  A    between atoms: C_12  and  C_13
REMARK    7  A    between atoms: C_16  and  C_19
REMARK                            x       y       z     vdW  Elec       q    Type
REMARK                         _______ _______ _______ _____ _____    ______ ____
ROOT
ATOM      7  C   UNL     1      -3.234   1.761  23.847  0.00  0.00    +0.120 C 
ATOM      8  C   UNL     1      -2.427   1.628  23.736  0.00  0.00    +0.161 C 
ATOM      9  O   UNL     1      -2.353   2.374  23.390  0.00  0.00    -0.351 OA
ATOM     10  C   UNL     1      -3.159   2.506  23.501  0.00  0.00    +0.161 C 
ENDROOT
BRANCH   7   6
ATOM      6  C   UNL     1      -4.040   1.893  23.958  0.00  0.00    +0.070 C 
BRANCH   6   5
ATOM      3  C   UNL     1      -5.087   3.044  25.419  0.00  0.00    +0.187 A 
ATOM      4  C   UNL     1      -5.083   2.557  24.754  0.00  0.00    +0.056 A 
ATOM      5  C   UNL     1      -4.299   2.369  24.580  0.00  0.00    +0.102 A 
ATOM     23  N   UNL     1      -3.818   2.740  25.138  0.00  0.00    -0.082 NA
ATOM     24  O   UNL     1      -4.305   3.157  25.657  0.00  0.00    -0.355 OA
BRANCH   3   2
ATOM      1  O   UNL     1      -5.887   4.177  25.764  0.00  0.00    -0.212 OA
ATOM      2  C   UNL     1      -5.755   3.363  25.784  0.00  0.00    +0.249 C 
ENDBRANCH   3   2
ENDBRANCH   6   5
ENDBRANCH   7   6
BRANCH   7  11
ATOM     11  N   UNL     1      -3.308   1.015  24.193  0.00  0.00    -0.211 NA
BRANCH  11  12
ATOM     12  C   UNL     1      -3.075   0.343  23.775  0.00  0.00    +0.115 C 
BRANCH  12  13
ATOM     13  C   UNL     1      -3.191  -0.406  24.102  0.00  0.00    -0.005 A 
ATOM     14  C   UNL     1      -3.847  -0.855  23.882  0.00  0.00    -0.003 A 
ATOM     15  C   UNL     1      -3.964  -1.603  24.209  0.00  0.00    +0.004 A 
ATOM     16  C   UNL     1      -3.424  -1.903  24.755  0.00  0.00    +0.071 A 
ATOM     17  C   UNL     1      -2.767  -1.454  24.976  0.00  0.00    +0.004 A 
ATOM     18  C   UNL     1      -2.651  -0.706  24.648  0.00  0.00    -0.003 A 
BRANCH  16  19
ATOM     19  C   UNL     1      -3.540  -2.652  25.083  0.00  0.00    +0.419 C 
ATOM     20  F   UNL     1      -3.656  -3.400  25.409  0.00  0.00    -0.166 F 
ATOM     21  F   UNL     1      -3.681  -2.308  25.819  0.00  0.00    -0.166 F 
ATOM     22  F   UNL     1      -3.399  -2.995  24.345  0.00  0.00    -0.166 F 
ENDBRANCH  16  19
ENDBRANCH  12  13
ENDBRANCH  11  12
ENDBRANCH   7  11
TORSDOF 7
ENDMDL
