MODEL 1
REMARK VINA RESULT:     -10.0      0.000      0.000
REMARK  Name = 
REMARK  2 active torsions:
REMARK  status: ('A' for Active; 'I' for Inactive)
REMARK    1  A    between atoms: N_6  and  C_7
REMARK    2  A    between atoms: C_7  and  C_8
REMARK                            x       y       z     vdW  Elec       q    Type
REMARK                         _______ _______ _______ _____ _____    ______ ____
ROOT
ATOM      1  C   UNL     1      -0.004   1.887  24.613  0.00  0.00    +0.117 C 
ATOM      2  N   UNL     1      -0.762   1.562  24.598  0.00  0.00    -0.261 N 
ATOM      3  C   UNL     1      -1.046   0.969  25.097  0.00  0.00    +0.116 C 
ATOM      4  C   UNL     1      -1.828   0.814  24.889  0.00  0.00    +0.113 C 
ATOM      5  C   UNL     1      -2.386   0.284  25.189  0.00  0.00    +0.094 C 
ATOM      6  N   UNL     1      -3.142   0.251  24.863  0.00  0.00    -0.266 NA
ATOM     15  C   UNL     1      -3.342   0.748  24.235  0.00  0.00    +0.094 C 
ATOM     16  C   UNL     1      -2.786   1.278  23.934  0.00  0.00    +0.112 C 
ATOM     17  N   UNL     1      -2.029   1.311  24.262  0.00  0.00    -0.261 N 
ATOM     18  C   UNL     1      -1.370   1.773  24.082  0.00  0.00    +0.307 C 
ATOM     19  O   UNL     1      -1.326   2.346  23.490  0.00  0.00    -0.252 OA
ENDROOT
BRANCH   6   7
ATOM      7  C   UNL     1      -3.699  -0.278  25.163  0.00  0.00    +0.099 C 
BRANCH   7   8
ATOM      8  C   UNL     1      -3.737  -1.048  24.870  0.00  0.00    -0.006 A 
ATOM      9  C   UNL     1      -4.154  -1.205  24.176  0.00  0.00    -0.001 A 
ATOM     10  C   UNL     1      -4.192  -1.975  23.883  0.00  0.00    +0.029 A 
ATOM     11  C   UNL     1      -3.813  -2.588  24.284  0.00  0.00    +0.140 A 
ATOM     12  F   UNL     1      -3.851  -3.359  23.991  0.00  0.00    -0.204 F 
ATOM     13  C   UNL     1      -3.396  -2.432  24.978  0.00  0.00    +0.029 A 
ATOM     14  C   UNL     1      -3.358  -1.661  25.271  0.00  0.00    -0.001 A 
ENDBRANCH   7   8
ENDBRANCH   6   7
TORSDOF 2
ENDMDL
MODEL 2
REMARK VINA RESULT:      -9.9      1.108      1.861
REMARK  Name = 
REMARK  2 active torsions:
REMARK  status: ('A' for Active; 'I' for Inactive)
REMARK    1  A    between atoms: N_6  and  C_7
REMARK    2  A    between atoms: C_7  and  C_8
REMARK                            x       y       z     vdW  Elec       q    Type
REMARK                         _______ _______ _______ _____ _____    ______ ____
ROOT
ATOM      1  C   UNL     1      -3.823   3.508  23.707  0.00  0.00    +0.117 C 
ATOM      2  N   UNL     1      -3.692   2.760  24.031  0.00  0.00    -0.261 N 
ATOM      3  C   UNL     1      -4.274   2.229  24.277  0.00  0.00    +0.116 C 
ATOM      4  C   UNL     1      -3.898   1.554  24.563  0.00  0.00    +0.113 C 
ATOM      5  C   UNL     1      -4.191   0.850  24.878  0.00  0.00    +0.094 C 
ATOM      6  N   UNL     1      -3.671   0.259  25.124  0.00  0.00    -0.266 NA
ATOM     15  C   UNL     1      -2.856   0.373  25.056  0.00  0.00    +0.094 C 
ATOM     16  C   UNL     1      -2.562   1.076  24.742  0.00  0.00    +0.112 C 
ATOM     17  N   UNL     1      -3.083   1.667  24.495  0.00  0.00    -0.261 N 
ATOM     18  C   UNL     1      -2.956   2.413  24.166  0.00  0.00    +0.307 C 
ATOM     19  O   UNL     1      -2.222   2.751  24.001  0.00  0.00    -0.252 OA
ENDROOT
BRANCH   6   7
ATOM      7  C   UNL     1      -3.964  -0.445  25.439  0.00  0.00    +0.099 C 
BRANCH   7   8
ATOM      8  C   UNL     1      -3.862  -1.154  25.030  0.00  0.00    -0.006 A 
ATOM      9  C   UNL     1      -3.344  -1.727  25.320  0.00  0.00    -0.001 A 
ATOM     10  C   UNL     1      -3.242  -2.436  24.912  0.00  0.00    +0.029 A 
ATOM     11  C   UNL     1      -3.658  -2.572  24.213  0.00  0.00    +0.140 A 
ATOM     12  F   UNL     1      -3.556  -3.282  23.803  0.00  0.00    -0.204 F 
ATOM     13  C   UNL     1      -4.176  -2.000  23.922  0.00  0.00    +0.029 A 
ATOM     14  C   UNL     1      -4.278  -1.290  24.331  0.00  0.00    -0.001 A 
ENDBRANCH   7   8
ENDBRANCH   6   7
TORSDOF 2
ENDMDL
MODEL 3
REMARK VINA RESULT:      -9.3      3.162      3.625
REMARK  Name = 
REMARK  2 active torsions:
REMARK  status: ('A' for Active; 'I' for Inactive)
REMARK    1  A    between atoms: N_6  and  C_7
REMARK    2  A    between atoms: C_7  and  C_8
REMARK                            x       y       z     vdW  Elec       q    Type
REMARK                         _______ _______ _______ _____ _____    ______ ____
ROOT
ATOM      1  C   UNL     1       0.198   1.939  24.563  0.00  0.00    +0.117 C 
ATOM      2  N   UNL     1      -0.522   2.322  24.689  0.00  0.00    -0.261 N 
ATOM      3  C   UNL     1      -1.194   2.259  24.214  0.00  0.00    +0.116 C 
ATOM      4  C   UNL     1      -1.783   2.732  24.543  0.00  0.00    +0.113 C 
ATOM      5  C   UNL     1      -2.561   2.886  24.313  0.00  0.00    +0.094 C 
ATOM      6  N   UNL     1      -3.030   3.395  24.761  0.00  0.00    -0.266 NA
ATOM     15  C   UNL     1      -2.723   3.751  25.438  0.00  0.00    +0.094 C 
ATOM     16  C   UNL     1      -1.946   3.598  25.669  0.00  0.00    +0.112 C 
ATOM     17  N   UNL     1      -1.476   3.088  25.221  0.00  0.00    -0.261 N 
ATOM     18  C   UNL     1      -0.696   2.834  25.311  0.00  0.00    +0.307 C 
ATOM     19  O   UNL     1      -0.181   3.055  25.917  0.00  0.00    -0.252 OA
ENDROOT
BRANCH   6   7
ATOM      7  C   UNL     1      -3.808   3.549  24.531  0.00  0.00    +0.099 C 
BRANCH   7   8
ATOM      8  C   UNL     1      -4.426   3.102  24.843  0.00  0.00    -0.006 A 
ATOM      9  C   UNL     1      -4.775   3.321  25.558  0.00  0.00    -0.001 A 
ATOM     10  C   UNL     1      -5.393   2.875  25.870  0.00  0.00    +0.029 A 
ATOM     11  C   UNL     1      -5.665   2.208  25.467  0.00  0.00    +0.140 A 
ATOM     12  F   UNL     1      -6.285   1.761  25.779  0.00  0.00    -0.204 F 
ATOM     13  C   UNL     1      -5.318   1.988  24.752  0.00  0.00    +0.029 A 
ATOM     14  C   UNL     1      -4.698   2.436  24.440  0.00  0.00    -0.001 A 
ENDBRANCH   7   8
ENDBRANCH   6   7
TORSDOF 2
ENDMDL
MODEL 4
REMARK VINA RESULT:      -7.1     16.575     19.010
REMARK  Name = 
REMARK  2 active torsions:
REMARK  status: ('A' for Active; 'I' for Inactive)
REMARK    1  A    between atoms: N_6  and  C_7
REMARK    2  A    between atoms: C_7  and  C_8
REMARK                            x       y       z     vdW  Elec       q    Type
REMARK                         _______ _______ _______ _____ _____    ______ ____
ROOT
ATOM      1  C   UNL     1      11.301   7.422  22.072  0.00  0.00    +0.117 C 
ATOM      2  N   UNL     1      11.882   7.399  21.487  0.00  0.00    -0.261 N 
ATOM      3  C   UNL     1      12.595   7.814  21.494  0.00  0.00    +0.116 C 
ATOM      4  C   UNL     1      13.005   7.629  20.803  0.00  0.00    +0.113 C 
ATOM      5  C   UNL     1      13.737   7.873  20.513  0.00  0.00    +0.094 C 
ATOM      6  N   UNL     1      14.010   7.589  19.789  0.00  0.00    -0.266 NA
ATOM     15  C   UNL     1      13.551   7.060  19.354  0.00  0.00    +0.094 C 
ATOM     16  C   UNL     1      12.818   6.815  19.643  0.00  0.00    +0.112 C 
ATOM     17  N   UNL     1      12.545   7.100  20.369  0.00  0.00    -0.261 N 
ATOM     18  C   UNL     1      11.851   6.958  20.791  0.00  0.00    +0.307 C 
ATOM     19  O   UNL     1      11.235   6.461  20.558  0.00  0.00    -0.252 OA
ENDROOT
BRANCH   6   7
ATOM      7  C   UNL     1      14.743   7.834  19.498  0.00  0.00    +0.099 C 
BRANCH   7   8
ATOM      8  C   UNL     1      15.408   7.358  19.602  0.00  0.00    -0.006 A 
ATOM      9  C   UNL     1      15.594   6.780  19.043  0.00  0.00    -0.001 A 
ATOM     10  C   UNL     1      16.259   6.304  19.147  0.00  0.00    +0.029 A 
ATOM     11  C   UNL     1      16.739   6.405  19.810  0.00  0.00    +0.140 A 
ATOM     12  F   UNL     1      17.405   5.928  19.914  0.00  0.00    -0.204 F 
ATOM     13  C   UNL     1      16.555   6.982  20.369  0.00  0.00    +0.029 A 
ATOM     14  C   UNL     1      15.888   7.459  20.265  0.00  0.00    -0.001 A 
ENDBRANCH   7   8
ENDBRANCH   6   7
TORSDOF 2
ENDMDL
MODEL 5
REMARK VINA RESULT:      -7.1     16.595     17.860
REMARK  Name = 
REMARK  2 active torsions:
REMARK  status: ('A' for Active; 'I' for Inactive)
REMARK    1  A    between atoms: N_6  and  C_7
REMARK    2  A    between atoms: C_7  and  C_8
REMARK                            x       y       z     vdW  Elec       q    Type
REMARK                         _______ _______ _______ _____ _____    ______ ____
ROOT
ATOM      1  C   UNL     1      16.041   6.972  19.755  0.00  0.00    +0.117 C 
ATOM      2  N   UNL     1      15.217   6.990  19.738  0.00  0.00    -0.261 N 
ATOM      3  C   UNL     1      14.713   6.730  20.339  0.00  0.00    +0.116 C 
ATOM      4  C   UNL     1      13.937   6.850  20.089  0.00  0.00    +0.113 C 
ATOM      5  C   UNL     1      13.211   6.699  20.451  0.00  0.00    +0.094 C 
ATOM      6  N   UNL     1      12.509   6.881  20.059  0.00  0.00    -0.266 NA
ATOM     15  C   UNL     1      12.532   7.215  19.305  0.00  0.00    +0.094 C 
ATOM     16  C   UNL     1      13.257   7.367  18.943  0.00  0.00    +0.112 C 
ATOM     17  N   UNL     1      13.960   7.184  19.335  0.00  0.00    -0.261 N 
ATOM     18  C   UNL     1      14.751   7.270  19.118  0.00  0.00    +0.307 C 
ATOM     19  O   UNL     1      15.027   7.582  18.406  0.00  0.00    -0.252 OA
ENDROOT
BRANCH   6   7
ATOM      7  C   UNL     1      11.782   6.730  20.421  0.00  0.00    +0.099 C 
BRANCH   7   8
ATOM      8  C   UNL     1      11.428   7.306  20.892  0.00  0.00    -0.006 A 
ATOM      9  C   UNL     1      11.035   7.942  20.542  0.00  0.00    -0.001 A 
ATOM     10  C   UNL     1      10.681   8.518  21.013  0.00  0.00    +0.029 A 
ATOM     11  C   UNL     1      10.718   8.459  21.835  0.00  0.00    +0.140 A 
ATOM     12  F   UNL     1      10.363   9.036  22.308  0.00  0.00    -0.204 F 
ATOM     13  C   UNL     1      11.110   7.824  22.186  0.00  0.00    +0.029 A 
ATOM     14  C   UNL     1      11.465   7.247  21.714  0.00  0.00    -0.001 A 
ENDBRANCH   7   8
ENDBRANCH   6   7
TORSDOF 2
ENDMDL
