MODEL 1
REMARK VINA RESULT:     -11.4      0.000      0.000
REMARK  Name = 
REMARK  9 active torsions:
REMARK  status: ('A' for Active; 'I' for Inactive)
REMARK    1  A    between atoms: C_2  and  C_3
REMARK    2  A    between atoms: C_3  and  C_4
REMARK    3  A    between atoms: C_3  and  C_6
REMARK    4  A    between atoms: N_8  and  C_9
REMARK    5  A    between atoms: C_9  and  C_10
REMARK    6  A    between atoms: C_12  and  C_13
REMARK    7  A    between atoms: C_13  and  C_14
REMARK    8  A    between atoms: N_16  and  C_17
REMARK    9  A    between atoms: C_17  and  C_18
REMARK                            x       y       z     vdW  Elec       q    Type
REMARK                         _______ _______ _______ _____ _____    ______ ____
ROOT
ATOM     10  C   UNL     1      -4.493   3.089  25.559  0.00  0.00    +0.170 C 
ATOM     11  O   UNL     1      -4.337   2.350  25.228  0.00  0.00    -0.351 OA
ATOM     12  C   UNL     1      -5.059   1.992  25.051  0.00  0.00    +0.157 C 
ATOM     25  C   UNL     1      -5.662   2.510  25.272  0.00  0.00    +0.212 C 
ATOM     26  O   UNL     1      -6.471   2.373  25.194  0.00  0.00    -0.218 OA
ATOM     27  C   UNL     1      -5.312   3.188  25.586  0.00  0.00    +0.213 C 
ATOM     28  O   UNL     1      -5.710   3.849  25.876  0.00  0.00    -0.218 OA
ENDROOT
BRANCH  10   9
ATOM      9  C   UNL     1      -3.929   3.634  25.816  0.00  0.00    +0.147 C 
BRANCH   9   8
ATOM      6  C   UNL     1      -2.568   4.068  25.833  0.00  0.00    +0.241 C 
ATOM      7  O   UNL     1      -2.713   4.495  26.524  0.00  0.00    -0.273 OA
ATOM      8  N   UNL     1      -3.176   3.637  25.480  0.00  0.00    -0.203 NA
BRANCH   6   3
ATOM      3  C   UNL     1      -1.814   4.071  25.497  0.00  0.00    +0.078 C 
BRANCH   3   2
ATOM      1  C   UNL     1      -0.983   5.110  24.978  0.00  0.00    +0.001 C 
ATOM      2  C   UNL     1      -1.633   4.608  24.898  0.00  0.00    +0.009 C 
ENDBRANCH   3   2
BRANCH   3   4
ATOM      4  C   UNL     1      -1.244   3.537  25.759  0.00  0.00    +0.009 C 
ATOM      5  C   UNL     1      -0.841   3.064  25.216  0.00  0.00    +0.001 C 
ENDBRANCH   3   4
ENDBRANCH   6   3
ENDBRANCH   9   8
ENDBRANCH  10   9
BRANCH  12  13
ATOM     13  C   UNL     1      -5.161   1.246  24.712  0.00  0.00    +0.119 C 
BRANCH  13  14
ATOM     14  C   UNL     1      -4.507   0.828  24.433  0.00  0.00    +0.244 C 
ATOM     15  O   UNL     1      -3.969   1.193  23.925  0.00  0.00    -0.273 OA
ATOM     16  N   UNL     1      -4.390   0.044  24.662  0.00  0.00    -0.200 NA
BRANCH  16  17
ATOM     17  C   UNL     1      -3.737  -0.375  24.383  0.00  0.00    +0.141 C 
BRANCH  17  18
ATOM     18  C   UNL     1      -3.705  -1.195  24.467  0.00  0.00    -0.000 A 
ATOM     19  C   UNL     1      -3.305  -1.529  25.107  0.00  0.00    -0.000 A 
ATOM     20  C   UNL     1      -3.274  -2.349  25.191  0.00  0.00    +0.029 A 
ATOM     21  C   UNL     1      -3.641  -2.835  24.635  0.00  0.00    +0.140 A 
ATOM     22  F   UNL     1      -3.610  -3.655  24.719  0.00  0.00    -0.204 F 
ATOM     23  C   UNL     1      -4.041  -2.501  23.996  0.00  0.00    +0.029 A 
ATOM     24  C   UNL     1      -4.073  -1.681  23.911  0.00  0.00    -0.000 A 
ENDBRANCH  17  18
ENDBRANCH  16  17
ENDBRANCH  13  14
ENDBRANCH  12  13
TORSDOF 9
ENDMDL
MODEL 2
REMARK VINA RESULT:     -11.2      1.816      3.386
REMARK  Name = 
REMARK  9 active torsions:
REMARK  status: ('A' for Active; 'I' for Inactive)
REMARK    1  A    between atoms: C_2  and  C_3
REMARK    2  A    between atoms: C_3  and  C_4
REMARK    3  A    between atoms: C_3  and  C_6
REMARK    4  A    between atoms: N_8  and  C_9
REMARK    5  A    between atoms: C_9  and  C_10
REMARK    6  A    between atoms: C_12  and  C_13
REMARK    7  A    between atoms: C_13  and  C_14
REMARK    8  A    between atoms: N_16  and  C_17
REMARK    9  A    between atoms: C_17  and  C_18
REMARK                            x       y       z     vdW  Elec       q    Type
REMARK                         _______ _______ _______ _____ _____    ______ ____
ROOT
ATOM     10  C   UNL     1      -1.717   2.297  24.563  0.00  0.00    +0.170 C 
ATOM     11  O   UNL     1      -1.803   1.491  24.717  0.00  0.00    -0.351 OA
ATOM     12  C   UNL     1      -1.053   1.147  24.696  0.00  0.00    +0.157 C 
ATOM     25  C   UNL     1      -0.504   1.740  24.529  0.00  0.00    +0.212 C 
ATOM     26  O   UNL     1       0.311   1.639  24.457  0.00  0.00    -0.218 OA
ATOM     27  C   UNL     1      -0.915   2.450  24.447  0.00  0.00    +0.213 C 
ATOM     28  O   UNL     1      -0.582   3.186  24.278  0.00  0.00    -0.218 OA
ENDROOT
BRANCH  10   9
ATOM      9  C   UNL     1      -2.328   2.852  24.531  0.00  0.00    +0.147 C 
BRANCH   9   8
ATOM      6  C   UNL     1      -3.726   3.129  24.635  0.00  0.00    +0.241 C 
ATOM      7  O   UNL     1      -3.629   3.792  24.154  0.00  0.00    -0.273 OA
ATOM      8  N   UNL     1      -3.075   2.659  24.823  0.00  0.00    -0.203 NA
BRANCH   6   3
ATOM      3  C   UNL     1      -4.473   2.937  24.927  0.00  0.00    +0.078 C 
BRANCH   3   2
ATOM      1  C   UNL     1      -5.418   3.727  25.650  0.00  0.00    +0.001 C 
ATOM      2  C   UNL     1      -4.734   3.265  25.637  0.00  0.00    +0.009 C 
ENDBRANCH   3   2
BRANCH   3   4
ATOM      4  C   UNL     1      -4.957   2.417  24.510  0.00  0.00    +0.009 C 
ATOM      5  C   UNL     1      -5.428   1.876  24.916  0.00  0.00    +0.001 C 
ENDBRANCH   3   4
ENDBRANCH   6   3
ENDBRANCH   9   8
ENDBRANCH  10   9
BRANCH  12  13
ATOM     13  C   UNL     1      -0.882   0.349  24.820  0.00  0.00    +0.119 C 
BRANCH  13  14
ATOM     14  C   UNL     1      -1.416  -0.128  25.228  0.00  0.00    +0.244 C 
ATOM     15  O   UNL     1      -1.421  -0.132  26.053  0.00  0.00    -0.273 OA
ATOM     16  N   UNL     1      -1.947  -0.603  24.811  0.00  0.00    -0.200 NA
BRANCH  16  17
ATOM     17  C   UNL     1      -2.482  -1.080  25.218  0.00  0.00    +0.141 C 
BRANCH  17  18
ATOM     18  C   UNL     1      -3.040  -1.524  24.802  0.00  0.00    -0.000 A 
ATOM     19  C   UNL     1      -3.686  -1.150  24.450  0.00  0.00    -0.000 A 
ATOM     20  C   UNL     1      -4.242  -1.594  24.034  0.00  0.00    +0.029 A 
ATOM     21  C   UNL     1      -4.155  -2.412  23.971  0.00  0.00    +0.140 A 
ATOM     22  F   UNL     1      -4.712  -2.856  23.556  0.00  0.00    -0.204 F 
ATOM     23  C   UNL     1      -3.510  -2.786  24.324  0.00  0.00    +0.029 A 
ATOM     24  C   UNL     1      -2.952  -2.342  24.739  0.00  0.00    -0.000 A 
ENDBRANCH  17  18
ENDBRANCH  16  17
ENDBRANCH  13  14
ENDBRANCH  12  13
TORSDOF 9
ENDMDL
MODEL 3
REMARK VINA RESULT:     -10.8      2.600      5.491
REMARK  Name = 
REMARK  9 active torsions:
REMARK  status: ('A' for Active; 'I' for Inactive)
REMARK    1  A    between atoms: C_2  and  C_3
REMARK    2  A    between atoms: C_3  and  C_4
REMARK    3  A    between atoms: C_3  and  C_6
REMARK    4  A    between atoms: N_8  and  C_9
REMARK    5  A    between atoms: C_9  and  C_10
REMARK    6  A    between atoms: C_12  and  C_13
REMARK    7  A    between atoms: C_13  and  C_14
REMARK    8  A    between atoms: N_16  and  C_17
REMARK    9  A    between atoms: C_17  and  C_18
REMARK                            x       y       z     vdW  Elec       q    Type
REMARK                         _______ _______ _______ _____ _____    ______ ____
ROOT
ATOM     10  C   UNL     1      -0.998   0.011  24.227  0.00  0.00    +0.170 C 
ATOM     11  O   UNL     1      -1.488   0.672  24.169  0.00  0.00    -0.351 OA
ATOM     12  C   UNL     1      -1.011   1.333  24.042  0.00  0.00    +0.157 C 
ATOM     25  C   UNL     1      -0.226   1.081  24.021  0.00  0.00    +0.212 C 
ATOM     26  O   UNL     1       0.435   1.561  23.907  0.00  0.00    -0.218 OA
ATOM     27  C   UNL     1      -0.218   0.264  24.135  0.00  0.00    +0.213 C 
ATOM     28  O   UNL     1       0.452  -0.217  24.154  0.00  0.00    -0.218 OA
ENDROOT
BRANCH  10   9
ATOM      9  C   UNL     1      -1.245  -0.766  24.353  0.00  0.00    +0.147 C 
BRANCH   9   8
ATOM      6  C   UNL     1      -2.288  -1.702  24.634  0.00  0.00    +0.241 C 
ATOM      7  O   UNL     1      -1.742  -2.320  24.596  0.00  0.00    -0.273 OA
ATOM      8  N   UNL     1      -2.039  -0.925  24.513  0.00  0.00    -0.203 NA
BRANCH   6   3
ATOM      3  C   UNL     1      -3.081  -1.861  24.794  0.00  0.00    +0.078 C 
BRANCH   3   2
ATOM      1  C   UNL     1      -3.767  -1.363  25.944  0.00  0.00    +0.001 C 
ATOM      2  C   UNL     1      -3.334  -1.959  25.572  0.00  0.00    +0.009 C 
ENDBRANCH   3   2
BRANCH   3   4
ATOM      4  C   UNL     1      -3.622  -1.922  24.174  0.00  0.00    +0.009 C 
ATOM      5  C   UNL     1      -4.071  -2.608  24.085  0.00  0.00    +0.001 C 
ENDBRANCH   3   4
ENDBRANCH   6   3
ENDBRANCH   9   8
ENDBRANCH  10   9
BRANCH  12  13
ATOM     13  C   UNL     1      -1.273   2.110  23.952  0.00  0.00    +0.119 C 
BRANCH  13  14
ATOM     14  C   UNL     1      -2.033   2.259  23.667  0.00  0.00    +0.244 C 
ATOM     15  O   UNL     1      -2.197   2.171  22.863  0.00  0.00    -0.273 OA
ATOM     16  N   UNL     1      -2.629   2.495  24.186  0.00  0.00    -0.200 NA
BRANCH  16  17
ATOM     17  C   UNL     1      -3.389   2.643  23.902  0.00  0.00    +0.141 C 
BRANCH  17  18
ATOM     18  C   UNL     1      -4.011   2.767  24.430  0.00  0.00    -0.000 A 
ATOM     19  C   UNL     1      -4.078   3.488  24.827  0.00  0.00    -0.000 A 
ATOM     20  C   UNL     1      -4.700   3.610  25.354  0.00  0.00    +0.029 A 
ATOM     21  C   UNL     1      -5.255   3.014  25.484  0.00  0.00    +0.140 A 
ATOM     22  F   UNL     1      -5.877   3.138  26.012  0.00  0.00    -0.204 F 
ATOM     23  C   UNL     1      -5.188   2.294  25.088  0.00  0.00    +0.029 A 
ATOM     24  C   UNL     1      -4.566   2.170  24.560  0.00  0.00    -0.000 A 
ENDBRANCH  17  18
ENDBRANCH  16  17
ENDBRANCH  13  14
ENDBRANCH  12  13
TORSDOF 9
ENDMDL
MODEL 4
REMARK VINA RESULT:     -10.6      1.641      4.515
REMARK  Name = 
REMARK  9 active torsions:
REMARK  status: ('A' for Active; 'I' for Inactive)
REMARK    1  A    between atoms: C_2  and  C_3
REMARK    2  A    between atoms: C_3  and  C_4
REMARK    3  A    between atoms: C_3  and  C_6
REMARK    4  A    between atoms: N_8  and  C_9
REMARK    5  A    between atoms: C_9  and  C_10
REMARK    6  A    between atoms: C_12  and  C_13
REMARK    7  A    between atoms: C_13  and  C_14
REMARK    8  A    between atoms: N_16  and  C_17
REMARK    9  A    between atoms: C_17  and  C_18
REMARK                            x       y       z     vdW  Elec       q    Type
REMARK                         _______ _______ _______ _____ _____    ______ ____
ROOT
ATOM     10  C   UNL     1      -4.906   1.618  25.049  0.00  0.00    +0.170 C 
ATOM     11  O   UNL     1      -4.279   2.145  25.150  0.00  0.00    -0.351 OA
ATOM     12  C   UNL     1      -4.592   2.873  25.377  0.00  0.00    +0.157 C 
ATOM     25  C   UNL     1      -5.413   2.797  25.416  0.00  0.00    +0.212 C 
ATOM     26  O   UNL     1      -5.946   3.392  25.622  0.00  0.00    -0.218 OA
ATOM     27  C   UNL     1      -5.606   2.021  25.213  0.00  0.00    +0.213 C 
ATOM     28  O   UNL     1      -6.367   1.704  25.181  0.00  0.00    -0.218 OA
ENDROOT
BRANCH  10   9
ATOM      9  C   UNL     1      -4.842   0.827  24.823  0.00  0.00    +0.147 C 
BRANCH   9   8
ATOM      6  C   UNL     1      -4.041  -0.354  24.738  0.00  0.00    +0.241 C 
ATOM      7  O   UNL     1      -4.501  -0.619  24.107  0.00  0.00    -0.273 OA
ATOM      8  N   UNL     1      -4.212   0.370  25.096  0.00  0.00    -0.203 NA
BRANCH   6   3
ATOM      3  C   UNL     1      -3.411  -0.811  25.011  0.00  0.00    +0.078 C 
BRANCH   3   2
ATOM      1  C   UNL     1      -3.432  -2.212  25.284  0.00  0.00    +0.001 C 
ATOM      2  C   UNL     1      -3.549  -1.434  25.532  0.00  0.00    +0.009 C 
ENDBRANCH   3   2
BRANCH   3   4
ATOM      4  C   UNL     1      -2.643  -0.643  24.763  0.00  0.00    +0.009 C 
ATOM      5  C   UNL     1      -2.022  -0.655  25.307  0.00  0.00    +0.001 C 
ENDBRANCH   3   4
ENDBRANCH   6   3
ENDBRANCH   9   8
ENDBRANCH  10   9
BRANCH  12  13
ATOM     13  C   UNL     1      -4.161   3.558  25.537  0.00  0.00    +0.119 C 
BRANCH  13  14
ATOM     14  C   UNL     1      -3.473   3.721  25.113  0.00  0.00    +0.244 C 
ATOM     15  O   UNL     1      -3.520   4.086  24.374  0.00  0.00    -0.273 OA
ATOM     16  N   UNL     1      -2.737   3.518  25.426  0.00  0.00    -0.200 NA
BRANCH  16  17
ATOM     17  C   UNL     1      -2.049   3.680  25.002  0.00  0.00    +0.141 C 
BRANCH  17  18
ATOM     18  C   UNL     1      -1.354   3.268  25.169  0.00  0.00    -0.000 A 
ATOM     19  C   UNL     1      -1.080   3.216  25.946  0.00  0.00    -0.000 A 
ATOM     20  C   UNL     1      -0.386   2.803  26.111  0.00  0.00    +0.029 A 
ATOM     21  C   UNL     1       0.036   2.443  25.501  0.00  0.00    +0.140 A 
ATOM     22  F   UNL     1       0.731   2.030  25.666  0.00  0.00    -0.204 F 
ATOM     23  C   UNL     1      -0.237   2.495  24.724  0.00  0.00    +0.029 A 
ATOM     24  C   UNL     1      -0.932   2.907  24.557  0.00  0.00    -0.000 A 
ENDBRANCH  17  18
ENDBRANCH  16  17
ENDBRANCH  13  14
ENDBRANCH  12  13
TORSDOF 9
ENDMDL
