REMARK  Name = 
REMARK  6 active torsions:
REMARK  status: ('A' for Active; 'I' for Inactive)
REMARK    1  A    between atoms: C_4  and  C_6
REMARK    2  A    between atoms: C_6  and  N_7
REMARK    3  A    between atoms: C_8  and  C_9
REMARK    4  A    between atoms: C_11  and  C_16
REMARK    5  A    between atoms: C_19  and  N_20
REMARK    6  A    between atoms: N_20  and  S_21
REMARK                            x       y       z     vdW  Elec       q    Type
REMARK                         _______ _______ _______ _____ _____    ______ ____
ROOT
ATOM      7  N   UNL     1       0.715  -1.238   0.000  0.00  0.00    -0.265 N 
ATOM      8  C   UNL     1       1.429  -1.650   0.000  0.00  0.00    +0.140 C 
ATOM     11  C   UNL     1       1.429  -2.475   0.000  0.00  0.00    +0.159 C 
ATOM     12  O   UNL     1       0.715  -2.888   0.000  0.00  0.00    -0.341 OA
ATOM     13  C   UNL     1       0.000  -2.475   0.000  0.00  0.00    +0.227 C 
ATOM     14  C   UNL     1       0.000  -1.650   0.000  0.00  0.00    +0.256 C 
ATOM     15  O   UNL     1      -0.715  -1.238   0.000  0.00  0.00    -0.272 OA
ENDROOT
BRANCH  11  16
ATOM     16  C   UNL     1       2.143  -2.888   0.000  0.00  0.00    +0.006 A 
ATOM     17  C   UNL     1       2.858  -2.475   0.000  0.00  0.00    -0.001 A 
ATOM     18  C   UNL     1       3.572  -2.888   0.000  0.00  0.00    +0.018 A 
ATOM     19  C   UNL     1       3.572  -3.712   0.000  0.00  0.00    +0.091 A 
ATOM     25  C   UNL     1       2.858  -4.125   0.000  0.00  0.00    +0.018 A 
ATOM     26  C   UNL     1       2.143  -3.712   0.000  0.00  0.00    -0.001 A 
BRANCH  19  20
ATOM     20  N   UNL     1       4.287  -4.125   0.000  0.00  0.00    -0.101 NA
BRANCH  20  21
ATOM     21  S   UNL     1       5.001  -3.712   0.000  0.00  0.00    +0.075 S 
ATOM     22  C   UNL     1       5.716  -3.300   0.000  0.00  0.00    +0.202 C 
ATOM     23  O   UNL     1       5.414  -4.427   0.000  0.00  0.00    -0.153 OA
ATOM     24  O   UNL     1       4.589  -2.998   0.000  0.00  0.00    -0.153 OA
ENDBRANCH  20  21
ENDBRANCH  19  20
ENDBRANCH  11  16
BRANCH   8   9
ATOM      9  C   UNL     1       2.143  -1.238   0.000  0.00  0.00    +0.205 C 
ATOM     10  O   UNL     1       2.858  -1.650   0.000  0.00  0.00    -0.218 OA
ENDBRANCH   8   9
BRANCH   7   6
ATOM      6  C   UNL     1       0.715  -0.412   0.000  0.00  0.00    +0.179 C 
BRANCH   6   4
ATOM      1  C   UNL     1      -0.715   1.238   0.000  0.00  0.00    +0.115 C 
ATOM      2  N   UNL     1       0.000   0.825   0.000  0.00  0.00    -0.275 N 
ATOM      3  C   UNL     1       0.715   1.238   0.000  0.00  0.00    +0.115 C 
ATOM      4  C   UNL     1       0.000   0.000   0.000  0.00  0.00    +0.246 C 
ATOM      5  O   UNL     1      -0.715  -0.412   0.000  0.00  0.00    -0.273 OA
ENDBRANCH   6   4
ENDBRANCH   7   6
TORSDOF 6
