MODEL 1
REMARK VINA RESULT:      -8.6      0.000      0.000
REMARK  Name = 
REMARK  6 active torsions:
REMARK  status: ('A' for Active; 'I' for Inactive)
REMARK    1  A    between atoms: N_5  and  C_8
REMARK    2  A    between atoms: C_11  and  C_14
REMARK    3  A    between atoms: C_17  and  C_19
REMARK    4  A    between atoms: N_23  and  C_24
REMARK    5  A    between atoms: C_24  and  C_25
REMARK    6  A    between atoms: C_28  and  C_31
REMARK                            x       y       z     vdW  Elec       q    Type
REMARK                         _______ _______ _______ _____ _____    ______ ____
ROOT
ATOM     14  C   UNL     1      -1.301  -0.253  24.468  0.00  0.00    +0.205 A 
ATOM     15  N   UNL     1      -1.440  -0.578  25.214  0.00  0.00    -0.056 NA
ATOM     16  O   UNL     1      -2.256  -0.599  25.335  0.00  0.00    -0.336 OA
ATOM     17  C   UNL     1      -2.621  -0.287  24.664  0.00  0.00    +0.251 A 
ATOM     18  N   UNL     1      -2.030  -0.073  24.129  0.00  0.00    -0.190 NA
ENDROOT
BRANCH  14  11
ATOM      8  C   UNL     1       0.917   0.116  23.433  0.00  0.00    +0.132 A 
ATOM      9  C   UNL     1       0.452   0.761  23.654  0.00  0.00    +0.034 A 
ATOM     10  C   UNL     1      -0.288   0.638  23.999  0.00  0.00    +0.008 A 
ATOM     11  C   UNL     1      -0.561  -0.130  24.123  0.00  0.00    +0.058 A 
ATOM     12  C   UNL     1      -0.096  -0.775  23.904  0.00  0.00    +0.103 A 
ATOM     13  N   UNL     1       0.643  -0.652  23.559  0.00  0.00    -0.229 NA
BRANCH   8   5
ATOM      1  C   UNL     1       3.874   0.609  22.054  0.00  0.00    +0.090 C 
ATOM      2  N   UNL     1       3.135   0.486  22.399  0.00  0.00    -0.269 NA
ATOM      3  C   UNL     1       2.612  -0.062  22.071  0.00  0.00    +0.094 C 
ATOM      4  C   UNL     1       1.873  -0.185  22.416  0.00  0.00    +0.109 C 
ATOM      5  N   UNL     1       1.656   0.240  23.089  0.00  0.00    -0.290 N 
ATOM      6  C   UNL     1       2.178   0.788  23.417  0.00  0.00    +0.109 C 
ATOM      7  C   UNL     1       2.917   0.911  23.072  0.00  0.00    +0.094 C 
ENDBRANCH   8   5
ENDBRANCH  14  11
BRANCH  17  19
ATOM     19  C   UNL     1      -3.433  -0.203  24.549  0.00  0.00    +0.138 C 
ATOM     20  C   UNL     1      -3.936  -0.765  24.213  0.00  0.00    +0.027 C 
ATOM     21  C   UNL     1      -4.699  -0.452  24.205  0.00  0.00    +0.019 C 
ATOM     22  C   UNL     1      -4.668   0.303  24.536  0.00  0.00    +0.073 C 
ATOM     23  N   UNL     1      -3.886   0.457  24.749  0.00  0.00    -0.263 NA
BRANCH  23  24
ATOM     24  C   UNL     1      -3.606   1.149  25.099  0.00  0.00    +0.099 C 
BRANCH  24  25
ATOM     25  C   UNL     1      -4.105   1.800  25.185  0.00  0.00    -0.006 A 
ATOM     26  C   UNL     1      -4.705   1.788  25.751  0.00  0.00    -0.003 A 
ATOM     27  C   UNL     1      -5.205   2.440  25.836  0.00  0.00    +0.006 A 
ATOM     28  C   UNL     1      -5.104   3.102  25.354  0.00  0.00    +0.080 A 
ATOM     29  C   UNL     1      -4.505   3.113  24.788  0.00  0.00    +0.006 A 
ATOM     30  C   UNL     1      -4.005   2.463  24.703  0.00  0.00    -0.003 A 
BRANCH  28  31
ATOM     31  C   UNL     1      -5.604   3.753  25.440  0.00  0.00    +0.388 C 
ATOM     32  O   UNL     1      -6.336   3.666  25.813  0.00  0.00    -0.241 OA
ATOM     33  O   UNL     1      -5.372   4.491  25.152  0.00  0.00    -0.241 OA
ENDBRANCH  28  31
ENDBRANCH  24  25
ENDBRANCH  23  24
ENDBRANCH  17  19
TORSDOF 6
ENDMDL
MODEL 2
REMARK VINA RESULT:      -7.7      3.328      4.658
REMARK  Name = 
REMARK  6 active torsions:
REMARK  status: ('A' for Active; 'I' for Inactive)
REMARK    1  A    between atoms: N_5  and  C_8
REMARK    2  A    between atoms: C_11  and  C_14
REMARK    3  A    between atoms: C_17  and  C_19
REMARK    4  A    between atoms: N_23  and  C_24
REMARK    5  A    between atoms: C_24  and  C_25
REMARK    6  A    between atoms: C_28  and  C_31
REMARK                            x       y       z     vdW  Elec       q    Type
REMARK                         _______ _______ _______ _____ _____    ______ ____
ROOT
ATOM     14  C   UNL     1      -4.876   0.972  25.324  0.00  0.00    +0.205 A 
ATOM     15  N   UNL     1      -5.623   0.996  25.676  0.00  0.00    -0.056 NA
ATOM     16  O   UNL     1      -5.828   1.787  25.786  0.00  0.00    -0.336 OA
ATOM     17  C   UNL     1      -5.208   2.253  25.503  0.00  0.00    +0.251 A 
ATOM     18  N   UNL     1      -4.620   1.749  25.217  0.00  0.00    -0.190 NA
ENDROOT
BRANCH  14  11
ATOM      8  C   UNL     1      -3.626  -1.071  24.701  0.00  0.00    +0.132 A 
ATOM      9  C   UNL     1      -3.982  -0.611  24.117  0.00  0.00    +0.034 A 
ATOM     10  C   UNL     1      -4.399   0.071  24.325  0.00  0.00    +0.008 A 
ATOM     11  C   UNL     1      -4.459   0.291  25.117  0.00  0.00    +0.058 A 
ATOM     12  C   UNL     1      -4.104  -0.169  25.702  0.00  0.00    +0.103 A 
ATOM     13  N   UNL     1      -3.687  -0.850  25.494  0.00  0.00    -0.229 NA
BRANCH   8   5
ATOM      1  C   UNL     1      -1.959  -3.795  23.871  0.00  0.00    +0.090 C 
ATOM      2  N   UNL     1      -2.376  -3.114  24.078  0.00  0.00    -0.269 NA
ATOM      3  C   UNL     1      -3.200  -3.121  24.086  0.00  0.00    +0.094 C 
ATOM      4  C   UNL     1      -3.617  -2.440  24.294  0.00  0.00    +0.109 C 
ATOM      5  N   UNL     1      -3.209  -1.752  24.494  0.00  0.00    -0.290 N 
ATOM      6  C   UNL     1      -2.384  -1.744  24.486  0.00  0.00    +0.109 C 
ATOM      7  C   UNL     1      -1.967  -2.425  24.278  0.00  0.00    +0.094 C 
ENDBRANCH   8   5
ENDBRANCH  14  11
BRANCH  17  19
ATOM     19  C   UNL     1      -5.181   3.077  25.504  0.00  0.00    +0.138 C 
ATOM     20  C   UNL     1      -5.821   3.584  25.384  0.00  0.00    +0.027 C 
ATOM     21  C   UNL     1      -5.546   4.359  25.431  0.00  0.00    +0.019 C 
ATOM     22  C   UNL     1      -4.734   4.333  25.581  0.00  0.00    +0.073 C 
ATOM     23  N   UNL     1      -4.509   3.540  25.626  0.00  0.00    -0.263 NA
BRANCH  23  24
ATOM     24  C   UNL     1      -3.747   3.260  25.768  0.00  0.00    +0.099 C 
BRANCH  24  25
ATOM     25  C   UNL     1      -3.094   3.724  25.572  0.00  0.00    -0.006 A 
ATOM     26  C   UNL     1      -2.760   3.670  24.820  0.00  0.00    -0.003 A 
ATOM     27  C   UNL     1      -2.106   4.134  24.624  0.00  0.00    +0.006 A 
ATOM     28  C   UNL     1      -1.787   4.652  25.181  0.00  0.00    +0.080 A 
ATOM     29  C   UNL     1      -2.121   4.706  25.933  0.00  0.00    +0.006 A 
ATOM     30  C   UNL     1      -2.774   4.243  26.129  0.00  0.00    -0.003 A 
BRANCH  28  31
ATOM     31  C   UNL     1      -1.133   5.117  24.985  0.00  0.00    +0.388 C 
ATOM     32  O   UNL     1      -1.193   5.940  24.995  0.00  0.00    -0.241 OA
ATOM     33  O   UNL     1      -0.420   4.757  24.778  0.00  0.00    -0.241 OA
ENDBRANCH  28  31
ENDBRANCH  24  25
ENDBRANCH  23  24
ENDBRANCH  17  19
TORSDOF 6
ENDMDL
MODEL 3
REMARK VINA RESULT:      -7.6      1.608      3.140
REMARK  Name = 
REMARK  6 active torsions:
REMARK  status: ('A' for Active; 'I' for Inactive)
REMARK    1  A    between atoms: N_5  and  C_8
REMARK    2  A    between atoms: C_11  and  C_14
REMARK    3  A    between atoms: C_17  and  C_19
REMARK    4  A    between atoms: N_23  and  C_24
REMARK    5  A    between atoms: C_24  and  C_25
REMARK    6  A    between atoms: C_28  and  C_31
REMARK                            x       y       z     vdW  Elec       q    Type
REMARK                         _______ _______ _______ _____ _____    ______ ____
ROOT
ATOM     14  C   UNL     1      -1.013   1.549  24.584  0.00  0.00    +0.205 A 
ATOM     15  N   UNL     1      -1.121   1.931  25.308  0.00  0.00    -0.056 NA
ATOM     16  O   UNL     1      -1.933   2.003  25.440  0.00  0.00    -0.336 OA
ATOM     17  C   UNL     1      -2.326   1.665  24.798  0.00  0.00    +0.251 A 
ATOM     18  N   UNL     1      -1.758   1.384  24.270  0.00  0.00    -0.190 NA
ENDROOT
BRANCH  14  11
ATOM      8  C   UNL     1       1.162   0.995  23.542  0.00  0.00    +0.132 A 
ATOM      9  C   UNL     1       0.538   0.458  23.505  0.00  0.00    +0.034 A 
ATOM     10  C   UNL     1      -0.187   0.642  23.852  0.00  0.00    +0.008 A 
ATOM     11  C   UNL     1      -0.288   1.364  24.237  0.00  0.00    +0.058 A 
ATOM     12  C   UNL     1       0.336   1.903  24.275  0.00  0.00    +0.103 A 
ATOM     13  N   UNL     1       1.061   1.718  23.928  0.00  0.00    -0.229 NA
BRANCH   8   5
ATOM      1  C   UNL     1       4.063   0.257  22.153  0.00  0.00    +0.090 C 
ATOM      2  N   UNL     1       3.338   0.441  22.501  0.00  0.00    -0.269 NA
ATOM      3  C   UNL     1       3.270   1.104  22.987  0.00  0.00    +0.094 C 
ATOM      4  C   UNL     1       2.545   1.288  23.335  0.00  0.00    +0.109 C 
ATOM      5  N   UNL     1       1.888   0.811  23.195  0.00  0.00    -0.290 N 
ATOM      6  C   UNL     1       1.954   0.147  22.709  0.00  0.00    +0.109 C 
ATOM      7  C   UNL     1       2.680  -0.037  22.361  0.00  0.00    +0.094 C 
ENDBRANCH   8   5
ENDBRANCH  14  11
BRANCH  17  19
ATOM     19  C   UNL     1      -3.144   1.615  24.702  0.00  0.00    +0.138 C 
ATOM     20  C   UNL     1      -3.625   2.181  24.342  0.00  0.00    +0.027 C 
ATOM     21  C   UNL     1      -4.402   1.908  24.366  0.00  0.00    +0.019 C 
ATOM     22  C   UNL     1      -4.403   1.172  24.740  0.00  0.00    +0.073 C 
ATOM     23  N   UNL     1      -3.624   0.991  24.948  0.00  0.00    -0.263 NA
BRANCH  23  24
ATOM     24  C   UNL     1      -3.372   0.307  25.333  0.00  0.00    +0.099 C 
BRANCH  24  25
ATOM     25  C   UNL     1      -3.558  -0.434  25.023  0.00  0.00    -0.006 A 
ATOM     26  C   UNL     1      -3.923  -0.493  24.286  0.00  0.00    -0.003 A 
ATOM     27  C   UNL     1      -4.109  -1.235  23.975  0.00  0.00    +0.006 A 
ATOM     28  C   UNL     1      -3.930  -1.917  24.403  0.00  0.00    +0.080 A 
ATOM     29  C   UNL     1      -3.565  -1.858  25.140  0.00  0.00    +0.006 A 
ATOM     30  C   UNL     1      -3.379  -1.117  25.450  0.00  0.00    -0.003 A 
BRANCH  28  31
ATOM     31  C   UNL     1      -4.116  -2.659  24.092  0.00  0.00    +0.388 C 
ATOM     32  O   UNL     1      -4.742  -2.738  23.559  0.00  0.00    -0.241 OA
ATOM     33  O   UNL     1      -3.677  -3.320  24.315  0.00  0.00    -0.241 OA
ENDBRANCH  28  31
ENDBRANCH  24  25
ENDBRANCH  23  24
ENDBRANCH  17  19
TORSDOF 6
ENDMDL
MODEL 4
REMARK VINA RESULT:      -7.3      1.960      6.470
REMARK  Name = 
REMARK  6 active torsions:
REMARK  status: ('A' for Active; 'I' for Inactive)
REMARK    1  A    between atoms: N_5  and  C_8
REMARK    2  A    between atoms: C_11  and  C_14
REMARK    3  A    between atoms: C_17  and  C_19
REMARK    4  A    between atoms: N_23  and  C_24
REMARK    5  A    between atoms: C_24  and  C_25
REMARK    6  A    between atoms: C_28  and  C_31
REMARK                            x       y       z     vdW  Elec       q    Type
REMARK                         _______ _______ _______ _____ _____    ______ ____
ROOT
ATOM     14  C   UNL     1      -2.929   0.111  24.592  0.00  0.00    +0.205 A 
ATOM     15  N   UNL     1      -3.146  -0.538  24.130  0.00  0.00    -0.056 NA
ATOM     16  O   UNL     1      -2.509  -1.062  24.111  0.00  0.00    -0.336 OA
ATOM     17  C   UNL     1      -1.898  -0.737  24.561  0.00  0.00    +0.251 A 
ATOM     18  N   UNL     1      -2.158  -0.012  24.858  0.00  0.00    -0.190 NA
ENDROOT
BRANCH  14  11
ATOM      8  C   UNL     1      -4.343   2.081  25.089  0.00  0.00    +0.132 A 
ATOM      9  C   UNL     1      -4.685   1.333  25.019  0.00  0.00    +0.034 A 
ATOM     10  C   UNL     1      -4.214   0.677  24.854  0.00  0.00    +0.008 A 
ATOM     11  C   UNL     1      -3.400   0.768  24.758  0.00  0.00    +0.058 A 
ATOM     12  C   UNL     1      -3.056   1.515  24.827  0.00  0.00    +0.103 A 
ATOM     13  N   UNL     1      -3.528   2.171  24.993  0.00  0.00    -0.229 NA
BRANCH   8   5
ATOM      1  C   UNL     1      -6.228   4.706  25.752  0.00  0.00    +0.090 C 
ATOM      2  N   UNL     1      -5.757   4.050  25.587  0.00  0.00    -0.269 NA
ATOM      3  C   UNL     1      -5.010   4.152  25.252  0.00  0.00    +0.094 C 
ATOM      4  C   UNL     1      -4.539   3.495  25.086  0.00  0.00    +0.109 C 
ATOM      5  N   UNL     1      -4.814   2.737  25.255  0.00  0.00    -0.290 N 
ATOM      6  C   UNL     1      -5.562   2.634  25.590  0.00  0.00    +0.109 C 
ATOM      7  C   UNL     1      -6.033   3.290  25.755  0.00  0.00    +0.094 C 
ENDBRANCH   8   5
ENDBRANCH  14  11
BRANCH  17  19
ATOM     19  C   UNL     1      -1.158  -1.077  24.692  0.00  0.00    +0.138 C 
ATOM     20  C   UNL     1      -0.988  -1.676  25.234  0.00  0.00    +0.027 C 
ATOM     21  C   UNL     1      -0.183  -1.847  25.180  0.00  0.00    +0.019 C 
ATOM     22  C   UNL     1       0.145  -1.354  24.605  0.00  0.00    +0.073 C 
ATOM     23  N   UNL     1      -0.458  -0.878  24.303  0.00  0.00    -0.263 NA
BRANCH  23  24
ATOM     24  C   UNL     1      -0.374  -0.305  23.717  0.00  0.00    +0.099 C 
BRANCH  24  25
ATOM     25  C   UNL     1       0.377  -0.088  23.455  0.00  0.00    -0.006 A 
ATOM     26  C   UNL     1       0.739  -0.508  22.846  0.00  0.00    -0.003 A 
ATOM     27  C   UNL     1       1.492  -0.291  22.584  0.00  0.00    +0.006 A 
ATOM     28  C   UNL     1       1.881   0.347  22.933  0.00  0.00    +0.080 A 
ATOM     29  C   UNL     1       1.518   0.768  23.543  0.00  0.00    +0.006 A 
ATOM     30  C   UNL     1       0.767   0.551  23.804  0.00  0.00    -0.003 A 
BRANCH  28  31
ATOM     31  C   UNL     1       2.633   0.564  22.672  0.00  0.00    +0.388 C 
ATOM     32  O   UNL     1       2.955   0.208  22.000  0.00  0.00    -0.241 OA
ATOM     33  O   UNL     1       3.062   1.137  23.082  0.00  0.00    -0.241 OA
ENDBRANCH  28  31
ENDBRANCH  24  25
ENDBRANCH  23  24
ENDBRANCH  17  19
TORSDOF 6
ENDMDL
MODEL 5
REMARK VINA RESULT:      -7.1      2.541      7.143
REMARK  Name = 
REMARK  6 active torsions:
REMARK  status: ('A' for Active; 'I' for Inactive)
REMARK    1  A    between atoms: N_5  and  C_8
REMARK    2  A    between atoms: C_11  and  C_14
REMARK    3  A    between atoms: C_17  and  C_19
REMARK    4  A    between atoms: N_23  and  C_24
REMARK    5  A    between atoms: C_24  and  C_25
REMARK    6  A    between atoms: C_28  and  C_31
REMARK                            x       y       z     vdW  Elec       q    Type
REMARK                         _______ _______ _______ _____ _____    ______ ____
ROOT
ATOM     14  C   UNL     1      -0.408   0.446  23.841  0.00  0.00    +0.205 A 
ATOM     15  N   UNL     1      -0.088  -0.193  24.255  0.00  0.00    -0.056 NA
ATOM     16  O   UNL     1       0.524  -0.510  23.800  0.00  0.00    -0.336 OA
ATOM     17  C   UNL     1       0.581  -0.068  23.106  0.00  0.00    +0.251 A 
ATOM     18  N   UNL     1       0.005   0.523  23.132  0.00  0.00    -0.190 NA
ENDROOT
BRANCH  14  11
ATOM      8  C   UNL     1      -2.279   1.878  24.599  0.00  0.00    +0.132 A 
ATOM      9  C   UNL     1      -2.173   1.728  23.794  0.00  0.00    +0.034 A 
ATOM     10  C   UNL     1      -1.549   1.251  23.542  0.00  0.00    +0.008 A 
ATOM     11  C   UNL     1      -1.031   0.923  24.094  0.00  0.00    +0.058 A 
ATOM     12  C   UNL     1      -1.136   1.073  24.899  0.00  0.00    +0.103 A 
ATOM     13  N   UNL     1      -1.760   1.551  25.151  0.00  0.00    -0.229 NA
BRANCH   8   5
ATOM      1  C   UNL     1      -4.773   3.788  25.608  0.00  0.00    +0.090 C 
ATOM      2  N   UNL     1      -4.149   3.311  25.356  0.00  0.00    -0.269 NA
ATOM      3  C   UNL     1      -3.379   3.605  25.354  0.00  0.00    +0.094 C 
ATOM      4  C   UNL     1      -2.755   3.127  25.101  0.00  0.00    +0.109 C 
ATOM      5  N   UNL     1      -2.902   2.356  24.851  0.00  0.00    -0.290 N 
ATOM      6  C   UNL     1      -3.673   2.061  24.853  0.00  0.00    +0.109 C 
ATOM      7  C   UNL     1      -4.296   2.538  25.105  0.00  0.00    +0.094 C 
ENDBRANCH   8   5
ENDBRANCH  14  11
BRANCH  17  19
ATOM     19  C   UNL     1       1.119  -0.194  22.494  0.00  0.00    +0.138 C 
ATOM     20  C   UNL     1       0.951  -0.544  21.765  0.00  0.00    +0.027 C 
ATOM     21  C   UNL     1       1.647  -0.559  21.323  0.00  0.00    +0.019 C 
ATOM     22  C   UNL     1       2.246  -0.219  21.779  0.00  0.00    +0.073 C 
ATOM     23  N   UNL     1       1.919   0.006  22.502  0.00  0.00    -0.263 NA
BRANCH  23  24
ATOM     24  C   UNL     1       2.322   0.368  23.124  0.00  0.00    +0.099 C 
BRANCH  24  25
ATOM     25  C   UNL     1       3.143   0.307  23.175  0.00  0.00    -0.006 A 
ATOM     26  C   UNL     1       3.619   0.936  22.935  0.00  0.00    -0.003 A 
ATOM     27  C   UNL     1       4.441   0.875  22.987  0.00  0.00    +0.006 A 
ATOM     28  C   UNL     1       4.785   0.184  23.278  0.00  0.00    +0.080 A 
ATOM     29  C   UNL     1       4.308  -0.445  23.518  0.00  0.00    +0.006 A 
ATOM     30  C   UNL     1       3.488  -0.383  23.467  0.00  0.00    -0.003 A 
BRANCH  28  31
ATOM     31  C   UNL     1       5.607   0.123  23.330  0.00  0.00    +0.388 C 
ATOM     32  O   UNL     1       6.001   0.414  23.994  0.00  0.00    -0.241 OA
ATOM     33  O   UNL     1       6.032  -0.228  22.717  0.00  0.00    -0.241 OA
ENDBRANCH  28  31
ENDBRANCH  24  25
ENDBRANCH  23  24
ENDBRANCH  17  19
TORSDOF 6
ENDMDL
MODEL 6
REMARK VINA RESULT:      -6.9     15.957     17.808
REMARK  Name = 
REMARK  6 active torsions:
REMARK  status: ('A' for Active; 'I' for Inactive)
REMARK    1  A    between atoms: N_5  and  C_8
REMARK    2  A    between atoms: C_11  and  C_14
REMARK    3  A    between atoms: C_17  and  C_19
REMARK    4  A    between atoms: N_23  and  C_24
REMARK    5  A    between atoms: C_24  and  C_25
REMARK    6  A    between atoms: C_28  and  C_31
REMARK                            x       y       z     vdW  Elec       q    Type
REMARK                         _______ _______ _______ _____ _____    ______ ____
ROOT
ATOM     14  C   UNL     1      -4.242  -9.796  10.211  0.00  0.00    +0.205 A 
ATOM     15  N   UNL     1      -3.986 -10.568  10.069  0.00  0.00    -0.056 NA
ATOM     16  O   UNL     1      -3.236 -10.653  10.401  0.00  0.00    -0.336 OA
ATOM     17  C   UNL     1      -3.028  -9.934  10.749  0.00  0.00    +0.251 A 
ATOM     18  N   UNL     1      -3.650  -9.405  10.631  0.00  0.00    -0.190 NA
ENDROOT
BRANCH  14  11
ATOM      8  C   UNL     1      -6.406  -8.828   9.501  0.00  0.00    +0.132 A 
ATOM      9  C   UNL     1      -5.784  -8.888   8.962  0.00  0.00    +0.034 A 
ATOM     10  C   UNL     1      -5.063  -9.210   9.199  0.00  0.00    +0.008 A 
ATOM     11  C   UNL     1      -4.964  -9.473   9.974  0.00  0.00    +0.058 A 
ATOM     12  C   UNL     1      -5.585  -9.414  10.514  0.00  0.00    +0.103 A 
ATOM     13  N   UNL     1      -6.307  -9.091  10.277  0.00  0.00    -0.229 NA
BRANCH   8   5
ATOM      1  C   UNL     1      -9.292  -7.537   8.554  0.00  0.00    +0.090 C 
ATOM      2  N   UNL     1      -8.571  -7.859   8.791  0.00  0.00    -0.269 NA
ATOM      3  C   UNL     1      -7.868  -7.455   8.640  0.00  0.00    +0.094 C 
ATOM      4  C   UNL     1      -7.146  -7.777   8.877  0.00  0.00    +0.109 C 
ATOM      5  N   UNL     1      -7.128  -8.505   9.264  0.00  0.00    -0.290 N 
ATOM      6  C   UNL     1      -7.830  -8.911   9.415  0.00  0.00    +0.109 C 
ATOM      7  C   UNL     1      -8.552  -8.588   9.178  0.00  0.00    +0.094 C 
ENDBRANCH   8   5
ENDBRANCH  14  11
BRANCH  17  19
ATOM     19  C   UNL     1      -2.323  -9.772  11.145  0.00  0.00    +0.138 C 
ATOM     20  C   UNL     1      -1.723  -9.271  10.881  0.00  0.00    +0.027 C 
ATOM     21  C   UNL     1      -1.122  -9.272  11.446  0.00  0.00    +0.019 C 
ATOM     22  C   UNL     1      -1.351  -9.774  12.060  0.00  0.00    +0.073 C 
ATOM     23  N   UNL     1      -2.093 -10.083  11.873  0.00  0.00    -0.263 NA
BRANCH  23  24
ATOM     24  C   UNL     1      -2.528 -10.611  12.334  0.00  0.00    +0.099 C 
BRANCH  24  25
ATOM     25  C   UNL     1      -2.442 -10.611  13.154  0.00  0.00    -0.006 A 
ATOM     26  C   UNL     1      -3.088 -10.441  13.638  0.00  0.00    -0.003 A 
ATOM     27  C   UNL     1      -3.001 -10.441  14.459  0.00  0.00    +0.006 A 
ATOM     28  C   UNL     1      -2.268 -10.611  14.795  0.00  0.00    +0.080 A 
ATOM     29  C   UNL     1      -1.621 -10.781  14.312  0.00  0.00    +0.006 A 
ATOM     30  C   UNL     1      -1.708 -10.781  13.492  0.00  0.00    -0.003 A 
BRANCH  28  31
ATOM     31  C   UNL     1      -2.181 -10.611  15.616  0.00  0.00    +0.388 C 
ATOM     32  O   UNL     1      -2.843 -10.703  16.101  0.00  0.00    -0.241 OA
ATOM     33  O   UNL     1      -1.433 -10.519  15.951  0.00  0.00    -0.241 OA
ENDBRANCH  28  31
ENDBRANCH  24  25
ENDBRANCH  23  24
ENDBRANCH  17  19
TORSDOF 6
ENDMDL
MODEL 7
REMARK VINA RESULT:      -6.9      1.709      2.459
REMARK  Name = 
REMARK  6 active torsions:
REMARK  status: ('A' for Active; 'I' for Inactive)
REMARK    1  A    between atoms: N_5  and  C_8
REMARK    2  A    between atoms: C_11  and  C_14
REMARK    3  A    between atoms: C_17  and  C_19
REMARK    4  A    between atoms: N_23  and  C_24
REMARK    5  A    between atoms: C_24  and  C_25
REMARK    6  A    between atoms: C_28  and  C_31
REMARK                            x       y       z     vdW  Elec       q    Type
REMARK                         _______ _______ _______ _____ _____    ______ ____
ROOT
ATOM     14  C   UNL     1      -0.634   2.063  25.127  0.00  0.00    +0.205 A 
ATOM     15  N   UNL     1      -0.773   1.861  25.916  0.00  0.00    -0.056 NA
ATOM     16  O   UNL     1      -1.402   2.320  26.189  0.00  0.00    -0.336 OA
ATOM     17  C   UNL     1      -1.651   2.806  25.570  0.00  0.00    +0.251 A 
ATOM     18  N   UNL     1      -1.177   2.646  24.914  0.00  0.00    -0.190 NA
ENDROOT
BRANCH  14  11
ATOM      8  C   UNL     1       1.106   1.089  23.662  0.00  0.00    +0.132 A 
ATOM      9  C   UNL     1       0.421   0.662  23.829  0.00  0.00    +0.034 A 
ATOM     10  C   UNL     1      -0.160   0.987  24.317  0.00  0.00    +0.008 A 
ATOM     11  C   UNL     1      -0.054   1.738  24.639  0.00  0.00    +0.058 A 
ATOM     12  C   UNL     1       0.632   2.166  24.473  0.00  0.00    +0.103 A 
ATOM     13  N   UNL     1       1.212   1.842  23.984  0.00  0.00    -0.229 NA
BRANCH   8   5
ATOM      1  C   UNL     1       3.427  -0.210  21.707  0.00  0.00    +0.090 C 
ATOM      2  N   UNL     1       2.846   0.114  22.196  0.00  0.00    -0.269 NA
ATOM      3  C   UNL     1       2.072  -0.166  22.160  0.00  0.00    +0.094 C 
ATOM      4  C   UNL     1       1.492   0.159  22.649  0.00  0.00    +0.109 C 
ATOM      5  N   UNL     1       1.686   0.764  23.173  0.00  0.00    -0.290 N 
ATOM      6  C   UNL     1       2.461   1.046  23.210  0.00  0.00    +0.109 C 
ATOM      7  C   UNL     1       3.041   0.721  22.722  0.00  0.00    +0.094 C 
ENDBRANCH   8   5
ENDBRANCH  14  11
BRANCH  17  19
ATOM     19  C   UNL     1      -2.267   3.353  25.602  0.00  0.00    +0.138 C 
ATOM     20  C   UNL     1      -2.232   4.103  25.945  0.00  0.00    +0.027 C 
ATOM     21  C   UNL     1      -2.969   4.461  25.851  0.00  0.00    +0.019 C 
ATOM     22  C   UNL     1      -3.460   3.933  25.449  0.00  0.00    +0.073 C 
ATOM     23  N   UNL     1      -3.026   3.248  25.295  0.00  0.00    -0.263 NA
BRANCH  23  24
ATOM     24  C   UNL     1      -3.302   2.577  24.903  0.00  0.00    +0.099 C 
BRANCH  24  25
ATOM     25  C   UNL     1      -4.097   2.366  24.957  0.00  0.00    -0.006 A 
ATOM     26  C   UNL     1      -4.670   2.814  24.568  0.00  0.00    -0.003 A 
ATOM     27  C   UNL     1      -5.467   2.603  24.622  0.00  0.00    +0.006 A 
ATOM     28  C   UNL     1      -5.689   1.943  25.065  0.00  0.00    +0.080 A 
ATOM     29  C   UNL     1      -5.116   1.496  25.454  0.00  0.00    +0.006 A 
ATOM     30  C   UNL     1      -4.320   1.707  25.400  0.00  0.00    -0.003 A 
BRANCH  28  31
ATOM     31  C   UNL     1      -6.485   1.732  25.119  0.00  0.00    +0.388 C 
ATOM     32  O   UNL     1      -6.834   1.624  25.859  0.00  0.00    -0.241 OA
ATOM     33  O   UNL     1      -6.931   1.629  24.432  0.00  0.00    -0.241 OA
ENDBRANCH  28  31
ENDBRANCH  24  25
ENDBRANCH  23  24
ENDBRANCH  17  19
TORSDOF 6
ENDMDL
MODEL 8
REMARK VINA RESULT:      -6.8      2.569      4.115
REMARK  Name = 
REMARK  6 active torsions:
REMARK  status: ('A' for Active; 'I' for Inactive)
REMARK    1  A    between atoms: N_5  and  C_8
REMARK    2  A    between atoms: C_11  and  C_14
REMARK    3  A    between atoms: C_17  and  C_19
REMARK    4  A    between atoms: N_23  and  C_24
REMARK    5  A    between atoms: C_24  and  C_25
REMARK    6  A    between atoms: C_28  and  C_31
REMARK                            x       y       z     vdW  Elec       q    Type
REMARK                         _______ _______ _______ _____ _____    ______ ____
ROOT
ATOM     14  C   UNL     1      -0.950   1.528  25.070  0.00  0.00    +0.205 A 
ATOM     15  N   UNL     1      -0.169   1.706  25.271  0.00  0.00    -0.056 NA
ATOM     16  O   UNL     1      -0.098   2.527  25.313  0.00  0.00    -0.336 OA
ATOM     17  C   UNL     1      -0.834   2.856  25.138  0.00  0.00    +0.251 A 
ATOM     18  N   UNL     1      -1.360   2.238  24.988  0.00  0.00    -0.190 NA
ENDROOT
BRANCH  14  11
ATOM      8  C   UNL     1      -1.891  -0.741  24.766  0.00  0.00    +0.132 A 
ATOM      9  C   UNL     1      -1.582  -0.516  25.498  0.00  0.00    +0.034 A 
ATOM     10  C   UNL     1      -1.268   0.240  25.599  0.00  0.00    +0.008 A 
ATOM     11  C   UNL     1      -1.263   0.772  24.969  0.00  0.00    +0.058 A 
ATOM     12  C   UNL     1      -1.572   0.548  24.237  0.00  0.00    +0.103 A 
ATOM     13  N   UNL     1      -1.886  -0.208  24.136  0.00  0.00    -0.229 NA
BRANCH   8   5
ATOM      1  C   UNL     1      -3.146  -3.766  24.362  0.00  0.00    +0.090 C 
ATOM      2  N   UNL     1      -2.833  -3.010  24.463  0.00  0.00    -0.269 NA
ATOM      3  C   UNL     1      -2.019  -2.889  24.402  0.00  0.00    +0.094 C 
ATOM      4  C   UNL     1      -1.705  -2.132  24.503  0.00  0.00    +0.109 C 
ATOM      5  N   UNL     1      -2.205  -1.497  24.665  0.00  0.00    -0.290 N 
ATOM      6  C   UNL     1      -3.019  -1.617  24.726  0.00  0.00    +0.109 C 
ATOM      7  C   UNL     1      -3.333  -2.373  24.625  0.00  0.00    +0.094 C 
ENDBRANCH   8   5
ENDBRANCH  14  11
BRANCH  17  19
ATOM     19  C   UNL     1      -1.013   3.661  25.117  0.00  0.00    +0.138 C 
ATOM     20  C   UNL     1      -0.600   4.239  24.697  0.00  0.00    +0.027 C 
ATOM     21  C   UNL     1      -0.967   4.965  24.832  0.00  0.00    +0.019 C 
ATOM     22  C   UNL     1      -1.608   4.836  25.336  0.00  0.00    +0.073 C 
ATOM     23  N   UNL     1      -1.636   4.030  25.512  0.00  0.00    -0.263 NA
BRANCH  23  24
ATOM     24  C   UNL     1      -2.190   3.659  25.998  0.00  0.00    +0.099 C 
BRANCH  24  25
ATOM     25  C   UNL     1      -2.995   3.800  25.888  0.00  0.00    -0.006 A 
ATOM     26  C   UNL     1      -3.372   3.531  25.206  0.00  0.00    -0.003 A 
ATOM     27  C   UNL     1      -4.178   3.672  25.096  0.00  0.00    +0.006 A 
ATOM     28  C   UNL     1      -4.606   4.083  25.669  0.00  0.00    +0.080 A 
ATOM     29  C   UNL     1      -4.229   4.352  26.352  0.00  0.00    +0.006 A 
ATOM     30  C   UNL     1      -3.424   4.211  26.461  0.00  0.00    -0.003 A 
BRANCH  28  31
ATOM     31  C   UNL     1      -5.412   4.224  25.559  0.00  0.00    +0.388 C 
ATOM     32  O   UNL     1      -5.672   4.972  25.325  0.00  0.00    -0.241 OA
ATOM     33  O   UNL     1      -5.957   3.618  25.685  0.00  0.00    -0.241 OA
ENDBRANCH  28  31
ENDBRANCH  24  25
ENDBRANCH  23  24
ENDBRANCH  17  19
TORSDOF 6
ENDMDL
MODEL 9
REMARK VINA RESULT:      -6.3     14.282     15.763
REMARK  Name = 
REMARK  6 active torsions:
REMARK  status: ('A' for Active; 'I' for Inactive)
REMARK    1  A    between atoms: N_5  and  C_8
REMARK    2  A    between atoms: C_11  and  C_14
REMARK    3  A    between atoms: C_17  and  C_19
REMARK    4  A    between atoms: N_23  and  C_24
REMARK    5  A    between atoms: C_24  and  C_25
REMARK    6  A    between atoms: C_28  and  C_31
REMARK                            x       y       z     vdW  Elec       q    Type
REMARK                         _______ _______ _______ _____ _____    ______ ____
ROOT
ATOM     14  C   UNL     1      -7.860  -9.769  13.471  0.00  0.00    +0.205 A 
ATOM     15  N   UNL     1      -8.434 -10.361  13.476  0.00  0.00    -0.056 NA
ATOM     16  O   UNL     1      -8.884 -10.275  14.163  0.00  0.00    -0.336 OA
ATOM     17  C   UNL     1      -8.587  -9.630  14.582  0.00  0.00    +0.251 A 
ATOM     18  N   UNL     1      -7.954  -9.317  14.154  0.00  0.00    -0.190 NA
ENDROOT
BRANCH  14  11
ATOM      8  C   UNL     1      -6.153  -9.412  11.714  0.00  0.00    +0.132 A 
ATOM      9  C   UNL     1      -5.922  -9.610  12.480  0.00  0.00    +0.034 A 
ATOM     10  C   UNL     1      -6.491  -9.730  13.066  0.00  0.00    +0.008 A 
ATOM     11  C   UNL     1      -7.291  -9.650  12.885  0.00  0.00    +0.058 A 
ATOM     12  C   UNL     1      -7.524  -9.451  12.119  0.00  0.00    +0.103 A 
ATOM     13  N   UNL     1      -6.955  -9.332  11.533  0.00  0.00    -0.229 NA
BRANCH   8   5
ATOM      1  C   UNL     1      -3.879  -8.936   9.371  0.00  0.00    +0.090 C 
ATOM      2  N   UNL     1      -4.447  -9.055   9.957  0.00  0.00    -0.269 NA
ATOM      3  C   UNL     1      -4.691  -9.819  10.146  0.00  0.00    +0.094 C 
ATOM      4  C   UNL     1      -5.260  -9.938  10.732  0.00  0.00    +0.109 C 
ATOM      5  N   UNL     1      -5.585  -9.293  11.128  0.00  0.00    -0.290 N 
ATOM      6  C   UNL     1      -5.342  -8.527  10.940  0.00  0.00    +0.109 C 
ATOM      7  C   UNL     1      -4.773  -8.408  10.354  0.00  0.00    +0.094 C 
ENDBRANCH   8   5
ENDBRANCH  14  11
BRANCH  17  19
ATOM     19  C   UNL     1      -8.872  -9.346  15.302  0.00  0.00    +0.138 C 
ATOM     20  C   UNL     1      -9.443  -8.758  15.400  0.00  0.00    +0.027 C 
ATOM     21  C   UNL     1      -9.561  -8.649  16.209  0.00  0.00    +0.019 C 
ATOM     22  C   UNL     1      -9.063  -9.170  16.612  0.00  0.00    +0.073 C 
ATOM     23  N   UNL     1      -8.638  -9.601  16.051  0.00  0.00    -0.263 NA
BRANCH  23  24
ATOM     24  C   UNL     1      -8.077 -10.184  16.211  0.00  0.00    +0.099 C 
BRANCH  24  25
ATOM     25  C   UNL     1      -7.763 -10.258  16.970  0.00  0.00    -0.006 A 
ATOM     26  C   UNL     1      -7.029  -9.928  17.147  0.00  0.00    -0.003 A 
ATOM     27  C   UNL     1      -6.715 -10.001  17.907  0.00  0.00    +0.006 A 
ATOM     28  C   UNL     1      -7.137 -10.405  18.490  0.00  0.00    +0.080 A 
ATOM     29  C   UNL     1      -7.871 -10.735  18.313  0.00  0.00    +0.006 A 
ATOM     30  C   UNL     1      -8.185 -10.662  17.554  0.00  0.00    -0.003 A 
BRANCH  28  31
ATOM     31  C   UNL     1      -6.823 -10.478  19.249  0.00  0.00    +0.388 C 
ATOM     32  O   UNL     1      -6.027 -10.306  19.386  0.00  0.00    -0.241 OA
ATOM     33  O   UNL     1      -7.305 -10.724  19.872  0.00  0.00    -0.241 OA
ENDBRANCH  28  31
ENDBRANCH  24  25
ENDBRANCH  23  24
ENDBRANCH  17  19
TORSDOF 6
ENDMDL
MODEL 10
REMARK VINA RESULT:      -6.1     16.355     18.283
REMARK  Name = 
REMARK  6 active torsions:
REMARK  status: ('A' for Active; 'I' for Inactive)
REMARK    1  A    between atoms: N_5  and  C_8
REMARK    2  A    between atoms: C_11  and  C_14
REMARK    3  A    between atoms: C_17  and  C_19
REMARK    4  A    between atoms: N_23  and  C_24
REMARK    5  A    between atoms: C_24  and  C_25
REMARK    6  A    between atoms: C_28  and  C_31
REMARK                            x       y       z     vdW  Elec       q    Type
REMARK                         _______ _______ _______ _____ _____    ______ ____
ROOT
ATOM     14  C   UNL     1      -5.727  -9.777  10.476  0.00  0.00    +0.205 A 
ATOM     15  N   UNL     1      -5.452 -10.494  10.172  0.00  0.00    -0.056 NA
ATOM     16  O   UNL     1      -4.871 -10.781  10.683  0.00  0.00    -0.336 OA
ATOM     17  C   UNL     1      -4.786 -10.242  11.302  0.00  0.00    +0.251 A 
ATOM     18  N   UNL     1      -5.315  -9.622  11.173  0.00  0.00    -0.190 NA
ENDROOT
BRANCH  14  11
ATOM      8  C   UNL     1      -7.477  -8.346   9.468  0.00  0.00    +0.132 A 
ATOM      9  C   UNL     1      -6.746  -8.431   9.094  0.00  0.00    +0.034 A 
ATOM     10  C   UNL     1      -6.163  -8.908   9.430  0.00  0.00    +0.008 A 
ATOM     11  C   UNL     1      -6.310  -9.300  10.140  0.00  0.00    +0.058 A 
ATOM     12  C   UNL     1      -7.040  -9.217  10.515  0.00  0.00    +0.103 A 
ATOM     13  N   UNL     1      -7.624  -8.740  10.179  0.00  0.00    -0.229 NA
BRANCH   8   5
ATOM      1  C   UNL     1      -9.810  -6.439   8.124  0.00  0.00    +0.090 C 
ATOM      2  N   UNL     1      -9.227  -6.916   8.460  0.00  0.00    -0.269 NA
ATOM      3  C   UNL     1      -8.430  -6.749   8.327  0.00  0.00    +0.094 C 
ATOM      4  C   UNL     1      -7.847  -7.226   8.662  0.00  0.00    +0.109 C 
ATOM      5  N   UNL     1      -8.060  -7.869   9.132  0.00  0.00    -0.290 N 
ATOM      6  C   UNL     1      -8.857  -8.037   9.266  0.00  0.00    +0.109 C 
ATOM      7  C   UNL     1      -9.440  -7.560   8.930  0.00  0.00    +0.094 C 
ENDBRANCH   8   5
ENDBRANCH  14  11
BRANCH  17  19
ATOM     19  C   UNL     1      -4.265 -10.311  11.937  0.00  0.00    +0.138 C 
ATOM     20  C   UNL     1      -4.476 -10.391  12.731  0.00  0.00    +0.027 C 
ATOM     21  C   UNL     1      -3.783 -10.441  13.175  0.00  0.00    +0.019 C 
ATOM     22  C   UNL     1      -3.143 -10.391  12.656  0.00  0.00    +0.073 C 
ATOM     23  N   UNL     1      -3.441 -10.311  11.891  0.00  0.00    -0.263 NA
BRANCH  23  24
ATOM     24  C   UNL     1      -2.994 -10.242  11.201  0.00  0.00    +0.099 C 
BRANCH  24  25
ATOM     25  C   UNL     1      -2.265  -9.858  11.218  0.00  0.00    -0.006 A 
ATOM     26  C   UNL     1      -2.160  -9.154  10.801  0.00  0.00    -0.003 A 
ATOM     27  C   UNL     1      -1.430  -8.769  10.819  0.00  0.00    +0.006 A 
ATOM     28  C   UNL     1      -0.806  -9.088  11.254  0.00  0.00    +0.080 A 
ATOM     29  C   UNL     1      -0.911  -9.792  11.670  0.00  0.00    +0.006 A 
ATOM     30  C   UNL     1      -1.640 -10.177  11.653  0.00  0.00    -0.003 A 
BRANCH  28  31
ATOM     31  C   UNL     1      -0.076  -8.703  11.271  0.00  0.00    +0.388 C 
ATOM     32  O   UNL     1       0.159  -8.294  11.948  0.00  0.00    -0.241 OA
ATOM     33  O   UNL     1       0.418  -8.728  10.611  0.00  0.00    -0.241 OA
ENDBRANCH  28  31
ENDBRANCH  24  25
ENDBRANCH  23  24
ENDBRANCH  17  19
TORSDOF 6
ENDMDL
