REMARK  Name = 
REMARK  7 active torsions:
REMARK  status: ('A' for Active; 'I' for Inactive)
REMARK    1  A    between atoms: O_2  and  C_3
REMARK    2  A    between atoms: C_6  and  C_7
REMARK    3  A    between atoms: C_7  and  N_8
REMARK    4  A    between atoms: C_13  and  O_15
REMARK    5  A    between atoms: O_15  and  C_16
REMARK    6  A    between atoms: C_16  and  C_17
REMARK    7  A    between atoms: C_17  and  C_18
REMARK                            x       y       z     vdW  Elec       q    Type
REMARK                         _______ _______ _______ _____ _____    ______ ____
ROOT
ATOM      8  N   UNL     1       1.073  -1.686   0.000  0.00  0.00    -0.265 NA
ATOM      9  C   UNL     1       0.257  -1.563   0.000  0.00  0.00    +0.105 C 
ATOM     10  C   UNL     1      -0.156  -0.848   0.000  0.00  0.00    +0.160 C 
ATOM     11  O   UNL     1       0.146  -0.080   0.000  0.00  0.00    -0.350 OA
ATOM     12  C   UNL     1       0.934   0.163   0.000  0.00  0.00    +0.173 C 
ATOM     13  C   UNL     1       1.616  -0.302   0.000  0.00  0.00    +0.161 C 
ATOM     14  C   UNL     1       1.677  -1.125   0.000  0.00  0.00    +0.105 C 
ENDROOT
BRANCH   8   7
ATOM      7  C   UNL     1       1.316  -2.474   0.000  0.00  0.00    +0.099 C 
BRANCH   7   6
ATOM      3  C   UNL     1      -0.367  -4.288   0.000  0.00  0.00    +0.139 A 
ATOM      4  C   UNL     1      -0.611  -3.500   0.000  0.00  0.00    +0.037 A 
ATOM      5  C   UNL     1      -0.050  -2.895   0.000  0.00  0.00    +0.000 A 
ATOM      6  C   UNL     1       0.755  -3.079   0.000  0.00  0.00    -0.006 A 
ATOM     21  C   UNL     1       0.998  -3.867   0.000  0.00  0.00    +0.000 A 
ATOM     22  C   UNL     1       0.437  -4.472   0.000  0.00  0.00    +0.037 A 
BRANCH   3   2
ATOM      1  C   UNL     1      -0.685  -5.682   0.000  0.00  0.00    +0.252 C 
ATOM      2  O   UNL     1      -0.929  -4.893   0.000  0.00  0.00    -0.471 OA
ENDBRANCH   3   2
ENDBRANCH   7   6
ENDBRANCH   8   7
BRANCH  13  15
ATOM     15  O   UNL     1       2.330   0.111   0.000  0.00  0.00    -0.352 OA
BRANCH  15  16
ATOM     16  C   UNL     1       3.045  -0.302   0.000  0.00  0.00    +0.142 C 
BRANCH  16  17
ATOM     17  C   UNL     1       3.759   0.111   0.000  0.00  0.00    +0.032 C 
BRANCH  17  18
ATOM     18  C   UNL     1       4.474  -0.302   0.000  0.00  0.00    +0.002 C 
ATOM     19  C   UNL     1       5.188   0.111   0.000  0.00  0.00    +0.000 C 
ATOM     20  C   UNL     1       4.474  -1.127   0.000  0.00  0.00    +0.000 C 
ENDBRANCH  17  18
ENDBRANCH  16  17
ENDBRANCH  15  16
ENDBRANCH  13  15
TORSDOF 7
