MODEL 1
REMARK VINA RESULT:     -11.6      0.000      0.000
REMARK  Name = 
REMARK  6 active torsions:
REMARK  status: ('A' for Active; 'I' for Inactive)
REMARK    1  A    between atoms: C_5  and  O_6
REMARK    2  A    between atoms: O_6  and  C_7
REMARK    3  A    between atoms: C_7  and  C_8
REMARK    4  A    between atoms: C_11  and  C_13
REMARK    5  A    between atoms: N_16  and  C_17
REMARK    6  A    between atoms: C_17  and  C_18
REMARK                            x       y       z     vdW  Elec       q    Type
REMARK                         _______ _______ _______ _____ _____    ______ ____
ROOT
ATOM      8  C   UNL     1      -4.720   0.888  24.954  0.00  0.00    +0.270 A 
ATOM      9  N   UNL     1      -5.439   1.292  24.932  0.00  0.00    -0.108 NA
ATOM     10  N   UNL     1      -5.279   2.101  24.953  0.00  0.00    -0.112 NA
ATOM     11  C   UNL     1      -4.461   2.198  24.988  0.00  0.00    +0.227 A 
ATOM     12  O   UNL     1      -4.116   1.448  24.989  0.00  0.00    -0.420 OA
ENDROOT
BRANCH  11  13
ATOM     13  C   UNL     1      -4.058   2.916  25.018  0.00  0.00    +0.096 C 
ATOM     14  C   UNL     1      -4.175   3.559  24.514  0.00  0.00    +0.028 C 
ATOM     15  C   UNL     1      -3.656   4.160  24.741  0.00  0.00    +0.073 C 
ATOM     16  N   UNL     1      -3.219   3.888  25.385  0.00  0.00    -0.268 NA
ATOM     24  C   UNL     1      -3.467   3.120  25.556  0.00  0.00    +0.082 C 
BRANCH  16  17
ATOM     17  C   UNL     1      -2.635   4.310  25.787  0.00  0.00    +0.099 C 
BRANCH  17  18
ATOM     18  C   UNL     1      -1.872   4.359  25.476  0.00  0.00    -0.003 A 
ATOM     19  C   UNL     1      -1.363   3.712  25.530  0.00  0.00    +0.018 A 
ATOM     20  C   UNL     1      -0.600   3.761  25.219  0.00  0.00    +0.099 A 
ATOM     21  N   UNL     1      -0.347   4.456  24.854  0.00  0.00    -0.242 NA
ATOM     22  C   UNL     1      -0.856   5.103  24.801  0.00  0.00    +0.099 A 
ATOM     23  C   UNL     1      -1.620   5.055  25.112  0.00  0.00    +0.018 A 
ENDBRANCH  17  18
ENDBRANCH  16  17
ENDBRANCH  11  13
BRANCH   8   7
ATOM      7  C   UNL     1      -4.624   0.069  24.943  0.00  0.00    +0.291 C 
BRANCH   7   6
ATOM      6  O   UNL     1      -4.038  -0.270  24.471  0.00  0.00    -0.465 OA
BRANCH   6   5
ATOM      1  F   UNL     1      -3.602  -3.541  24.485  0.00  0.00    -0.204 F 
ATOM      2  C   UNL     1      -3.711  -2.724  24.482  0.00  0.00    +0.140 A 
ATOM      3  C   UNL     1      -3.402  -2.264  25.092  0.00  0.00    +0.033 A 
ATOM      4  C   UNL     1      -3.511  -1.446  25.089  0.00  0.00    +0.039 A 
ATOM      5  C   UNL     1      -3.929  -1.088  24.475  0.00  0.00    +0.139 A 
ATOM     25  C   UNL     1      -4.238  -1.549  23.863  0.00  0.00    +0.039 A 
ATOM     26  C   UNL     1      -4.129  -2.366  23.867  0.00  0.00    +0.033 A 
ENDBRANCH   6   5
ENDBRANCH   7   6
ENDBRANCH   8   7
TORSDOF 6
ENDMDL
MODEL 2
REMARK VINA RESULT:     -11.0      2.405      5.567
REMARK  Name = 
REMARK  6 active torsions:
REMARK  status: ('A' for Active; 'I' for Inactive)
REMARK    1  A    between atoms: C_5  and  O_6
REMARK    2  A    between atoms: O_6  and  C_7
REMARK    3  A    between atoms: C_7  and  C_8
REMARK    4  A    between atoms: C_11  and  C_13
REMARK    5  A    between atoms: N_16  and  C_17
REMARK    6  A    between atoms: C_17  and  C_18
REMARK                            x       y       z     vdW  Elec       q    Type
REMARK                         _______ _______ _______ _____ _____    ______ ____
ROOT
ATOM      8  C   UNL     1      -3.789   2.546  24.980  0.00  0.00    +0.270 A 
ATOM      9  N   UNL     1      -4.596   2.521  25.148  0.00  0.00    -0.108 NA
ATOM     10  N   UNL     1      -4.838   1.733  25.122  0.00  0.00    -0.112 NA
ATOM     11  C   UNL     1      -4.180   1.270  24.937  0.00  0.00    +0.227 A 
ATOM     12  O   UNL     1      -3.532   1.774  24.850  0.00  0.00    -0.420 OA
ENDROOT
BRANCH  11  13
ATOM     13  C   UNL     1      -4.171   0.450  24.855  0.00  0.00    +0.096 C 
ATOM     14  C   UNL     1      -4.573   0.016  24.279  0.00  0.00    +0.028 C 
ATOM     15  C   UNL     1      -4.409  -0.784  24.402  0.00  0.00    +0.073 C 
ATOM     16  N   UNL     1      -3.907  -0.844  25.054  0.00  0.00    -0.268 NA
ATOM     24  C   UNL     1      -3.760  -0.081  25.334  0.00  0.00    +0.082 C 
BRANCH  16  17
ATOM     17  C   UNL     1      -3.605  -1.544  25.370  0.00  0.00    +0.099 C 
BRANCH  17  18
ATOM     18  C   UNL     1      -2.940  -1.895  25.033  0.00  0.00    -0.003 A 
ATOM     19  C   UNL     1      -3.027  -2.525  24.506  0.00  0.00    +0.018 A 
ATOM     20  C   UNL     1      -2.362  -2.877  24.169  0.00  0.00    +0.099 A 
ATOM     21  N   UNL     1      -1.608  -2.599  24.358  0.00  0.00    -0.242 NA
ATOM     22  C   UNL     1      -1.520  -1.970  24.884  0.00  0.00    +0.099 A 
ATOM     23  C   UNL     1      -2.186  -1.617  25.222  0.00  0.00    +0.018 A 
ENDBRANCH  17  18
ENDBRANCH  16  17
ENDBRANCH  11  13
BRANCH   8   7
ATOM      7  C   UNL     1      -3.321   3.225  24.948  0.00  0.00    +0.291 C 
BRANCH   7   6
ATOM      6  O   UNL     1      -2.684   3.312  25.466  0.00  0.00    -0.465 OA
BRANCH   6   5
ATOM      1  F   UNL     1      -0.340   5.547  24.835  0.00  0.00    -0.204 F 
ATOM      2  C   UNL     1      -0.926   4.988  24.993  0.00  0.00    +0.140 A 
ATOM      3  C   UNL     1      -1.680   5.234  25.216  0.00  0.00    +0.033 A 
ATOM      4  C   UNL     1      -2.267   4.675  25.374  0.00  0.00    +0.039 A 
ATOM      5  C   UNL     1      -2.098   3.870  25.308  0.00  0.00    +0.139 A 
ATOM     25  C   UNL     1      -1.342   3.624  25.085  0.00  0.00    +0.039 A 
ATOM     26  C   UNL     1      -0.756   4.183  24.927  0.00  0.00    +0.033 A 
ENDBRANCH   6   5
ENDBRANCH   7   6
ENDBRANCH   8   7
TORSDOF 6
ENDMDL
MODEL 3
REMARK VINA RESULT:     -10.8      2.960      6.300
REMARK  Name = 
REMARK  6 active torsions:
REMARK  status: ('A' for Active; 'I' for Inactive)
REMARK    1  A    between atoms: C_5  and  O_6
REMARK    2  A    between atoms: O_6  and  C_7
REMARK    3  A    between atoms: C_7  and  C_8
REMARK    4  A    between atoms: C_11  and  C_13
REMARK    5  A    between atoms: N_16  and  C_17
REMARK    6  A    between atoms: C_17  and  C_18
REMARK                            x       y       z     vdW  Elec       q    Type
REMARK                         _______ _______ _______ _____ _____    ______ ____
ROOT
ATOM      8  C   UNL     1      -0.476   1.646  24.380  0.00  0.00    +0.270 A 
ATOM      9  N   UNL     1       0.135   1.223  24.021  0.00  0.00    -0.108 NA
ATOM     10  N   UNL     1      -0.019   0.418  24.118  0.00  0.00    -0.112 NA
ATOM     11  C   UNL     1      -0.726   0.343  24.537  0.00  0.00    +0.227 A 
ATOM     12  O   UNL     1      -1.008   1.102  24.698  0.00  0.00    -0.420 OA
ENDROOT
BRANCH  11  13
ATOM     13  C   UNL     1      -1.087  -0.365  24.755  0.00  0.00    +0.096 C 
ATOM     14  C   UNL     1      -0.727  -1.107  24.773  0.00  0.00    +0.028 C 
ATOM     15  C   UNL     1      -1.290  -1.657  25.023  0.00  0.00    +0.073 C 
ATOM     16  N   UNL     1      -1.997  -1.255  25.160  0.00  0.00    -0.268 NA
ATOM     24  C   UNL     1      -1.871  -0.456  24.994  0.00  0.00    +0.082 C 
BRANCH  16  17
ATOM     17  C   UNL     1      -2.705  -1.592  25.417  0.00  0.00    +0.099 C 
BRANCH  17  18
ATOM     18  C   UNL     1      -3.266  -1.842  24.867  0.00  0.00    -0.003 A 
ATOM     19  C   UNL     1      -3.809  -1.303  24.557  0.00  0.00    +0.018 A 
ATOM     20  C   UNL     1      -4.371  -1.553  24.007  0.00  0.00    +0.099 A 
ATOM     21  N   UNL     1      -4.389  -2.342  23.766  0.00  0.00    -0.242 NA
ATOM     22  C   UNL     1      -3.847  -2.881  24.076  0.00  0.00    +0.099 A 
ATOM     23  C   UNL     1      -3.285  -2.631  24.626  0.00  0.00    +0.018 A 
ENDBRANCH  17  18
ENDBRANCH  16  17
ENDBRANCH  11  13
BRANCH   8   7
ATOM      7  C   UNL     1      -0.543   2.467  24.414  0.00  0.00    +0.291 C 
BRANCH   7   6
ATOM      6  O   UNL     1      -0.733   2.836  25.128  0.00  0.00    -0.465 OA
BRANCH   6   5
ATOM      1  F   UNL     1      -1.673   5.999  25.149  0.00  0.00    -0.204 F 
ATOM      2  C   UNL     1      -1.438   5.208  25.143  0.00  0.00    +0.140 A 
ATOM      3  C   UNL     1      -1.933   4.629  25.457  0.00  0.00    +0.033 A 
ATOM      4  C   UNL     1      -1.698   3.838  25.451  0.00  0.00    +0.039 A 
ATOM      5  C   UNL     1      -0.968   3.627  25.133  0.00  0.00    +0.139 A 
ATOM     25  C   UNL     1      -0.471   4.207  24.819  0.00  0.00    +0.039 A 
ATOM     26  C   UNL     1      -0.706   4.998  24.824  0.00  0.00    +0.033 A 
ENDBRANCH   6   5
ENDBRANCH   7   6
ENDBRANCH   8   7
TORSDOF 6
ENDMDL
MODEL 4
REMARK VINA RESULT:     -10.3      1.860      2.832
REMARK  Name = 
REMARK  6 active torsions:
REMARK  status: ('A' for Active; 'I' for Inactive)
REMARK    1  A    between atoms: C_5  and  O_6
REMARK    2  A    between atoms: O_6  and  C_7
REMARK    3  A    between atoms: C_7  and  C_8
REMARK    4  A    between atoms: C_11  and  C_13
REMARK    5  A    between atoms: N_16  and  C_17
REMARK    6  A    between atoms: C_17  and  C_18
REMARK                            x       y       z     vdW  Elec       q    Type
REMARK                         _______ _______ _______ _____ _____    ______ ____
ROOT
ATOM      8  C   UNL     1      -1.209  -0.370  24.780  0.00  0.00    +0.270 A 
ATOM      9  N   UNL     1      -0.393  -0.341  24.664  0.00  0.00    -0.108 NA
ATOM     10  N   UNL     1      -0.135   0.422  24.844  0.00  0.00    -0.112 NA
ATOM     11  C   UNL     1      -0.792   0.865  25.072  0.00  0.00    +0.227 A 
ATOM     12  O   UNL     1      -1.456   0.376  25.033  0.00  0.00    -0.420 OA
ENDROOT
BRANCH  11  13
ATOM     13  C   UNL     1      -0.787   1.657  25.300  0.00  0.00    +0.096 C 
ATOM     14  C   UNL     1      -0.318   1.989  25.892  0.00  0.00    +0.028 C 
ATOM     15  C   UNL     1      -0.491   2.795  25.934  0.00  0.00    +0.073 C 
ATOM     16  N   UNL     1      -1.068   2.961  25.368  0.00  0.00    -0.268 NA
ATOM     24  C   UNL     1      -1.251   2.258  24.976  0.00  0.00    +0.082 C 
BRANCH  16  17
ATOM     17  C   UNL     1      -1.403   3.701  25.219  0.00  0.00    +0.099 C 
BRANCH  17  18
ATOM     18  C   UNL     1      -2.201   3.831  25.379  0.00  0.00    -0.003 A 
ATOM     19  C   UNL     1      -2.441   4.047  26.139  0.00  0.00    +0.018 A 
ATOM     20  C   UNL     1      -3.240   4.177  26.298  0.00  0.00    +0.099 A 
ATOM     21  N   UNL     1      -3.799   4.092  25.697  0.00  0.00    -0.242 NA
ATOM     22  C   UNL     1      -3.560   3.877  24.938  0.00  0.00    +0.099 A 
ATOM     23  C   UNL     1      -2.761   3.746  24.778  0.00  0.00    +0.018 A 
ENDBRANCH  17  18
ENDBRANCH  16  17
ENDBRANCH  11  13
BRANCH   8   7
ATOM      7  C   UNL     1      -1.692  -1.028  24.664  0.00  0.00    +0.291 C 
BRANCH   7   6
ATOM      6  O   UNL     1      -2.463  -1.029  24.959  0.00  0.00    -0.465 OA
BRANCH   6   5
ATOM      1  F   UNL     1      -4.720  -3.055  23.658  0.00  0.00    -0.204 F 
ATOM      2  C   UNL     1      -4.156  -2.548  23.983  0.00  0.00    +0.140 A 
ATOM      3  C   UNL     1      -3.517  -2.858  24.401  0.00  0.00    +0.033 A 
ATOM      4  C   UNL     1      -2.953  -2.352  24.727  0.00  0.00    +0.039 A 
ATOM      5  C   UNL     1      -3.028  -1.536  24.634  0.00  0.00    +0.139 A 
ATOM     25  C   UNL     1      -3.668  -1.226  24.214  0.00  0.00    +0.039 A 
ATOM     26  C   UNL     1      -4.232  -1.732  23.889  0.00  0.00    +0.033 A 
ENDBRANCH   6   5
ENDBRANCH   7   6
ENDBRANCH   8   7
TORSDOF 6
ENDMDL
