MODEL 1
REMARK VINA RESULT:     -11.1      0.000      0.000
REMARK  Name = 
REMARK  6 active torsions:
REMARK  status: ('A' for Active; 'I' for Inactive)
REMARK    1  A    between atoms: C_2  and  C_3
REMARK    2  A    between atoms: C_8  and  C_9
REMARK    3  A    between atoms: C_9  and  C_10
REMARK    4  A    between atoms: N_12  and  C_13
REMARK    5  A    between atoms: C_13  and  C_14
REMARK    6  A    between atoms: C_20  and  C_22
REMARK                            x       y       z     vdW  Elec       q    Type
REMARK                         _______ _______ _______ _____ _____    ______ ____
ROOT
ATOM      3  C   UNL     1      -4.202   2.730  25.170  0.00  0.00    +0.020 C 
ATOM      4  C   UNL     1      -3.799   3.363  25.513  0.00  0.00    +0.093 C 
ATOM      5  N   UNL     1      -3.021   3.526  25.292  0.00  0.00    -0.280 N 
ATOM      6  C   UNL     1      -2.646   3.057  24.728  0.00  0.00    +0.093 C 
ATOM      7  C   UNL     1      -3.048   2.423  24.384  0.00  0.00    +0.022 C 
ATOM      8  C   UNL     1      -3.826   2.260  24.605  0.00  0.00    +0.012 C 
ATOM     20  C   UNL     1      -2.620   4.159  25.635  0.00  0.00    +0.225 C 
ATOM     21  O   UNL     1      -2.995   4.630  26.200  0.00  0.00    -0.275 OA
ENDROOT
BRANCH  20  22
ATOM     22  C   UNL     1      -1.841   4.323  25.414  0.00  0.00    +0.077 C 
ATOM     23  C   UNL     1      -1.043   4.114  25.403  0.00  0.00    +0.010 C 
ATOM     24  C   UNL     1      -1.292   4.813  25.043  0.00  0.00    +0.010 C 
ENDBRANCH  20  22
BRANCH   3   2
ATOM      1  C   UNL     1      -5.433   3.148  25.762  0.00  0.00    +0.000 C 
ATOM      2  C   UNL     1      -4.979   2.567  25.390  0.00  0.00    +0.002 C 
ENDBRANCH   3   2
BRANCH   8   9
ATOM      9  C   UNL     1      -4.228   1.626  24.261  0.00  0.00    +0.087 C 
BRANCH   9  10
ATOM     10  C   UNL     1      -3.805   1.001  23.929  0.00  0.00    +0.242 C 
ATOM     11  O   UNL     1      -3.302   1.137  23.289  0.00  0.00    -0.273 OA
ATOM     12  N   UNL     1      -3.885   0.240  24.237  0.00  0.00    -0.200 NA
BRANCH  12  13
ATOM     13  C   UNL     1      -3.461  -0.386  23.905  0.00  0.00    +0.143 C 
BRANCH  13  14
ATOM     14  C   UNL     1      -3.523  -1.142  24.228  0.00  0.00    +0.019 A 
ATOM     15  C   UNL     1      -3.985  -1.714  23.854  0.00  0.00    +0.001 A 
ATOM     16  C   UNL     1      -4.046  -2.471  24.178  0.00  0.00    +0.020 A 
ATOM     17  C   UNL     1      -3.646  -2.655  24.874  0.00  0.00    +0.099 A 
ATOM     18  N   UNL     1      -3.184  -2.083  25.248  0.00  0.00    -0.243 NA
ATOM     19  C   UNL     1      -3.123  -1.326  24.925  0.00  0.00    +0.096 A 
ENDBRANCH  13  14
ENDBRANCH  12  13
ENDBRANCH   9  10
ENDBRANCH   8   9
TORSDOF 6
ENDMDL
MODEL 2
REMARK VINA RESULT:     -10.1      1.268      1.563
REMARK  Name = 
REMARK  6 active torsions:
REMARK  status: ('A' for Active; 'I' for Inactive)
REMARK    1  A    between atoms: C_2  and  C_3
REMARK    2  A    between atoms: C_8  and  C_9
REMARK    3  A    between atoms: C_9  and  C_10
REMARK    4  A    between atoms: N_12  and  C_13
REMARK    5  A    between atoms: C_13  and  C_14
REMARK    6  A    between atoms: C_20  and  C_22
REMARK                            x       y       z     vdW  Elec       q    Type
REMARK                         _______ _______ _______ _____ _____    ______ ____
ROOT
ATOM      3  C   UNL     1      -3.193   2.727  24.404  0.00  0.00    +0.020 C 
ATOM      4  C   UNL     1      -2.559   3.181  24.673  0.00  0.00    +0.093 C 
ATOM      5  N   UNL     1      -1.917   2.818  25.042  0.00  0.00    -0.280 N 
ATOM      6  C   UNL     1      -1.909   2.000  25.143  0.00  0.00    +0.093 C 
ATOM      7  C   UNL     1      -2.542   1.544  24.875  0.00  0.00    +0.022 C 
ATOM      8  C   UNL     1      -3.184   1.907  24.506  0.00  0.00    +0.012 C 
ATOM     20  C   UNL     1      -1.284   3.273  25.310  0.00  0.00    +0.225 C 
ATOM     21  O   UNL     1      -1.292   4.092  25.209  0.00  0.00    -0.275 OA
ENDROOT
BRANCH  20  22
ATOM     22  C   UNL     1      -0.641   2.909  25.680  0.00  0.00    +0.077 C 
ATOM     23  C   UNL     1      -0.282   2.616  26.362  0.00  0.00    +0.010 C 
ATOM     24  C   UNL     1       0.110   2.573  25.638  0.00  0.00    +0.010 C 
ENDBRANCH  20  22
BRANCH   3   2
ATOM      1  C   UNL     1      -3.853   3.911  23.954  0.00  0.00    +0.000 C 
ATOM      2  C   UNL     1      -3.834   3.090  24.035  0.00  0.00    +0.002 C 
ENDBRANCH   3   2
BRANCH   8   9
ATOM      9  C   UNL     1      -3.818   1.452  24.237  0.00  0.00    +0.087 C 
BRANCH   9  10
ATOM     10  C   UNL     1      -4.080   0.808  24.681  0.00  0.00    +0.242 C 
ATOM     11  O   UNL     1      -4.473   0.931  25.396  0.00  0.00    -0.273 OA
ATOM     12  N   UNL     1      -3.948   0.040  24.410  0.00  0.00    -0.200 NA
BRANCH  12  13
ATOM     13  C   UNL     1      -4.210  -0.605  24.854  0.00  0.00    +0.143 C 
BRANCH  13  14
ATOM     14  C   UNL     1      -4.016  -1.372  24.620  0.00  0.00    +0.019 A 
ATOM     15  C   UNL     1      -3.515  -1.831  25.088  0.00  0.00    +0.001 A 
ATOM     16  C   UNL     1      -3.321  -2.598  24.854  0.00  0.00    +0.020 A 
ATOM     17  C   UNL     1      -3.627  -2.905  24.154  0.00  0.00    +0.099 A 
ATOM     18  N   UNL     1      -4.127  -2.447  23.685  0.00  0.00    -0.243 NA
ATOM     19  C   UNL     1      -4.322  -1.679  23.919  0.00  0.00    +0.096 A 
ENDBRANCH  13  14
ENDBRANCH  12  13
ENDBRANCH   9  10
ENDBRANCH   8   9
TORSDOF 6
ENDMDL
MODEL 3
REMARK VINA RESULT:      -9.9      1.769      4.895
REMARK  Name = 
REMARK  6 active torsions:
REMARK  status: ('A' for Active; 'I' for Inactive)
REMARK    1  A    between atoms: C_2  and  C_3
REMARK    2  A    between atoms: C_8  and  C_9
REMARK    3  A    between atoms: C_9  and  C_10
REMARK    4  A    between atoms: N_12  and  C_13
REMARK    5  A    between atoms: C_13  and  C_14
REMARK    6  A    between atoms: C_20  and  C_22
REMARK                            x       y       z     vdW  Elec       q    Type
REMARK                         _______ _______ _______ _____ _____    ______ ____
ROOT
ATOM      3  C   UNL     1      -3.614  -1.416  24.232  0.00  0.00    +0.020 C 
ATOM      4  C   UNL     1      -2.964  -1.909  24.353  0.00  0.00    +0.093 C 
ATOM      5  N   UNL     1      -2.243  -1.590  24.598  0.00  0.00    -0.280 N 
ATOM      6  C   UNL     1      -2.173  -0.778  24.722  0.00  0.00    +0.093 C 
ATOM      7  C   UNL     1      -2.823  -0.284  24.601  0.00  0.00    +0.022 C 
ATOM      8  C   UNL     1      -3.543  -0.603  24.356  0.00  0.00    +0.012 C 
ATOM     20  C   UNL     1      -1.594  -2.083  24.719  0.00  0.00    +0.225 C 
ATOM     21  O   UNL     1      -1.664  -2.896  24.596  0.00  0.00    -0.275 OA
ENDROOT
BRANCH  20  22
ATOM     22  C   UNL     1      -0.873  -1.764  24.964  0.00  0.00    +0.077 C 
ATOM     23  C   UNL     1      -0.170  -1.370  24.788  0.00  0.00    +0.010 C 
ATOM     24  C   UNL     1      -0.329  -1.605  25.563  0.00  0.00    +0.010 C 
ENDBRANCH  20  22
BRANCH   3   2
ATOM      1  C   UNL     1      -4.388  -2.538  23.802  0.00  0.00    +0.000 C 
ATOM      2  C   UNL     1      -4.333  -1.735  23.988  0.00  0.00    +0.002 C 
ENDBRANCH   3   2
BRANCH   8   9
ATOM      9  C   UNL     1      -4.194  -0.109  24.235  0.00  0.00    +0.087 C 
BRANCH   9  10
ATOM     10  C   UNL     1      -4.078   0.689  24.062  0.00  0.00    +0.242 C 
ATOM     11  O   UNL     1      -3.583   0.909  23.440  0.00  0.00    -0.273 OA
ATOM     12  N   UNL     1      -4.459   1.266  24.512  0.00  0.00    -0.200 NA
BRANCH  12  13
ATOM     13  C   UNL     1      -4.343   2.066  24.339  0.00  0.00    +0.143 C 
BRANCH  13  14
ATOM     14  C   UNL     1      -4.682   2.644  24.820  0.00  0.00    +0.019 A 
ATOM     15  C   UNL     1      -4.252   3.321  25.016  0.00  0.00    +0.001 A 
ATOM     16  C   UNL     1      -4.591   3.899  25.497  0.00  0.00    +0.020 A 
ATOM     17  C   UNL     1      -5.358   3.801  25.781  0.00  0.00    +0.099 A 
ATOM     18  N   UNL     1      -5.788   3.125  25.585  0.00  0.00    -0.243 NA
ATOM     19  C   UNL     1      -5.449   2.546  25.104  0.00  0.00    +0.096 A 
ENDBRANCH  13  14
ENDBRANCH  12  13
ENDBRANCH   9  10
ENDBRANCH   8   9
TORSDOF 6
ENDMDL
MODEL 4
REMARK VINA RESULT:      -9.7      1.708      5.072
REMARK  Name = 
REMARK  6 active torsions:
REMARK  status: ('A' for Active; 'I' for Inactive)
REMARK    1  A    between atoms: C_2  and  C_3
REMARK    2  A    between atoms: C_8  and  C_9
REMARK    3  A    between atoms: C_9  and  C_10
REMARK    4  A    between atoms: N_12  and  C_13
REMARK    5  A    between atoms: C_13  and  C_14
REMARK    6  A    between atoms: C_20  and  C_22
REMARK                            x       y       z     vdW  Elec       q    Type
REMARK                         _______ _______ _______ _____ _____    ______ ____
ROOT
ATOM      3  C   UNL     1      -1.485  -0.062  24.475  0.00  0.00    +0.020 C 
ATOM      4  C   UNL     1      -1.496  -0.880  24.579  0.00  0.00    +0.093 C 
ATOM      5  N   UNL     1      -2.213  -1.289  24.559  0.00  0.00    -0.280 N 
ATOM      6  C   UNL     1      -2.917  -0.880  24.434  0.00  0.00    +0.093 C 
ATOM      7  C   UNL     1      -2.907  -0.061  24.330  0.00  0.00    +0.022 C 
ATOM      8  C   UNL     1      -2.191   0.348  24.350  0.00  0.00    +0.012 C 
ATOM     20  C   UNL     1      -2.223  -2.107  24.663  0.00  0.00    +0.225 C 
ATOM     21  O   UNL     1      -1.518  -2.517  24.787  0.00  0.00    -0.275 OA
ENDROOT
BRANCH  20  22
ATOM     22  C   UNL     1      -2.941  -2.516  24.643  0.00  0.00    +0.077 C 
ATOM     23  C   UNL     1      -3.575  -2.865  25.038  0.00  0.00    +0.010 C 
ATOM     24  C   UNL     1      -3.546  -2.875  24.213  0.00  0.00    +0.010 C 
ENDBRANCH  20  22
BRANCH   3   2
ATOM      1  C   UNL     1      -0.079  -0.016  24.223  0.00  0.00    +0.000 C 
ATOM      2  C   UNL     1      -0.769   0.346  24.495  0.00  0.00    +0.002 C 
ENDBRANCH   3   2
BRANCH   8   9
ATOM      9  C   UNL     1      -2.179   1.167  24.246  0.00  0.00    +0.087 C 
BRANCH   9  10
ATOM     10  C   UNL     1      -2.847   1.554  23.954  0.00  0.00    +0.242 C 
ATOM     11  O   UNL     1      -3.056   1.474  23.160  0.00  0.00    -0.273 OA
ATOM     12  N   UNL     1      -3.304   2.020  24.457  0.00  0.00    -0.200 NA
BRANCH  12  13
ATOM     13  C   UNL     1      -3.973   2.408  24.165  0.00  0.00    +0.143 C 
BRANCH  13  14
ATOM     14  C   UNL     1      -4.466   2.822  24.680  0.00  0.00    +0.019 A 
ATOM     15  C   UNL     1      -5.166   2.476  24.949  0.00  0.00    +0.001 A 
ATOM     16  C   UNL     1      -5.659   2.890  25.464  0.00  0.00    +0.020 A 
ATOM     17  C   UNL     1      -5.454   3.649  25.710  0.00  0.00    +0.099 A 
ATOM     18  N   UNL     1      -4.755   3.996  25.443  0.00  0.00    -0.243 NA
ATOM     19  C   UNL     1      -4.261   3.581  24.927  0.00  0.00    +0.096 A 
ENDBRANCH  13  14
ENDBRANCH  12  13
ENDBRANCH   9  10
ENDBRANCH   8   9
TORSDOF 6
ENDMDL
MODEL 5
REMARK VINA RESULT:      -9.7      2.232      5.720
REMARK  Name = 
REMARK  6 active torsions:
REMARK  status: ('A' for Active; 'I' for Inactive)
REMARK    1  A    between atoms: C_2  and  C_3
REMARK    2  A    between atoms: C_8  and  C_9
REMARK    3  A    between atoms: C_9  and  C_10
REMARK    4  A    between atoms: N_12  and  C_13
REMARK    5  A    between atoms: C_13  and  C_14
REMARK    6  A    between atoms: C_20  and  C_22
REMARK                            x       y       z     vdW  Elec       q    Type
REMARK                         _______ _______ _______ _____ _____    ______ ____
ROOT
ATOM      3  C   UNL     1      -0.543  -0.354  24.359  0.00  0.00    +0.020 C 
ATOM      4  C   UNL     1      -0.947  -1.073  24.318  0.00  0.00    +0.093 C 
ATOM      5  N   UNL     1      -1.707  -1.138  24.631  0.00  0.00    -0.280 N 
ATOM      6  C   UNL     1      -2.064  -0.485  24.985  0.00  0.00    +0.093 C 
ATOM      7  C   UNL     1      -1.662   0.234  25.027  0.00  0.00    +0.022 C 
ATOM      8  C   UNL     1      -0.901   0.300  24.714  0.00  0.00    +0.012 C 
ATOM     20  C   UNL     1      -2.110  -1.856  24.589  0.00  0.00    +0.225 C 
ATOM     21  O   UNL     1      -1.753  -2.510  24.235  0.00  0.00    -0.275 OA
ENDROOT
BRANCH  20  22
ATOM     22  C   UNL     1      -2.871  -1.921  24.902  0.00  0.00    +0.077 C 
ATOM     23  C   UNL     1      -3.370  -2.079  25.540  0.00  0.00    +0.010 C 
ATOM     24  C   UNL     1      -3.689  -1.877  24.807  0.00  0.00    +0.010 C 
ENDBRANCH  20  22
BRANCH   3   2
ATOM      1  C   UNL     1       0.380  -0.585  23.293  0.00  0.00    +0.000 C 
ATOM      2  C   UNL     1       0.216  -0.289  24.047  0.00  0.00    +0.002 C 
ENDBRANCH   3   2
BRANCH   8   9
ATOM      9  C   UNL     1      -0.498   1.019  24.756  0.00  0.00    +0.087 C 
BRANCH   9  10
ATOM     10  C   UNL     1      -0.684   1.562  25.348  0.00  0.00    +0.242 C 
ATOM     11  O   UNL     1      -0.659   1.334  26.140  0.00  0.00    -0.273 OA
ATOM     12  N   UNL     1      -0.896   2.333  25.147  0.00  0.00    -0.200 NA
BRANCH  12  13
ATOM     13  C   UNL     1      -1.083   2.877  25.740  0.00  0.00    +0.143 C 
BRANCH  13  14
ATOM     14  C   UNL     1      -1.310   3.644  25.538  0.00  0.00    +0.019 A 
ATOM     15  C   UNL     1      -0.768   4.152  25.176  0.00  0.00    +0.001 A 
ATOM     16  C   UNL     1      -0.995   4.919  24.975  0.00  0.00    +0.020 A 
ATOM     17  C   UNL     1      -1.761   5.178  25.134  0.00  0.00    +0.099 A 
ATOM     18  N   UNL     1      -2.302   4.671  25.496  0.00  0.00    -0.243 NA
ATOM     19  C   UNL     1      -2.075   3.903  25.698  0.00  0.00    +0.096 A 
ENDBRANCH  13  14
ENDBRANCH  12  13
ENDBRANCH   9  10
ENDBRANCH   8   9
TORSDOF 6
ENDMDL
MODEL 6
REMARK VINA RESULT:      -9.5      1.951      2.794
REMARK  Name = 
REMARK  6 active torsions:
REMARK  status: ('A' for Active; 'I' for Inactive)
REMARK    1  A    between atoms: C_2  and  C_3
REMARK    2  A    between atoms: C_8  and  C_9
REMARK    3  A    between atoms: C_9  and  C_10
REMARK    4  A    between atoms: N_12  and  C_13
REMARK    5  A    between atoms: C_13  and  C_14
REMARK    6  A    between atoms: C_20  and  C_22
REMARK                            x       y       z     vdW  Elec       q    Type
REMARK                         _______ _______ _______ _____ _____    ______ ____
ROOT
ATOM      3  C   UNL     1      -0.423   1.526  24.523  0.00  0.00    +0.020 C 
ATOM      4  C   UNL     1      -0.471   2.350  24.538  0.00  0.00    +0.093 C 
ATOM      5  N   UNL     1      -1.119   2.719  24.889  0.00  0.00    -0.280 N 
ATOM      6  C   UNL     1      -1.720   2.266  25.226  0.00  0.00    +0.093 C 
ATOM      7  C   UNL     1      -1.673   1.442  25.212  0.00  0.00    +0.022 C 
ATOM      8  C   UNL     1      -1.025   1.072  24.860  0.00  0.00    +0.012 C 
ATOM     20  C   UNL     1      -1.166   3.542  24.904  0.00  0.00    +0.225 C 
ATOM     21  O   UNL     1      -0.565   3.997  24.567  0.00  0.00    -0.275 OA
ENDROOT
BRANCH  20  22
ATOM     22  C   UNL     1      -1.815   3.913  25.256  0.00  0.00    +0.077 C 
ATOM     23  C   UNL     1      -2.574   4.231  25.198  0.00  0.00    +0.010 C 
ATOM     24  C   UNL     1      -2.179   4.235  25.922  0.00  0.00    +0.010 C 
ENDBRANCH  20  22
BRANCH   3   2
ATOM      1  C   UNL     1       0.863   1.608  23.905  0.00  0.00    +0.000 C 
ATOM      2  C   UNL     1       0.224   1.157  24.171  0.00  0.00    +0.002 C 
ENDBRANCH   3   2
BRANCH   8   9
ATOM      9  C   UNL     1      -0.978   0.248  24.845  0.00  0.00    +0.087 C 
BRANCH   9  10
ATOM     10  C   UNL     1      -1.545  -0.204  25.238  0.00  0.00    +0.242 C 
ATOM     11  O   UNL     1      -1.569  -0.210  26.063  0.00  0.00    -0.273 OA
ATOM     12  N   UNL     1      -2.087  -0.650  24.806  0.00  0.00    -0.200 NA
BRANCH  12  13
ATOM     13  C   UNL     1      -2.655  -1.102  25.199  0.00  0.00    +0.143 C 
BRANCH  13  14
ATOM     14  C   UNL     1      -3.168  -1.584  24.768  0.00  0.00    +0.019 A 
ATOM     15  C   UNL     1      -3.796  -1.247  24.350  0.00  0.00    +0.001 A 
ATOM     16  C   UNL     1      -4.309  -1.729  23.920  0.00  0.00    +0.020 A 
ATOM     17  C   UNL     1      -4.195  -2.545  23.907  0.00  0.00    +0.099 A 
ATOM     18  N   UNL     1      -3.569  -2.881  24.324  0.00  0.00    -0.243 NA
ATOM     19  C   UNL     1      -3.055  -2.400  24.755  0.00  0.00    +0.096 A 
ENDBRANCH  13  14
ENDBRANCH  12  13
ENDBRANCH   9  10
ENDBRANCH   8   9
TORSDOF 6
ENDMDL
