MODEL 1
REMARK VINA RESULT:     -11.0      0.000      0.000
REMARK  Name = 
REMARK  8 active torsions:
REMARK  status: ('A' for Active; 'I' for Inactive)
REMARK    1  A    between atoms: O_2  and  C_3
REMARK    2  A    between atoms: C_3  and  C_4
REMARK    3  A    between atoms: C_4  and  O_5
REMARK    4  A    between atoms: O_5  and  C_6
REMARK    5  A    between atoms: C_8  and  C_12
REMARK    6  A    between atoms: C_15  and  C_17
REMARK    7  A    between atoms: N_21  and  C_22
REMARK    8  A    between atoms: C_22  and  C_23
REMARK                            x       y       z     vdW  Elec       q    Type
REMARK                         _______ _______ _______ _____ _____    ______ ____
ROOT
ATOM     12  C   UNL     1      -1.698   1.985  24.568  0.00  0.00    +0.204 A 
ATOM     13  N   UNL     1      -1.486   1.856  23.780  0.00  0.00    -0.056 NA
ATOM     14  O   UNL     1      -1.278   1.061  23.699  0.00  0.00    -0.336 OA
ATOM     15  C   UNL     1      -1.362   0.699  24.436  0.00  0.00    +0.251 A 
ATOM     16  N   UNL     1      -1.621   1.270  24.972  0.00  0.00    -0.190 NA
ENDROOT
BRANCH  12   8
ATOM      6  C   UNL     1      -2.989   3.622  25.213  0.00  0.00    +0.225 A 
ATOM      7  C   UNL     1      -2.743   2.904  24.889  0.00  0.00    +0.061 A 
ATOM      8  C   UNL     1      -1.943   2.703  24.892  0.00  0.00    +0.045 A 
ATOM      9  C   UNL     1      -1.389   3.217  25.220  0.00  0.00    +0.024 A 
ATOM     10  C   UNL     1      -1.634   3.935  25.544  0.00  0.00    +0.102 A 
ATOM     11  N   UNL     1      -2.434   4.138  25.541  0.00  0.00    -0.210 NA
BRANCH   6   5
ATOM      5  O   UNL     1      -3.788   3.825  25.210  0.00  0.00    -0.457 OA
BRANCH   5   4
ATOM      4  C   UNL     1      -4.314   3.439  25.716  0.00  0.00    +0.239 C 
BRANCH   4   3
ATOM      3  C   UNL     1      -5.126   3.475  25.571  0.00  0.00    +0.189 C 
BRANCH   3   2
ATOM      1  C   UNL     1      -6.105   2.495  25.921  0.00  0.00    +0.174 C 
ATOM      2  O   UNL     1      -5.656   3.158  26.118  0.00  0.00    -0.347 OA
ENDBRANCH   3   2
ENDBRANCH   4   3
ENDBRANCH   5   4
ENDBRANCH   6   5
ENDBRANCH  12   8
BRANCH  15  17
ATOM     17  C   UNL     1      -1.213  -0.094  24.607  0.00  0.00    +0.138 C 
ATOM     18  C   UNL     1      -0.471  -0.430  24.738  0.00  0.00    +0.027 C 
ATOM     19  C   UNL     1      -0.579  -1.235  24.889  0.00  0.00    +0.019 C 
ATOM     20  C   UNL     1      -1.387  -1.395  24.850  0.00  0.00    +0.073 C 
ATOM     21  N   UNL     1      -1.779  -0.690  24.676  0.00  0.00    -0.263 NA
BRANCH  21  22
ATOM     22  C   UNL     1      -2.594  -0.598  24.587  0.00  0.00    +0.102 C 
BRANCH  22  23
ATOM     23  C   UNL     1      -3.078  -1.261  24.508  0.00  0.00    +0.021 A 
ATOM     24  C   UNL     1      -2.964  -1.915  24.998  0.00  0.00    -0.001 A 
ATOM     25  C   UNL     1      -3.448  -2.578  24.918  0.00  0.00    -0.000 A 
ATOM     26  C   UNL     1      -4.046  -2.587  24.350  0.00  0.00    +0.002 A 
ATOM     27  C   UNL     1      -4.160  -1.934  23.860  0.00  0.00    +0.029 A 
ATOM     28  C   UNL     1      -3.675  -1.270  23.939  0.00  0.00    +0.137 A 
ATOM     29  F   UNL     1      -3.789  -0.616  23.449  0.00  0.00    -0.204 F 
ENDBRANCH  22  23
ENDBRANCH  21  22
ENDBRANCH  15  17
TORSDOF 8
ENDMDL
MODEL 2
REMARK VINA RESULT:     -10.9      1.666      3.523
REMARK  Name = 
REMARK  8 active torsions:
REMARK  status: ('A' for Active; 'I' for Inactive)
REMARK    1  A    between atoms: O_2  and  C_3
REMARK    2  A    between atoms: C_3  and  C_4
REMARK    3  A    between atoms: C_4  and  O_5
REMARK    4  A    between atoms: O_5  and  C_6
REMARK    5  A    between atoms: C_8  and  C_12
REMARK    6  A    between atoms: C_15  and  C_17
REMARK    7  A    between atoms: N_21  and  C_22
REMARK    8  A    between atoms: C_22  and  C_23
REMARK                            x       y       z     vdW  Elec       q    Type
REMARK                         _______ _______ _______ _____ _____    ______ ____
ROOT
ATOM     12  C   UNL     1      -3.077   3.400  24.749  0.00  0.00    +0.204 A 
ATOM     13  N   UNL     1      -3.575   3.620  24.128  0.00  0.00    -0.056 NA
ATOM     14  O   UNL     1      -4.255   3.154  24.170  0.00  0.00    -0.336 OA
ATOM     15  C   UNL     1      -4.177   2.647  24.817  0.00  0.00    +0.251 A 
ATOM     16  N   UNL     1      -3.449   2.800  25.174  0.00  0.00    -0.190 NA
ENDROOT
BRANCH  12   8
ATOM      6  C   UNL     1      -0.929   3.566  25.100  0.00  0.00    +0.225 A 
ATOM      7  C   UNL     1      -1.669   3.241  24.934  0.00  0.00    +0.061 A 
ATOM      8  C   UNL     1      -2.337   3.725  24.915  0.00  0.00    +0.045 A 
ATOM      9  C   UNL     1      -2.266   4.533  25.063  0.00  0.00    +0.024 A 
ATOM     10  C   UNL     1      -1.526   4.858  25.229  0.00  0.00    +0.102 A 
ATOM     11  N   UNL     1      -0.857   4.375  25.247  0.00  0.00    -0.210 NA
BRANCH   6   5
ATOM      5  O   UNL     1      -0.261   3.083  25.119  0.00  0.00    -0.457 OA
BRANCH   5   4
ATOM      4  C   UNL     1      -0.083   2.599  24.475  0.00  0.00    +0.239 C 
BRANCH   4   3
ATOM      3  C   UNL     1       0.413   1.947  24.574  0.00  0.00    +0.189 C 
BRANCH   3   2
ATOM      1  C   UNL     1       0.680   0.786  23.784  0.00  0.00    +0.174 C 
ATOM      2  O   UNL     1       0.768   1.595  23.918  0.00  0.00    -0.347 OA
ENDBRANCH   3   2
ENDBRANCH   4   3
ENDBRANCH   5   4
ENDBRANCH   6   5
ENDBRANCH  12   8
BRANCH  15  17
ATOM     17  C   UNL     1      -4.730   2.086  25.062  0.00  0.00    +0.138 C 
ATOM     18  C   UNL     1      -5.435   2.243  25.463  0.00  0.00    +0.027 C 
ATOM     19  C   UNL     1      -5.816   1.524  25.599  0.00  0.00    +0.019 C 
ATOM     20  C   UNL     1      -5.347   0.923  25.283  0.00  0.00    +0.073 C 
ATOM     21  N   UNL     1      -4.676   1.271  24.952  0.00  0.00    -0.263 NA
BRANCH  21  22
ATOM     22  C   UNL     1      -4.059   0.872  24.576  0.00  0.00    +0.102 C 
BRANCH  22  23
ATOM     23  C   UNL     1      -3.978   0.057  24.668  0.00  0.00    +0.021 A 
ATOM     24  C   UNL     1      -3.890  -0.266  25.422  0.00  0.00    -0.001 A 
ATOM     25  C   UNL     1      -3.808  -1.082  25.515  0.00  0.00    -0.000 A 
ATOM     26  C   UNL     1      -3.815  -1.575  24.854  0.00  0.00    +0.002 A 
ATOM     27  C   UNL     1      -3.903  -1.252  24.099  0.00  0.00    +0.029 A 
ATOM     28  C   UNL     1      -3.985  -0.436  24.007  0.00  0.00    +0.137 A 
ATOM     29  F   UNL     1      -4.073  -0.114  23.253  0.00  0.00    -0.204 F 
ENDBRANCH  22  23
ENDBRANCH  21  22
ENDBRANCH  15  17
TORSDOF 8
ENDMDL
MODEL 3
REMARK VINA RESULT:     -10.7      1.676      4.743
REMARK  Name = 
REMARK  8 active torsions:
REMARK  status: ('A' for Active; 'I' for Inactive)
REMARK    1  A    between atoms: O_2  and  C_3
REMARK    2  A    between atoms: C_3  and  C_4
REMARK    3  A    between atoms: C_4  and  O_5
REMARK    4  A    between atoms: O_5  and  C_6
REMARK    5  A    between atoms: C_8  and  C_12
REMARK    6  A    between atoms: C_15  and  C_17
REMARK    7  A    between atoms: N_21  and  C_22
REMARK    8  A    between atoms: C_22  and  C_23
REMARK                            x       y       z     vdW  Elec       q    Type
REMARK                         _______ _______ _______ _____ _____    ______ ____
ROOT
ATOM     12  C   UNL     1      -0.534   1.482  25.010  0.00  0.00    +0.204 A 
ATOM     13  N   UNL     1      -0.323   1.667  25.787  0.00  0.00    -0.056 NA
ATOM     14  O   UNL     1      -0.614   2.420  25.958  0.00  0.00    -0.336 OA
ATOM     15  C   UNL     1      -1.004   2.701  25.288  0.00  0.00    +0.251 A 
ATOM     16  N   UNL     1      -0.955   2.121  24.702  0.00  0.00    -0.190 NA
ENDROOT
BRANCH  12   8
ATOM      6  C   UNL     1      -0.516  -0.629  24.459  0.00  0.00    +0.225 A 
ATOM      7  C   UNL     1      -0.695   0.071  24.857  0.00  0.00    +0.061 A 
ATOM      8  C   UNL     1      -0.355   0.782  24.613  0.00  0.00    +0.045 A 
ATOM      9  C   UNL     1       0.163   0.793  23.972  0.00  0.00    +0.024 A 
ATOM     10  C   UNL     1       0.342   0.093  23.574  0.00  0.00    +0.102 A 
ATOM     11  N   UNL     1       0.003  -0.619  23.817  0.00  0.00    -0.210 NA
BRANCH   6   5
ATOM      5  O   UNL     1      -0.856  -1.341  24.703  0.00  0.00    -0.457 OA
BRANCH   5   4
ATOM      4  C   UNL     1      -1.582  -1.579  24.392  0.00  0.00    +0.239 C 
BRANCH   4   3
ATOM      3  C   UNL     1      -1.971  -2.234  24.710  0.00  0.00    +0.189 C 
BRANCH   3   2
ATOM      1  C   UNL     1      -3.322  -2.699  24.690  0.00  0.00    +0.174 C 
ATOM      2  O   UNL     1      -2.604  -2.574  24.305  0.00  0.00    -0.347 OA
ENDBRANCH   3   2
ENDBRANCH   4   3
ENDBRANCH   5   4
ENDBRANCH   6   5
ENDBRANCH  12   8
BRANCH  15  17
ATOM     17  C   UNL     1      -1.378   3.432  25.215  0.00  0.00    +0.138 C 
ATOM     18  C   UNL     1      -1.005   4.168  25.193  0.00  0.00    +0.027 C 
ATOM     19  C   UNL     1      -1.587   4.747  25.116  0.00  0.00    +0.019 C 
ATOM     20  C   UNL     1      -2.320   4.370  25.090  0.00  0.00    +0.073 C 
ATOM     21  N   UNL     1      -2.191   3.557  25.151  0.00  0.00    -0.263 NA
BRANCH  21  22
ATOM     22  C   UNL     1      -2.773   2.973  25.149  0.00  0.00    +0.102 C 
BRANCH  22  23
ATOM     23  C   UNL     1      -3.566   3.180  25.238  0.00  0.00    +0.021 A 
ATOM     24  C   UNL     1      -3.808   3.614  25.897  0.00  0.00    -0.001 A 
ATOM     25  C   UNL     1      -4.601   3.821  25.986  0.00  0.00    -0.000 A 
ATOM     26  C   UNL     1      -5.153   3.594  25.416  0.00  0.00    +0.002 A 
ATOM     27  C   UNL     1      -4.912   3.160  24.758  0.00  0.00    +0.029 A 
ATOM     28  C   UNL     1      -4.118   2.953  24.669  0.00  0.00    +0.137 A 
ATOM     29  F   UNL     1      -3.877   2.518  24.010  0.00  0.00    -0.204 F 
ENDBRANCH  22  23
ENDBRANCH  21  22
ENDBRANCH  15  17
TORSDOF 8
ENDMDL
MODEL 4
REMARK VINA RESULT:     -10.6      1.527      2.913
REMARK  Name = 
REMARK  8 active torsions:
REMARK  status: ('A' for Active; 'I' for Inactive)
REMARK    1  A    between atoms: O_2  and  C_3
REMARK    2  A    between atoms: C_3  and  C_4
REMARK    3  A    between atoms: C_4  and  O_5
REMARK    4  A    between atoms: O_5  and  C_6
REMARK    5  A    between atoms: C_8  and  C_12
REMARK    6  A    between atoms: C_15  and  C_17
REMARK    7  A    between atoms: N_21  and  C_22
REMARK    8  A    between atoms: C_22  and  C_23
REMARK                            x       y       z     vdW  Elec       q    Type
REMARK                         _______ _______ _______ _____ _____    ______ ____
ROOT
ATOM     12  C   UNL     1      -4.051   1.576  24.438  0.00  0.00    +0.204 A 
ATOM     13  N   UNL     1      -3.821   1.507  23.649  0.00  0.00    -0.056 NA
ATOM     14  O   UNL     1      -3.684   0.708  23.492  0.00  0.00    -0.336 OA
ATOM     15  C   UNL     1      -3.829   0.284  24.184  0.00  0.00    +0.251 A 
ATOM     16  N   UNL     1      -4.056   0.820  24.769  0.00  0.00    -0.190 NA
ENDROOT
BRANCH  12   8
ATOM      6  C   UNL     1      -3.835   3.465  25.510  0.00  0.00    +0.225 A 
ATOM      7  C   UNL     1      -3.643   2.763  25.120  0.00  0.00    +0.061 A 
ATOM      8  C   UNL     1      -4.243   2.277  24.828  0.00  0.00    +0.045 A 
ATOM      9  C   UNL     1      -5.033   2.492  24.926  0.00  0.00    +0.024 A 
ATOM     10  C   UNL     1      -5.224   3.194  25.315  0.00  0.00    +0.102 A 
ATOM     11  N   UNL     1      -4.626   3.680  25.608  0.00  0.00    -0.210 NA
BRANCH   6   5
ATOM      5  O   UNL     1      -3.236   3.951  25.803  0.00  0.00    -0.457 OA
BRANCH   5   4
ATOM      4  C   UNL     1      -2.664   4.255  25.292  0.00  0.00    +0.239 C 
BRANCH   4   3
ATOM      3  C   UNL     1      -1.979   4.598  25.598  0.00  0.00    +0.189 C 
BRANCH   3   2
ATOM      1  C   UNL     1      -0.822   5.071  24.904  0.00  0.00    +0.174 C 
ATOM      2  O   UNL     1      -1.591   5.192  25.176  0.00  0.00    -0.347 OA
ENDBRANCH   3   2
ENDBRANCH   4   3
ENDBRANCH   5   4
ENDBRANCH   6   5
ENDBRANCH  12   8
BRANCH  15  17
ATOM     17  C   UNL     1      -3.760  -0.533  24.276  0.00  0.00    +0.138 C 
ATOM     18  C   UNL     1      -4.356  -1.088  24.144  0.00  0.00    +0.027 C 
ATOM     19  C   UNL     1      -4.046  -1.837  24.303  0.00  0.00    +0.019 C 
ATOM     20  C   UNL     1      -3.260  -1.744  24.532  0.00  0.00    +0.073 C 
ATOM     21  N   UNL     1      -3.082  -0.938  24.516  0.00  0.00    -0.263 NA
BRANCH  21  22
ATOM     22  C   UNL     1      -2.355  -0.598  24.706  0.00  0.00    +0.102 C 
BRANCH  22  23
ATOM     23  C   UNL     1      -1.708  -1.078  24.879  0.00  0.00    +0.021 A 
ATOM     24  C   UNL     1      -1.502  -1.693  24.368  0.00  0.00    -0.001 A 
ATOM     25  C   UNL     1      -0.854  -2.173  24.540  0.00  0.00    -0.000 A 
ATOM     26  C   UNL     1      -0.412  -2.039  25.224  0.00  0.00    +0.002 A 
ATOM     27  C   UNL     1      -0.617  -1.425  25.735  0.00  0.00    +0.029 A 
ATOM     28  C   UNL     1      -1.265  -0.945  25.562  0.00  0.00    +0.137 A 
ATOM     29  F   UNL     1      -1.471  -0.330  26.073  0.00  0.00    -0.204 F 
ENDBRANCH  22  23
ENDBRANCH  21  22
ENDBRANCH  15  17
TORSDOF 8
ENDMDL
MODEL 5
REMARK VINA RESULT:     -10.6      1.851      5.366
REMARK  Name = 
REMARK  8 active torsions:
REMARK  status: ('A' for Active; 'I' for Inactive)
REMARK    1  A    between atoms: O_2  and  C_3
REMARK    2  A    between atoms: C_3  and  C_4
REMARK    3  A    between atoms: C_4  and  O_5
REMARK    4  A    between atoms: O_5  and  C_6
REMARK    5  A    between atoms: C_8  and  C_12
REMARK    6  A    between atoms: C_15  and  C_17
REMARK    7  A    between atoms: N_21  and  C_22
REMARK    8  A    between atoms: C_22  and  C_23
REMARK                            x       y       z     vdW  Elec       q    Type
REMARK                         _______ _______ _______ _____ _____    ______ ____
ROOT
ATOM     12  C   UNL     1      -4.052  -0.112  24.776  0.00  0.00    +0.204 A 
ATOM     13  N   UNL     1      -4.534   0.017  24.119  0.00  0.00    -0.056 NA
ATOM     14  O   UNL     1      -4.932   0.731  24.232  0.00  0.00    -0.336 OA
ATOM     15  C   UNL     1      -4.696   1.043  24.958  0.00  0.00    +0.251 A 
ATOM     16  N   UNL     1      -4.152   0.521  25.294  0.00  0.00    -0.190 NA
ENDROOT
BRANCH  12   8
ATOM      6  C   UNL     1      -2.243  -1.307  25.029  0.00  0.00    +0.225 A 
ATOM      7  C   UNL     1      -2.738  -0.657  24.912  0.00  0.00    +0.061 A 
ATOM      8  C   UNL     1      -3.556  -0.761  24.893  0.00  0.00    +0.045 A 
ATOM      9  C   UNL     1      -3.879  -1.513  24.992  0.00  0.00    +0.024 A 
ATOM     10  C   UNL     1      -3.384  -2.163  25.109  0.00  0.00    +0.102 A 
ATOM     11  N   UNL     1      -2.566  -2.060  25.128  0.00  0.00    -0.210 NA
BRANCH   6   5
ATOM      5  O   UNL     1      -1.424  -1.204  25.048  0.00  0.00    -0.457 OA
BRANCH   5   4
ATOM      4  C   UNL     1      -1.006  -1.090  24.345  0.00  0.00    +0.239 C 
BRANCH   4   3
ATOM      3  C   UNL     1      -0.243  -0.777  24.366  0.00  0.00    +0.189 C 
BRANCH   3   2
ATOM      1  C   UNL     1       0.630  -0.155  23.421  0.00  0.00    +0.174 C 
ATOM      2  O   UNL     1       0.241  -0.827  23.701  0.00  0.00    -0.347 OA
ENDBRANCH   3   2
ENDBRANCH   4   3
ENDBRANCH   5   4
ENDBRANCH   6   5
ENDBRANCH  12   8
BRANCH  15  17
ATOM     17  C   UNL     1      -4.958   1.751  25.291  0.00  0.00    +0.138 C 
ATOM     18  C   UNL     1      -5.662   1.860  25.707  0.00  0.00    +0.027 C 
ATOM     19  C   UNL     1      -5.701   2.651  25.939  0.00  0.00    +0.019 C 
ATOM     20  C   UNL     1      -5.021   3.030  25.666  0.00  0.00    +0.073 C 
ATOM     21  N   UNL     1      -4.562   2.474  25.266  0.00  0.00    -0.263 NA
BRANCH  21  22
ATOM     22  C   UNL     1      -3.835   2.616  24.904  0.00  0.00    +0.102 C 
BRANCH  22  23
ATOM     23  C   UNL     1      -3.382   3.267  25.130  0.00  0.00    +0.021 A 
ATOM     24  C   UNL     1      -3.181   3.375  25.923  0.00  0.00    -0.001 A 
ATOM     25  C   UNL     1      -2.728   4.026  26.149  0.00  0.00    -0.000 A 
ATOM     26  C   UNL     1      -2.476   4.570  25.583  0.00  0.00    +0.002 A 
ATOM     27  C   UNL     1      -2.676   4.463  24.790  0.00  0.00    +0.029 A 
ATOM     28  C   UNL     1      -3.129   3.811  24.564  0.00  0.00    +0.137 A 
ATOM     29  F   UNL     1      -3.329   3.704  23.770  0.00  0.00    -0.204 F 
ENDBRANCH  22  23
ENDBRANCH  21  22
ENDBRANCH  15  17
TORSDOF 8
ENDMDL
MODEL 6
REMARK VINA RESULT:     -10.2      2.042      5.183
REMARK  Name = 
REMARK  8 active torsions:
REMARK  status: ('A' for Active; 'I' for Inactive)
REMARK    1  A    between atoms: O_2  and  C_3
REMARK    2  A    between atoms: C_3  and  C_4
REMARK    3  A    between atoms: C_4  and  O_5
REMARK    4  A    between atoms: O_5  and  C_6
REMARK    5  A    between atoms: C_8  and  C_12
REMARK    6  A    between atoms: C_15  and  C_17
REMARK    7  A    between atoms: N_21  and  C_22
REMARK    8  A    between atoms: C_22  and  C_23
REMARK                            x       y       z     vdW  Elec       q    Type
REMARK                         _______ _______ _______ _____ _____    ______ ____
ROOT
ATOM     12  C   UNL     1      -1.178   1.408  24.040  0.00  0.00    +0.204 A 
ATOM     13  N   UNL     1      -1.420   1.867  23.398  0.00  0.00    -0.056 NA
ATOM     14  O   UNL     1      -1.841   2.514  23.691  0.00  0.00    -0.336 OA
ATOM     15  C   UNL     1      -1.859   2.455  24.514  0.00  0.00    +0.251 A 
ATOM     16  N   UNL     1      -1.449   1.772  24.730  0.00  0.00    -0.190 NA
ENDROOT
BRANCH  12   8
ATOM      6  C   UNL     1       0.318  -0.055  23.423  0.00  0.00    +0.225 A 
ATOM      7  C   UNL     1      -0.118   0.644  23.463  0.00  0.00    +0.061 A 
ATOM      8  C   UNL     1      -0.742   0.710  24.000  0.00  0.00    +0.045 A 
ATOM      9  C   UNL     1      -0.929   0.077  24.495  0.00  0.00    +0.024 A 
ATOM     10  C   UNL     1      -0.493  -0.621  24.454  0.00  0.00    +0.102 A 
ATOM     11  N   UNL     1       0.131  -0.688  23.918  0.00  0.00    -0.210 NA
BRANCH   6   5
ATOM      5  O   UNL     1       0.942  -0.122  22.887  0.00  0.00    -0.457 OA
BRANCH   5   4
ATOM      4  C   UNL     1       1.700   0.121  23.103  0.00  0.00    +0.239 C 
BRANCH   4   3
ATOM      3  C   UNL     1       2.299   0.155  22.537  0.00  0.00    +0.189 C 
BRANCH   3   2
ATOM      1  C   UNL     1       3.645   0.634  22.516  0.00  0.00    +0.174 C 
ATOM      2  O   UNL     1       3.088   0.080  22.767  0.00  0.00    -0.347 OA
ENDBRANCH   3   2
ENDBRANCH   4   3
ENDBRANCH   5   4
ENDBRANCH   6   5
ENDBRANCH  12   8
BRANCH  15  17
ATOM     17  C   UNL     1      -2.222   2.985  25.031  0.00  0.00    +0.138 C 
ATOM     18  C   UNL     1      -1.839   3.547  25.498  0.00  0.00    +0.027 C 
ATOM     19  C   UNL     1      -2.413   3.956  25.927  0.00  0.00    +0.019 C 
ATOM     20  C   UNL     1      -3.150   3.648  25.725  0.00  0.00    +0.073 C 
ATOM     21  N   UNL     1      -3.033   3.047  25.171  0.00  0.00    -0.263 NA
BRANCH  21  22
ATOM     22  C   UNL     1      -3.623   2.590  24.820  0.00  0.00    +0.102 C 
BRANCH  22  23
ATOM     23  C   UNL     1      -4.393   2.616  25.111  0.00  0.00    +0.021 A 
ATOM     24  C   UNL     1      -4.765   3.343  25.233  0.00  0.00    -0.001 A 
ATOM     25  C   UNL     1      -5.536   3.368  25.525  0.00  0.00    -0.000 A 
ATOM     26  C   UNL     1      -5.936   2.667  25.695  0.00  0.00    +0.002 A 
ATOM     27  C   UNL     1      -5.565   1.940  25.574  0.00  0.00    +0.029 A 
ATOM     28  C   UNL     1      -4.794   1.915  25.282  0.00  0.00    +0.137 A 
ATOM     29  F   UNL     1      -4.423   1.188  25.160  0.00  0.00    -0.204 F 
ENDBRANCH  22  23
ENDBRANCH  21  22
ENDBRANCH  15  17
TORSDOF 8
ENDMDL
