MODEL 1
REMARK VINA RESULT:     -12.7      0.000      0.000
REMARK  Name = 
REMARK  8 active torsions:
REMARK  status: ('A' for Active; 'I' for Inactive)
REMARK    1  A    between atoms: N_2  and  C_3
REMARK    2  A    between atoms: N_2  and  C_11
REMARK    3  A    between atoms: C_3  and  C_4
REMARK    4  A    between atoms: C_4  and  C_5
REMARK    5  A    between atoms: C_17  and  N_18
REMARK    6  A    between atoms: N_18  and  C_19
REMARK    7  A    between atoms: C_19  and  C_20
REMARK    8  A    between atoms: C_23  and  C_26
REMARK                            x       y       z     vdW  Elec       q    Type
REMARK                         _______ _______ _______ _____ _____    ______ ____
ROOT
ATOM     11  C   UNL     1      -4.556   2.709  24.954  0.00  0.00    +0.147 C 
ATOM     12  C   UNL     1      -4.925   3.333  25.600  0.00  0.00    +0.253 C 
ATOM     13  O   UNL     1      -4.671   4.170  25.719  0.00  0.00    -0.327 OA
ATOM     14  C   UNL     1      -4.674   3.506  25.426  0.00  0.00    +0.176 C 
ATOM     15  C   UNL     1      -5.002   2.800  25.439  0.00  0.00    +0.166 C 
ATOM     16  O   UNL     1      -5.493   2.850  25.952  0.00  0.00    -0.328 OA
ATOM     17  C   UNL     1      -4.658   2.193  24.826  0.00  0.00    +0.135 C 
ATOM     32  C   UNL     1      -4.088   2.681  24.473  0.00  0.00    +0.190 C 
ATOM     33  O   UNL     1      -3.479   2.920  23.971  0.00  0.00    -0.220 OA
ENDROOT
BRANCH  11   2
ATOM      1  C   UNL     1      -4.597   4.113  24.687  0.00  0.00    +0.090 C 
ATOM      2  N   UNL     1      -4.171   3.437  24.892  0.00  0.00    -0.266 NA
BRANCH   2   3
ATOM      3  C   UNL     1      -3.360   3.488  25.036  0.00  0.00    +0.079 C 
BRANCH   3   4
ATOM      4  C   UNL     1      -3.008   4.225  25.152  0.00  0.00    +0.063 C 
BRANCH   4   5
ATOM      5  C   UNL     1      -2.186   4.287  25.187  0.00  0.00    +0.060 A 
ATOM      6  N   UNL     1      -1.741   3.685  25.534  0.00  0.00    -0.248 NA
ATOM      7  C   UNL     1      -0.919   3.747  25.570  0.00  0.00    +0.098 A 
ATOM      8  C   UNL     1      -0.542   4.411  25.258  0.00  0.00    +0.021 A 
ATOM      9  C   UNL     1      -0.986   5.013  24.911  0.00  0.00    +0.003 A 
ATOM     10  C   UNL     1      -1.808   4.951  24.875  0.00  0.00    +0.015 A 
ENDBRANCH   4   5
ENDBRANCH   3   4
ENDBRANCH   2   3
ENDBRANCH  11   2
BRANCH  17  18
ATOM     18  N   UNL     1      -4.859   1.406  24.677  0.00  0.00    -0.209 NA
BRANCH  18  19
ATOM     19  C   UNL     1      -4.756   0.836  25.264  0.00  0.00    +0.115 C 
BRANCH  19  20
ATOM     20  C   UNL     1      -4.411   0.111  25.079  0.00  0.00    -0.005 A 
ATOM     21  C   UNL     1      -3.905  -0.255  25.618  0.00  0.00    -0.003 A 
ATOM     22  C   UNL     1      -3.559  -0.981  25.433  0.00  0.00    -0.000 A 
ATOM     23  C   UNL     1      -3.719  -1.340  24.708  0.00  0.00    -0.000 A 
ATOM     24  C   UNL     1      -4.225  -0.974  24.168  0.00  0.00    -0.000 A 
ATOM     25  C   UNL     1      -4.571  -0.249  24.354  0.00  0.00    -0.003 A 
BRANCH  23  26
ATOM     26  C   UNL     1      -3.373  -2.067  24.522  0.00  0.00    -0.000 A 
ATOM     27  C   UNL     1      -2.551  -2.144  24.521  0.00  0.00    -0.000 A 
ATOM     28  C   UNL     1      -2.206  -2.869  24.335  0.00  0.00    +0.000 A 
ATOM     29  C   UNL     1      -2.681  -3.517  24.150  0.00  0.00    +0.000 A 
ATOM     30  C   UNL     1      -3.502  -3.440  24.150  0.00  0.00    +0.000 A 
ATOM     31  C   UNL     1      -3.849  -2.714  24.336  0.00  0.00    -0.000 A 
ENDBRANCH  23  26
ENDBRANCH  19  20
ENDBRANCH  18  19
ENDBRANCH  17  18
TORSDOF 8
ENDMDL
MODEL 2
REMARK VINA RESULT:     -12.7      2.545      6.454
REMARK  Name = 
REMARK  8 active torsions:
REMARK  status: ('A' for Active; 'I' for Inactive)
REMARK    1  A    between atoms: N_2  and  C_3
REMARK    2  A    between atoms: N_2  and  C_11
REMARK    3  A    between atoms: C_3  and  C_4
REMARK    4  A    between atoms: C_4  and  C_5
REMARK    5  A    between atoms: C_17  and  N_18
REMARK    6  A    between atoms: N_18  and  C_19
REMARK    7  A    between atoms: C_19  and  C_20
REMARK    8  A    between atoms: C_23  and  C_26
REMARK                            x       y       z     vdW  Elec       q    Type
REMARK                         _______ _______ _______ _____ _____    ______ ____
ROOT
ATOM     11  C   UNL     1      -0.777  -0.551  24.905  0.00  0.00    +0.147 C 
ATOM     12  C   UNL     1      -0.431  -1.144  24.218  0.00  0.00    +0.253 C 
ATOM     13  O   UNL     1      -0.669  -1.984  24.089  0.00  0.00    -0.327 OA
ATOM     14  C   UNL     1      -0.666  -1.329  24.401  0.00  0.00    +0.176 C 
ATOM     15  C   UNL     1      -0.359  -0.615  24.391  0.00  0.00    +0.166 C 
ATOM     16  O   UNL     1       0.102  -0.635  23.848  0.00  0.00    -0.328 OA
ATOM     17  C   UNL     1      -0.681  -0.036  25.043  0.00  0.00    +0.135 C 
ATOM     32  C   UNL     1      -1.215  -0.550  25.413  0.00  0.00    +0.190 C 
ATOM     33  O   UNL     1      -1.786  -0.821  25.943  0.00  0.00    -0.220 OA
ENDROOT
BRANCH  11   2
ATOM      1  C   UNL     1      -0.770  -1.896  25.388  0.00  0.00    +0.090 C 
ATOM      2  N   UNL     1      -1.138  -1.290  24.966  0.00  0.00    -0.266 NA
BRANCH   2   3
ATOM      3  C   UNL     1      -1.867  -1.424  24.605  0.00  0.00    +0.079 C 
BRANCH   3   4
ATOM      4  C   UNL     1      -2.390  -1.978  24.923  0.00  0.00    +0.063 C 
BRANCH   4   5
ATOM      5  C   UNL     1      -3.112  -2.123  24.552  0.00  0.00    +0.060 A 
ATOM      6  N   UNL     1      -3.587  -1.493  24.310  0.00  0.00    -0.248 NA
ATOM      7  C   UNL     1      -4.309  -1.639  23.939  0.00  0.00    +0.098 A 
ATOM      8  C   UNL     1      -4.556  -2.414  23.809  0.00  0.00    +0.021 A 
ATOM      9  C   UNL     1      -4.083  -3.045  24.051  0.00  0.00    +0.003 A 
ATOM     10  C   UNL     1      -3.360  -2.900  24.422  0.00  0.00    +0.015 A 
ENDBRANCH   4   5
ENDBRANCH   3   4
ENDBRANCH   2   3
ENDBRANCH  11   2
BRANCH  17  18
ATOM     18  N   UNL     1      -0.491   0.752  25.204  0.00  0.00    -0.209 NA
BRANCH  18  19
ATOM     19  C   UNL     1      -0.990   1.207  25.678  0.00  0.00    +0.115 C 
BRANCH  19  20
ATOM     20  C   UNL     1      -1.060   2.017  25.544  0.00  0.00    -0.005 A 
ATOM     21  C   UNL     1      -1.733   2.316  25.171  0.00  0.00    -0.003 A 
ATOM     22  C   UNL     1      -1.804   3.127  25.036  0.00  0.00    -0.000 A 
ATOM     23  C   UNL     1      -1.201   3.638  25.275  0.00  0.00    -0.000 A 
ATOM     24  C   UNL     1      -0.529   3.339  25.647  0.00  0.00    -0.000 A 
ATOM     25  C   UNL     1      -0.459   2.529  25.782  0.00  0.00    -0.003 A 
BRANCH  23  26
ATOM     26  C   UNL     1      -1.272   4.450  25.140  0.00  0.00    -0.000 A 
ATOM     27  C   UNL     1      -1.952   4.851  25.381  0.00  0.00    -0.000 A 
ATOM     28  C   UNL     1      -2.022   5.661  25.247  0.00  0.00    +0.000 A 
ATOM     29  C   UNL     1      -1.413   6.072  24.872  0.00  0.00    +0.000 A 
ATOM     30  C   UNL     1      -0.733   5.671  24.631  0.00  0.00    +0.000 A 
ATOM     31  C   UNL     1      -0.662   4.860  24.765  0.00  0.00    -0.000 A 
ENDBRANCH  23  26
ENDBRANCH  19  20
ENDBRANCH  18  19
ENDBRANCH  17  18
TORSDOF 8
ENDMDL
MODEL 3
REMARK VINA RESULT:     -11.4      2.182      3.292
REMARK  Name = 
REMARK  8 active torsions:
REMARK  status: ('A' for Active; 'I' for Inactive)
REMARK    1  A    between atoms: N_2  and  C_3
REMARK    2  A    between atoms: N_2  and  C_11
REMARK    3  A    between atoms: C_3  and  C_4
REMARK    4  A    between atoms: C_4  and  C_5
REMARK    5  A    between atoms: C_17  and  N_18
REMARK    6  A    between atoms: N_18  and  C_19
REMARK    7  A    between atoms: C_19  and  C_20
REMARK    8  A    between atoms: C_23  and  C_26
REMARK                            x       y       z     vdW  Elec       q    Type
REMARK                         _______ _______ _______ _____ _____    ______ ____
ROOT
ATOM     11  C   UNL     1      -0.277   1.582  25.111  0.00  0.00    +0.147 C 
ATOM     12  C   UNL     1       0.263   1.986  24.412  0.00  0.00    +0.253 C 
ATOM     13  O   UNL     1       0.575   2.811  24.408  0.00  0.00    -0.327 OA
ATOM     14  C   UNL     1       0.218   2.232  24.659  0.00  0.00    +0.176 C 
ATOM     15  C   UNL     1       0.017   1.493  24.521  0.00  0.00    +0.166 C 
ATOM     16  O   UNL     1       0.313   1.350  23.889  0.00  0.00    -0.328 OA
ATOM     17  C   UNL     1      -0.500   1.094  25.181  0.00  0.00    +0.135 C 
ATOM     32  C   UNL     1      -0.550   1.734  25.705  0.00  0.00    +0.190 C 
ATOM     33  O   UNL     1      -0.755   2.173  26.373  0.00  0.00    -0.220 OA
ENDROOT
BRANCH  11   2
ATOM      1  C   UNL     1       0.620   2.536  25.685  0.00  0.00    +0.090 C 
ATOM      2  N   UNL     1      -0.096   2.361  25.312  0.00  0.00    -0.266 NA
BRANCH   2   3
ATOM      3  C   UNL     1      -0.629   2.967  25.142  0.00  0.00    +0.079 C 
BRANCH   3   4
ATOM      4  C   UNL     1      -0.594   3.678  25.558  0.00  0.00    +0.063 C 
BRANCH   4   5
ATOM      5  C   UNL     1      -1.132   4.280  25.392  0.00  0.00    +0.060 A 
ATOM      6  N   UNL     1      -1.928   4.190  25.593  0.00  0.00    -0.248 NA
ATOM      7  C   UNL     1      -2.467   4.792  25.427  0.00  0.00    +0.098 A 
ATOM      8  C   UNL     1      -2.211   5.484  25.061  0.00  0.00    +0.021 A 
ATOM      9  C   UNL     1      -1.416   5.575  24.859  0.00  0.00    +0.003 A 
ATOM     10  C   UNL     1      -0.876   4.974  25.025  0.00  0.00    +0.015 A 
ENDBRANCH   4   5
ENDBRANCH   3   4
ENDBRANCH   2   3
ENDBRANCH  11   2
BRANCH  17  18
ATOM     18  N   UNL     1      -0.815   0.332  25.231  0.00  0.00    -0.209 NA
BRANCH  18  19
ATOM     19  C   UNL     1      -1.563   0.216  25.561  0.00  0.00    +0.115 C 
BRANCH  19  20
ATOM     20  C   UNL     1      -2.056  -0.375  25.265  0.00  0.00    -0.005 A 
ATOM     21  C   UNL     1      -2.861  -0.226  25.163  0.00  0.00    -0.003 A 
ATOM     22  C   UNL     1      -3.356  -0.817  24.867  0.00  0.00    -0.000 A 
ATOM     23  C   UNL     1      -3.044  -1.556  24.672  0.00  0.00    -0.000 A 
ATOM     24  C   UNL     1      -2.239  -1.704  24.774  0.00  0.00    -0.000 A 
ATOM     25  C   UNL     1      -1.745  -1.114  25.070  0.00  0.00    -0.003 A 
BRANCH  23  26
ATOM     26  C   UNL     1      -3.538  -2.147  24.376  0.00  0.00    -0.000 A 
ATOM     27  C   UNL     1      -3.422  -2.932  24.601  0.00  0.00    -0.000 A 
ATOM     28  C   UNL     1      -3.916  -3.523  24.305  0.00  0.00    +0.000 A 
ATOM     29  C   UNL     1      -4.525  -3.329  23.784  0.00  0.00    +0.000 A 
ATOM     30  C   UNL     1      -4.641  -2.544  23.559  0.00  0.00    +0.000 A 
ATOM     31  C   UNL     1      -4.148  -1.952  23.855  0.00  0.00    -0.000 A 
ENDBRANCH  23  26
ENDBRANCH  19  20
ENDBRANCH  18  19
ENDBRANCH  17  18
TORSDOF 8
ENDMDL
MODEL 4
REMARK VINA RESULT:     -11.4      3.220      4.708
REMARK  Name = 
REMARK  8 active torsions:
REMARK  status: ('A' for Active; 'I' for Inactive)
REMARK    1  A    between atoms: N_2  and  C_3
REMARK    2  A    between atoms: N_2  and  C_11
REMARK    3  A    between atoms: C_3  and  C_4
REMARK    4  A    between atoms: C_4  and  C_5
REMARK    5  A    between atoms: C_17  and  N_18
REMARK    6  A    between atoms: N_18  and  C_19
REMARK    7  A    between atoms: C_19  and  C_20
REMARK    8  A    between atoms: C_23  and  C_26
REMARK                            x       y       z     vdW  Elec       q    Type
REMARK                         _______ _______ _______ _____ _____    ______ ____
ROOT
ATOM     11  C   UNL     1      -3.013  -0.306  24.741  0.00  0.00    +0.147 C 
ATOM     12  C   UNL     1      -3.475  -0.662  25.517  0.00  0.00    +0.253 C 
ATOM     13  O   UNL     1      -4.329  -0.551  25.710  0.00  0.00    -0.327 OA
ATOM     14  C   UNL     1      -3.714  -0.483  25.332  0.00  0.00    +0.176 C 
ATOM     15  C   UNL     1      -2.958  -0.666  25.298  0.00  0.00    +0.166 C 
ATOM     16  O   UNL     1      -2.851  -1.058  25.883  0.00  0.00    -0.328 OA
ATOM     17  C   UNL     1      -2.503  -0.331  24.560  0.00  0.00    +0.135 C 
ATOM     32  C   UNL     1      -3.132   0.066  24.195  0.00  0.00    +0.190 C 
ATOM     33  O   UNL     1      -3.543   0.520  23.642  0.00  0.00    -0.220 OA
ENDROOT
BRANCH  11   2
ATOM      1  C   UNL     1      -4.377  -0.600  24.433  0.00  0.00    +0.090 C 
ATOM      2  N   UNL     1      -3.806  -0.080  24.722  0.00  0.00    -0.266 NA
BRANCH   2   3
ATOM      3  C   UNL     1      -4.029   0.667  24.994  0.00  0.00    +0.079 C 
BRANCH   3   4
ATOM      4  C   UNL     1      -4.741   1.001  24.744  0.00  0.00    +0.063 C 
BRANCH   4   5
ATOM      5  C   UNL     1      -4.981   1.731  25.044  0.00  0.00    +0.060 A 
ATOM      6  N   UNL     1      -4.502   2.396  24.945  0.00  0.00    -0.248 NA
ATOM      7  C   UNL     1      -4.742   3.126  25.245  0.00  0.00    +0.098 A 
ATOM      8  C   UNL     1      -5.460   3.191  25.643  0.00  0.00    +0.021 A 
ATOM      9  C   UNL     1      -5.940   2.527  25.742  0.00  0.00    +0.003 A 
ATOM     10  C   UNL     1      -5.701   1.797  25.443  0.00  0.00    +0.015 A 
ENDBRANCH   4   5
ENDBRANCH   3   4
ENDBRANCH   2   3
ENDBRANCH  11   2
BRANCH  17  18
ATOM     18  N   UNL     1      -1.711  -0.406  24.337  0.00  0.00    -0.209 NA
BRANCH  18  19
ATOM     19  C   UNL     1      -1.178   0.202  24.499  0.00  0.00    +0.115 C 
BRANCH  19  20
ATOM     20  C   UNL     1      -0.448   0.222  24.116  0.00  0.00    -0.005 A 
ATOM     21  C   UNL     1      -0.122   0.945  23.888  0.00  0.00    -0.003 A 
ATOM     22  C   UNL     1       0.609   0.967  23.505  0.00  0.00    -0.000 A 
ATOM     23  C   UNL     1       1.013   0.264  23.351  0.00  0.00    -0.000 A 
ATOM     24  C   UNL     1       0.687  -0.459  23.579  0.00  0.00    -0.000 A 
ATOM     25  C   UNL     1      -0.043  -0.479  23.962  0.00  0.00    -0.003 A 
BRANCH  23  26
ATOM     26  C   UNL     1       1.744   0.285  22.967  0.00  0.00    -0.000 A 
ATOM     27  C   UNL     1       2.366   0.721  23.289  0.00  0.00    -0.000 A 
ATOM     28  C   UNL     1       3.096   0.742  22.906  0.00  0.00    +0.000 A 
ATOM     29  C   UNL     1       3.205   0.326  22.202  0.00  0.00    +0.000 A 
ATOM     30  C   UNL     1       2.583  -0.111  21.881  0.00  0.00    +0.000 A 
ATOM     31  C   UNL     1       1.852  -0.132  22.263  0.00  0.00    -0.000 A 
ENDBRANCH  23  26
ENDBRANCH  19  20
ENDBRANCH  18  19
ENDBRANCH  17  18
TORSDOF 8
ENDMDL
MODEL 5
REMARK VINA RESULT:     -10.7      3.918      5.851
REMARK  Name = 
REMARK  8 active torsions:
REMARK  status: ('A' for Active; 'I' for Inactive)
REMARK    1  A    between atoms: N_2  and  C_3
REMARK    2  A    between atoms: N_2  and  C_11
REMARK    3  A    between atoms: C_3  and  C_4
REMARK    4  A    between atoms: C_4  and  C_5
REMARK    5  A    between atoms: C_17  and  N_18
REMARK    6  A    between atoms: N_18  and  C_19
REMARK    7  A    between atoms: C_19  and  C_20
REMARK    8  A    between atoms: C_23  and  C_26
REMARK                            x       y       z     vdW  Elec       q    Type
REMARK                         _______ _______ _______ _____ _____    ______ ____
ROOT
ATOM     11  C   UNL     1      -1.717   0.937  24.045  0.00  0.00    +0.147 C 
ATOM     12  C   UNL     1      -2.483   1.388  23.655  0.00  0.00    +0.253 C 
ATOM     13  O   UNL     1      -3.328   1.267  23.882  0.00  0.00    -0.327 OA
ATOM     14  C   UNL     1      -2.609   1.171  23.901  0.00  0.00    +0.176 C 
ATOM     15  C   UNL     1      -1.925   1.383  23.596  0.00  0.00    +0.166 C 
ATOM     16  O   UNL     1      -2.099   1.866  23.104  0.00  0.00    -0.328 OA
ATOM     17  C   UNL     1      -1.182   0.959  23.960  0.00  0.00    +0.135 C 
ATOM     32  C   UNL     1      -1.570   0.480  24.514  0.00  0.00    +0.190 C 
ATOM     33  O   UNL     1      -1.680  -0.074  25.115  0.00  0.00    -0.220 OA
ENDROOT
BRANCH  11   2
ATOM      1  C   UNL     1      -2.807   1.159  24.942  0.00  0.00    +0.090 C 
ATOM      2  N   UNL     1      -2.410   0.673  24.406  0.00  0.00    -0.266 NA
BRANCH   2   3
ATOM      3  C   UNL     1      -2.707  -0.076  24.231  0.00  0.00    +0.079 C 
BRANCH   3   4
ATOM      4  C   UNL     1      -3.303  -0.403  24.697  0.00  0.00    +0.063 C 
BRANCH   4   5
ATOM      5  C   UNL     1      -3.560  -1.175  24.557  0.00  0.00    +0.060 A 
ATOM      6  N   UNL     1      -4.051  -1.336  23.913  0.00  0.00    -0.248 NA
ATOM      7  C   UNL     1      -4.308  -2.107  23.773  0.00  0.00    +0.098 A 
ATOM      8  C   UNL     1      -4.074  -2.717  24.275  0.00  0.00    +0.021 A 
ATOM      9  C   UNL     1      -3.584  -2.557  24.918  0.00  0.00    +0.003 A 
ATOM     10  C   UNL     1      -3.326  -1.786  25.060  0.00  0.00    +0.015 A 
ENDBRANCH   4   5
ENDBRANCH   3   4
ENDBRANCH   2   3
ENDBRANCH  11   2
BRANCH  17  18
ATOM     18  N   UNL     1      -0.379   1.037  23.785  0.00  0.00    -0.209 NA
BRANCH  18  19
ATOM     19  C   UNL     1      -0.016   0.504  23.269  0.00  0.00    +0.115 C 
BRANCH  19  20
ATOM     20  C   UNL     1       0.806   0.482  23.210  0.00  0.00    -0.005 A 
ATOM     21  C   UNL     1       1.261   1.064  23.579  0.00  0.00    -0.003 A 
ATOM     22  C   UNL     1       2.084   1.042  23.520  0.00  0.00    -0.000 A 
ATOM     23  C   UNL     1       2.451   0.439  23.093  0.00  0.00    -0.000 A 
ATOM     24  C   UNL     1       1.996  -0.142  22.725  0.00  0.00    -0.000 A 
ATOM     25  C   UNL     1       1.173  -0.120  22.783  0.00  0.00    -0.003 A 
BRANCH  23  26
ATOM     26  C   UNL     1       3.274   0.418  23.034  0.00  0.00    -0.000 A 
ATOM     27  C   UNL     1       3.691  -0.233  23.324  0.00  0.00    -0.000 A 
ATOM     28  C   UNL     1       4.513  -0.255  23.265  0.00  0.00    +0.000 A 
ATOM     29  C   UNL     1       4.919   0.373  22.917  0.00  0.00    +0.000 A 
ATOM     30  C   UNL     1       4.502   1.024  22.627  0.00  0.00    +0.000 A 
ATOM     31  C   UNL     1       3.679   1.046  22.686  0.00  0.00    -0.000 A 
ENDBRANCH  23  26
ENDBRANCH  19  20
ENDBRANCH  18  19
ENDBRANCH  17  18
TORSDOF 8
ENDMDL
MODEL 6
REMARK VINA RESULT:     -10.6      2.785      4.312
REMARK  Name = 
REMARK  8 active torsions:
REMARK  status: ('A' for Active; 'I' for Inactive)
REMARK    1  A    between atoms: N_2  and  C_3
REMARK    2  A    between atoms: N_2  and  C_11
REMARK    3  A    between atoms: C_3  and  C_4
REMARK    4  A    between atoms: C_4  and  C_5
REMARK    5  A    between atoms: C_17  and  N_18
REMARK    6  A    between atoms: N_18  and  C_19
REMARK    7  A    between atoms: C_19  and  C_20
REMARK    8  A    between atoms: C_23  and  C_26
REMARK                            x       y       z     vdW  Elec       q    Type
REMARK                         _______ _______ _______ _____ _____    ______ ____
ROOT
ATOM     11  C   UNL     1      -2.380   3.433  25.146  0.00  0.00    +0.147 C 
ATOM     12  C   UNL     1      -2.574   3.899  25.976  0.00  0.00    +0.253 C 
ATOM     13  O   UNL     1      -3.351   4.249  26.206  0.00  0.00    -0.327 OA
ATOM     14  C   UNL     1      -2.871   3.898  25.789  0.00  0.00    +0.176 C 
ATOM     15  C   UNL     1      -2.138   3.645  25.729  0.00  0.00    +0.166 C 
ATOM     16  O   UNL     1      -1.835   3.852  26.339  0.00  0.00    -0.328 OA
ATOM     17  C   UNL     1      -1.938   3.197  24.940  0.00  0.00    +0.135 C 
ATOM     32  C   UNL     1      -2.681   3.246  24.577  0.00  0.00    +0.190 C 
ATOM     33  O   UNL     1      -3.274   3.148  24.011  0.00  0.00    -0.220 OA
ENDROOT
BRANCH  11   2
ATOM      1  C   UNL     1      -3.359   4.461  24.982  0.00  0.00    +0.090 C 
ATOM      2  N   UNL     1      -3.168   3.677  25.153  0.00  0.00    -0.266 NA
BRANCH   2   3
ATOM      3  C   UNL     1      -3.766   3.136  25.330  0.00  0.00    +0.079 C 
BRANCH   3   4
ATOM      4  C   UNL     1      -4.552   3.321  25.163  0.00  0.00    +0.063 C 
BRANCH   4   5
ATOM      5  C   UNL     1      -5.149   2.781  25.341  0.00  0.00    +0.060 A 
ATOM      6  N   UNL     1      -5.518   2.801  26.080  0.00  0.00    -0.248 NA
ATOM      7  C   UNL     1      -6.115   2.260  26.257  0.00  0.00    +0.098 A 
ATOM      8  C   UNL     1      -6.344   1.700  25.698  0.00  0.00    +0.021 A 
ATOM      9  C   UNL     1      -5.976   1.679  24.960  0.00  0.00    +0.003 A 
ATOM     10  C   UNL     1      -5.378   2.219  24.781  0.00  0.00    +0.015 A 
ENDBRANCH   4   5
ENDBRANCH   3   4
ENDBRANCH   2   3
ENDBRANCH  11   2
BRANCH  17  18
ATOM     18  N   UNL     1      -1.234   2.854  24.679  0.00  0.00    -0.209 NA
BRANCH  18  19
ATOM     19  C   UNL     1      -1.130   2.037  24.728  0.00  0.00    +0.115 C 
BRANCH  19  20
ATOM     20  C   UNL     1      -0.498   1.678  24.338  0.00  0.00    -0.005 A 
ATOM     21  C   UNL     1      -0.616   0.973  23.924  0.00  0.00    -0.003 A 
ATOM     22  C   UNL     1       0.016   0.613  23.534  0.00  0.00    -0.000 A 
ATOM     23  C   UNL     1       0.765   0.958  23.559  0.00  0.00    -0.000 A 
ATOM     24  C   UNL     1       0.882   1.662  23.973  0.00  0.00    -0.000 A 
ATOM     25  C   UNL     1       0.251   2.022  24.362  0.00  0.00    -0.003 A 
BRANCH  23  26
ATOM     26  C   UNL     1       1.398   0.599  23.169  0.00  0.00    -0.000 A 
ATOM     27  C   UNL     1       1.265  -0.056  22.685  0.00  0.00    -0.000 A 
ATOM     28  C   UNL     1       1.897  -0.415  22.295  0.00  0.00    +0.000 A 
ATOM     29  C   UNL     1       2.661  -0.120  22.389  0.00  0.00    +0.000 A 
ATOM     30  C   UNL     1       2.794   0.534  22.874  0.00  0.00    +0.000 A 
ATOM     31  C   UNL     1       2.162   0.894  23.264  0.00  0.00    -0.000 A 
ENDBRANCH  23  26
ENDBRANCH  19  20
ENDBRANCH  18  19
ENDBRANCH  17  18
TORSDOF 8
ENDMDL
