MODEL 1
REMARK VINA RESULT:     -10.6      0.000      0.000
REMARK  Name = 
REMARK  7 active torsions:
REMARK  status: ('A' for Active; 'I' for Inactive)
REMARK    1  A    between atoms: C_3  and  C_4
REMARK    2  A    between atoms: C_4  and  N_5
REMARK    3  A    between atoms: N_5  and  S_6
REMARK    4  A    between atoms: S_6  and  C_9
REMARK    5  A    between atoms: C_17  and  N_18
REMARK    6  A    between atoms: N_18  and  C_19
REMARK    7  A    between atoms: C_19  and  C_20
REMARK                            x       y       z     vdW  Elec       q    Type
REMARK                         _______ _______ _______ _____ _____    ______ ____
ROOT
ATOM      1  O   UNL     1      -2.786   1.007  23.649  0.00  0.00    -0.219 OA
ATOM      2  C   UNL     1      -3.388   1.123  24.201  0.00  0.00    +0.199 C 
ATOM      3  C   UNL     1      -3.555   1.827  24.596  0.00  0.00    +0.166 C 
ATOM     15  O   UNL     1      -4.199   1.694  25.093  0.00  0.00    -0.350 OA
ATOM     16  C   UNL     1      -4.431   0.907  25.005  0.00  0.00    +0.162 C 
ATOM     17  C   UNL     1      -3.930   0.554  24.454  0.00  0.00    +0.135 C 
ENDROOT
BRANCH   3   4
ATOM      4  C   UNL     1      -3.149   2.540  24.509  0.00  0.00    +0.148 C 
BRANCH   4   5
ATOM      5  N   UNL     1      -2.979   3.002  25.171  0.00  0.00    -0.075 NA
BRANCH   5   6
ATOM      6  S   UNL     1      -2.431   3.617  25.116  0.00  0.00    +0.077 S 
ATOM      7  O   UNL     1      -1.945   3.231  25.660  0.00  0.00    -0.152 OA
ATOM      8  O   UNL     1      -2.918   4.002  24.572  0.00  0.00    -0.152 OA
BRANCH   6   9
ATOM      9  C   UNL     1      -1.884   4.231  25.062  0.00  0.00    +0.124 A 
ATOM     10  C   UNL     1      -2.123   5.010  25.192  0.00  0.00    +0.020 A 
ATOM     11  C   UNL     1      -1.575   5.624  25.137  0.00  0.00    +0.001 A 
ATOM     12  C   UNL     1      -0.787   5.460  24.952  0.00  0.00    +0.000 A 
ATOM     13  C   UNL     1      -0.549   4.681  24.822  0.00  0.00    +0.001 A 
ATOM     14  C   UNL     1      -1.097   4.066  24.877  0.00  0.00    +0.020 A 
ENDBRANCH   6   9
ENDBRANCH   5   6
ENDBRANCH   4   5
ENDBRANCH   3   4
BRANCH  17  18
ATOM     18  N   UNL     1      -3.964  -0.230  24.200  0.00  0.00    -0.209 NA
BRANCH  18  19
ATOM     19  C   UNL     1      -4.186  -0.825  24.727  0.00  0.00    +0.115 C 
BRANCH  19  20
ATOM     20  C   UNL     1      -3.996  -1.611  24.565  0.00  0.00    -0.005 A 
ATOM     21  C   UNL     1      -4.311  -1.983  23.899  0.00  0.00    -0.003 A 
ATOM     22  C   UNL     1      -4.121  -2.770  23.738  0.00  0.00    -0.000 A 
ATOM     23  C   UNL     1      -3.616  -3.184  24.242  0.00  0.00    -0.000 A 
ATOM     24  C   UNL     1      -3.302  -2.812  24.908  0.00  0.00    -0.000 A 
ATOM     25  C   UNL     1      -3.492  -2.025  25.070  0.00  0.00    -0.003 A 
ENDBRANCH  19  20
ENDBRANCH  18  19
ENDBRANCH  17  18
TORSDOF 7
ENDMDL
MODEL 2
REMARK VINA RESULT:     -10.2      1.235      5.862
REMARK  Name = 
REMARK  7 active torsions:
REMARK  status: ('A' for Active; 'I' for Inactive)
REMARK    1  A    between atoms: C_3  and  C_4
REMARK    2  A    between atoms: C_4  and  N_5
REMARK    3  A    between atoms: N_5  and  S_6
REMARK    4  A    between atoms: S_6  and  C_9
REMARK    5  A    between atoms: C_17  and  N_18
REMARK    6  A    between atoms: N_18  and  C_19
REMARK    7  A    between atoms: C_19  and  C_20
REMARK                            x       y       z     vdW  Elec       q    Type
REMARK                         _______ _______ _______ _____ _____    ______ ____
ROOT
ATOM      1  O   UNL     1      -2.536   1.707  23.732  0.00  0.00    -0.219 OA
ATOM      2  C   UNL     1      -3.116   1.893  24.288  0.00  0.00    +0.199 C 
ATOM      3  C   UNL     1      -3.711   1.388  24.556  0.00  0.00    +0.166 C 
ATOM     15  O   UNL     1      -4.165   1.799  25.107  0.00  0.00    -0.350 OA
ATOM     16  C   UNL     1      -3.851   2.558  25.181  0.00  0.00    +0.162 C 
ATOM     17  C   UNL     1      -3.202   2.617  24.675  0.00  0.00    +0.135 C 
ENDROOT
BRANCH   3   4
ATOM      4  C   UNL     1      -3.830   0.608  24.313  0.00  0.00    +0.148 C 
BRANCH   4   5
ATOM      5  N   UNL     1      -4.129   0.052  24.845  0.00  0.00    -0.075 NA
BRANCH   5   6
ATOM      6  S   UNL     1      -4.015  -0.754  24.707  0.00  0.00    +0.077 S 
ATOM      7  O   UNL     1      -4.367  -0.676  23.964  0.00  0.00    -0.152 OA
ATOM      8  O   UNL     1      -3.663  -0.831  25.449  0.00  0.00    -0.152 OA
BRANCH   6   9
ATOM      9  C   UNL     1      -3.901  -1.558  24.569  0.00  0.00    +0.124 A 
ATOM     10  C   UNL     1      -4.261  -1.922  23.921  0.00  0.00    +0.020 A 
ATOM     11  C   UNL     1      -4.147  -2.726  23.783  0.00  0.00    +0.001 A 
ATOM     12  C   UNL     1      -3.672  -3.170  24.293  0.00  0.00    +0.000 A 
ATOM     13  C   UNL     1      -3.313  -2.807  24.941  0.00  0.00    +0.001 A 
ATOM     14  C   UNL     1      -3.427  -2.001  25.078  0.00  0.00    +0.020 A 
ENDBRANCH   6   9
ENDBRANCH   5   6
ENDBRANCH   4   5
ENDBRANCH   3   4
BRANCH  17  18
ATOM     18  N   UNL     1      -2.725   3.281  24.573  0.00  0.00    -0.209 NA
BRANCH  18  19
ATOM     19  C   UNL     1      -2.376   3.642  25.228  0.00  0.00    +0.115 C 
BRANCH  19  20
ATOM     20  C   UNL     1      -1.829   4.250  25.121  0.00  0.00    -0.005 A 
ATOM     21  C   UNL     1      -1.037   4.072  24.973  0.00  0.00    -0.003 A 
ATOM     22  C   UNL     1      -0.490   4.681  24.866  0.00  0.00    -0.000 A 
ATOM     23  C   UNL     1      -0.735   5.467  24.906  0.00  0.00    -0.000 A 
ATOM     24  C   UNL     1      -1.527   5.646  25.054  0.00  0.00    -0.000 A 
ATOM     25  C   UNL     1      -2.074   5.037  25.161  0.00  0.00    -0.003 A 
ENDBRANCH  19  20
ENDBRANCH  18  19
ENDBRANCH  17  18
TORSDOF 7
ENDMDL
MODEL 3
REMARK VINA RESULT:      -7.6      3.489      4.845
REMARK  Name = 
REMARK  7 active torsions:
REMARK  status: ('A' for Active; 'I' for Inactive)
REMARK    1  A    between atoms: C_3  and  C_4
REMARK    2  A    between atoms: C_4  and  N_5
REMARK    3  A    between atoms: N_5  and  S_6
REMARK    4  A    between atoms: S_6  and  C_9
REMARK    5  A    between atoms: C_17  and  N_18
REMARK    6  A    between atoms: N_18  and  C_19
REMARK    7  A    between atoms: C_19  and  C_20
REMARK                            x       y       z     vdW  Elec       q    Type
REMARK                         _______ _______ _______ _____ _____    ______ ____
ROOT
ATOM      1  O   UNL     1      -0.609   1.992  23.933  0.00  0.00    -0.219 OA
ATOM      2  C   UNL     1      -0.752   1.182  24.004  0.00  0.00    +0.199 C 
ATOM      3  C   UNL     1      -1.456   0.835  24.257  0.00  0.00    +0.166 C 
ATOM     15  O   UNL     1      -1.354   0.017  24.244  0.00  0.00    -0.350 OA
ATOM     16  C   UNL     1      -0.588  -0.142  23.984  0.00  0.00    +0.162 C 
ATOM     17  C   UNL     1      -0.215   0.578  23.835  0.00  0.00    +0.135 C 
ENDROOT
BRANCH   3   4
ATOM      4  C   UNL     1      -2.141   1.236  24.483  0.00  0.00    +0.148 C 
BRANCH   4   5
ATOM      5  N   UNL     1      -2.881   0.919  24.305  0.00  0.00    -0.075 NA
BRANCH   5   6
ATOM      6  S   UNL     1      -3.567   1.316  24.538  0.00  0.00    +0.077 S 
ATOM      7  O   UNL     1      -3.655   1.613  23.773  0.00  0.00    -0.152 OA
ATOM      8  O   UNL     1      -3.478   1.019  25.303  0.00  0.00    -0.152 OA
BRANCH   6   9
ATOM      9  C   UNL     1      -4.251   1.712  24.771  0.00  0.00    +0.124 A 
ATOM     10  C   UNL     1      -4.951   1.292  24.892  0.00  0.00    +0.020 A 
ATOM     11  C   UNL     1      -5.635   1.689  25.124  0.00  0.00    +0.001 A 
ATOM     12  C   UNL     1      -5.621   2.507  25.236  0.00  0.00    +0.000 A 
ATOM     13  C   UNL     1      -4.921   2.927  25.115  0.00  0.00    +0.001 A 
ATOM     14  C   UNL     1      -4.236   2.530  24.883  0.00  0.00    +0.020 A 
ENDBRANCH   6   9
ENDBRANCH   5   6
ENDBRANCH   4   5
ENDBRANCH   3   4
BRANCH  17  18
ATOM     18  N   UNL     1       0.557   0.678  23.565  0.00  0.00    -0.209 NA
BRANCH  18  19
ATOM     19  C   UNL     1       0.976   0.033  23.268  0.00  0.00    +0.115 C 
BRANCH  19  20
ATOM     20  C   UNL     1       1.714   0.147  22.915  0.00  0.00    -0.005 A 
ATOM     21  C   UNL     1       2.303   0.562  23.316  0.00  0.00    -0.003 A 
ATOM     22  C   UNL     1       3.041   0.676  22.963  0.00  0.00    -0.000 A 
ATOM     23  C   UNL     1       3.188   0.375  22.209  0.00  0.00    -0.000 A 
ATOM     24  C   UNL     1       2.598  -0.040  21.808  0.00  0.00    -0.000 A 
ATOM     25  C   UNL     1       1.861  -0.154  22.161  0.00  0.00    -0.003 A 
ENDBRANCH  19  20
ENDBRANCH  18  19
ENDBRANCH  17  18
TORSDOF 7
ENDMDL
MODEL 4
REMARK VINA RESULT:      -7.5      3.440      4.626
REMARK  Name = 
REMARK  7 active torsions:
REMARK  status: ('A' for Active; 'I' for Inactive)
REMARK    1  A    between atoms: C_3  and  C_4
REMARK    2  A    between atoms: C_4  and  N_5
REMARK    3  A    between atoms: N_5  and  S_6
REMARK    4  A    between atoms: S_6  and  C_9
REMARK    5  A    between atoms: C_17  and  N_18
REMARK    6  A    between atoms: N_18  and  C_19
REMARK    7  A    between atoms: C_19  and  C_20
REMARK                            x       y       z     vdW  Elec       q    Type
REMARK                         _______ _______ _______ _____ _____    ______ ____
ROOT
ATOM      1  O   UNL     1      -1.932   1.949  23.271  0.00  0.00    -0.219 OA
ATOM      2  C   UNL     1      -1.901   1.388  23.874  0.00  0.00    +0.199 C 
ATOM      3  C   UNL     1      -1.269   0.883  24.036  0.00  0.00    +0.166 C 
ATOM     15  O   UNL     1      -1.475   0.416  24.684  0.00  0.00    -0.350 OA
ATOM     16  C   UNL     1      -2.234   0.633  24.923  0.00  0.00    +0.162 C 
ATOM     17  C   UNL     1      -2.498   1.233  24.423  0.00  0.00    +0.135 C 
ENDROOT
BRANCH   3   4
ATOM      4  C   UNL     1      -0.556   0.851  23.621  0.00  0.00    +0.148 C 
BRANCH   4   5
ATOM      5  N   UNL     1       0.045   0.345  23.873  0.00  0.00    -0.075 NA
BRANCH   5   6
ATOM      6  S   UNL     1       0.755   0.306  23.454  0.00  0.00    +0.077 S 
ATOM      7  O   UNL     1       0.961   1.055  23.734  0.00  0.00    -0.152 OA
ATOM      8  O   UNL     1       0.548  -0.442  23.173  0.00  0.00    -0.152 OA
BRANCH   6   9
ATOM      9  C   UNL     1       1.463   0.268  23.034  0.00  0.00    +0.124 A 
ATOM     10  C   UNL     1       2.128   0.674  23.308  0.00  0.00    +0.020 A 
ATOM     11  C   UNL     1       2.837   0.635  22.889  0.00  0.00    +0.001 A 
ATOM     12  C   UNL     1       2.883   0.191  22.195  0.00  0.00    +0.000 A 
ATOM     13  C   UNL     1       2.218  -0.215  21.921  0.00  0.00    +0.001 A 
ATOM     14  C   UNL     1       1.509  -0.177  22.341  0.00  0.00    +0.020 A 
ENDBRANCH   6   9
ENDBRANCH   5   6
ENDBRANCH   4   5
ENDBRANCH   3   4
BRANCH  17  18
ATOM     18  N   UNL     1      -3.229   1.612  24.464  0.00  0.00    -0.209 NA
BRANCH  18  19
ATOM     19  C   UNL     1      -3.795   1.358  25.008  0.00  0.00    +0.115 C 
BRANCH  19  20
ATOM     20  C   UNL     1      -4.501   1.776  25.094  0.00  0.00    -0.005 A 
ATOM     21  C   UNL     1      -4.488   2.558  25.355  0.00  0.00    -0.003 A 
ATOM     22  C   UNL     1      -5.195   2.977  25.441  0.00  0.00    -0.000 A 
ATOM     23  C   UNL     1      -5.913   2.612  25.266  0.00  0.00    -0.000 A 
ATOM     24  C   UNL     1      -5.927   1.829  25.005  0.00  0.00    -0.000 A 
ATOM     25  C   UNL     1      -5.220   1.411  24.919  0.00  0.00    -0.003 A 
ENDBRANCH  19  20
ENDBRANCH  18  19
ENDBRANCH  17  18
TORSDOF 7
ENDMDL
