MODEL 1
REMARK VINA RESULT:     -11.4      0.000      0.000
REMARK  Name = 
REMARK  5 active torsions:
REMARK  status: ('A' for Active; 'I' for Inactive)
REMARK    1  A    between atoms: O_2  and  C_3
REMARK    2  A    between atoms: C_6  and  C_7
REMARK    3  A    between atoms: C_7  and  C_8
REMARK    4  A    between atoms: N_10  and  C_11
REMARK    5  A    between atoms: C_17  and  C_18
REMARK                            x       y       z     vdW  Elec       q    Type
REMARK                         _______ _______ _______ _____ _____    ______ ____
ROOT
ATOM     11  C   UNL     1      -4.187   2.711  24.882  0.00  0.00    +0.132 C 
ATOM     12  C   UNL     1      -4.992   2.801  25.033  0.00  0.00    +0.202 C 
ATOM     13  O   UNL     1      -5.597   2.316  24.752  0.00  0.00    -0.219 OA
ATOM     14  C   UNL     1      -5.088   3.464  25.515  0.00  0.00    +0.184 C 
ATOM     15  O   UNL     1      -5.805   3.757  25.800  0.00  0.00    -0.220 OA
ATOM     16  C   UNL     1      -4.342   3.783  25.661  0.00  0.00    +0.042 C 
ATOM     17  C   UNL     1      -3.784   3.317  25.270  0.00  0.00    +0.049 C 
ENDROOT
BRANCH  17  18
ATOM     18  C   UNL     1      -2.968   3.438  25.268  0.00  0.00    -0.002 A 
ATOM     19  C   UNL     1      -2.520   3.247  25.933  0.00  0.00    -0.001 A 
ATOM     20  C   UNL     1      -1.705   3.367  25.931  0.00  0.00    +0.020 A 
ATOM     21  C   UNL     1      -1.336   3.680  25.262  0.00  0.00    +0.099 A 
ATOM     22  N   UNL     1      -1.784   3.871  24.596  0.00  0.00    -0.243 NA
ATOM     23  C   UNL     1      -2.600   3.751  24.598  0.00  0.00    +0.095 A 
ENDBRANCH  17  18
BRANCH  11  10
ATOM      8  C   UNL     1      -4.004   1.325  24.585  0.00  0.00    +0.246 C 
ATOM      9  O   UNL     1      -4.507   1.126  25.207  0.00  0.00    -0.273 OA
ATOM     10  N   UNL     1      -3.844   2.117  24.422  0.00  0.00    -0.204 NA
BRANCH   8   7
ATOM      7  C   UNL     1      -3.660   0.732  24.126  0.00  0.00    +0.113 C 
BRANCH   7   6
ATOM      3  C   UNL     1      -3.596  -1.598  24.957  0.00  0.00    +0.139 A 
ATOM      4  C   UNL     1      -4.137  -1.383  24.374  0.00  0.00    +0.037 A 
ATOM      5  C   UNL     1      -4.159  -0.607  24.097  0.00  0.00    -0.001 A 
ATOM      6  C   UNL     1      -3.638  -0.044  24.404  0.00  0.00    -0.013 A 
ATOM     24  C   UNL     1      -3.097  -0.259  24.987  0.00  0.00    -0.001 A 
ATOM     25  C   UNL     1      -3.076  -1.036  25.265  0.00  0.00    +0.037 A 
BRANCH   3   2
ATOM      1  C   UNL     1      -3.288  -2.978  24.751  0.00  0.00    +0.252 C 
ATOM      2  O   UNL     1      -3.574  -2.375  25.235  0.00  0.00    -0.471 OA
ENDBRANCH   3   2
ENDBRANCH   7   6
ENDBRANCH   8   7
ENDBRANCH  11  10
TORSDOF 5
ENDMDL
MODEL 2
REMARK VINA RESULT:     -10.8      1.802      3.909
REMARK  Name = 
REMARK  5 active torsions:
REMARK  status: ('A' for Active; 'I' for Inactive)
REMARK    1  A    between atoms: O_2  and  C_3
REMARK    2  A    between atoms: C_6  and  C_7
REMARK    3  A    between atoms: C_7  and  C_8
REMARK    4  A    between atoms: N_10  and  C_11
REMARK    5  A    between atoms: C_17  and  C_18
REMARK                            x       y       z     vdW  Elec       q    Type
REMARK                         _______ _______ _______ _____ _____    ______ ____
ROOT
ATOM     11  C   UNL     1      -4.194   1.407  24.506  0.00  0.00    +0.132 C 
ATOM     12  C   UNL     1      -4.717   2.037  24.596  0.00  0.00    +0.202 C 
ATOM     13  O   UNL     1      -4.581   2.818  24.370  0.00  0.00    -0.219 OA
ATOM     14  C   UNL     1      -5.404   1.749  24.954  0.00  0.00    +0.184 C 
ATOM     15  O   UNL     1      -6.073   2.192  25.147  0.00  0.00    -0.220 OA
ATOM     16  C   UNL     1      -5.303   0.941  25.084  0.00  0.00    +0.042 C 
ATOM     17  C   UNL     1      -4.555   0.729  24.807  0.00  0.00    +0.049 C 
ENDROOT
BRANCH  17  18
ATOM     18  C   UNL     1      -4.228  -0.028  24.828  0.00  0.00    -0.002 A 
ATOM     19  C   UNL     1      -4.193  -0.483  24.142  0.00  0.00    -0.001 A 
ATOM     20  C   UNL     1      -3.866  -1.240  24.163  0.00  0.00    +0.020 A 
ATOM     21  C   UNL     1      -3.573  -1.542  24.873  0.00  0.00    +0.099 A 
ATOM     22  N   UNL     1      -3.607  -1.087  25.560  0.00  0.00    -0.243 NA
ATOM     23  C   UNL     1      -3.935  -0.330  25.539  0.00  0.00    +0.095 A 
ENDBRANCH  17  18
BRANCH  11  10
ATOM      8  C   UNL     1      -2.900   2.009  24.440  0.00  0.00    +0.246 C 
ATOM      9  O   UNL     1      -3.113   2.532  25.040  0.00  0.00    -0.273 OA
ATOM     10  N   UNL     1      -3.440   1.446  24.172  0.00  0.00    -0.204 NA
BRANCH   8   7
ATOM      7  C   UNL     1      -2.146   2.049  24.106  0.00  0.00    +0.113 C 
BRANCH   7   6
ATOM      3  C   UNL     1      -0.167   2.376  25.554  0.00  0.00    +0.139 A 
ATOM      4  C   UNL     1      -0.385   1.617  25.320  0.00  0.00    +0.037 A 
ATOM      5  C   UNL     1      -1.045   1.507  24.838  0.00  0.00    -0.001 A 
ATOM      6  C   UNL     1      -1.487   2.159  24.589  0.00  0.00    -0.013 A 
ATOM     24  C   UNL     1      -1.268   2.918  24.823  0.00  0.00    -0.001 A 
ATOM     25  C   UNL     1      -0.608   3.027  25.306  0.00  0.00    +0.037 A 
BRANCH   3   2
ATOM      1  C   UNL     1       0.407   2.502  26.858  0.00  0.00    +0.252 C 
ATOM      2  O   UNL     1       0.494   2.485  26.037  0.00  0.00    -0.471 OA
ENDBRANCH   3   2
ENDBRANCH   7   6
ENDBRANCH   8   7
ENDBRANCH  11  10
TORSDOF 5
ENDMDL
MODEL 3
REMARK VINA RESULT:     -10.6      1.745      3.987
REMARK  Name = 
REMARK  5 active torsions:
REMARK  status: ('A' for Active; 'I' for Inactive)
REMARK    1  A    between atoms: O_2  and  C_3
REMARK    2  A    between atoms: C_6  and  C_7
REMARK    3  A    between atoms: C_7  and  C_8
REMARK    4  A    between atoms: N_10  and  C_11
REMARK    5  A    between atoms: C_17  and  C_18
REMARK                            x       y       z     vdW  Elec       q    Type
REMARK                         _______ _______ _______ _____ _____    ______ ____
ROOT
ATOM     11  C   UNL     1      -1.646  -0.136  24.578  0.00  0.00    +0.132 C 
ATOM     12  C   UNL     1      -1.686  -0.950  24.696  0.00  0.00    +0.202 C 
ATOM     13  O   UNL     1      -2.269  -1.456  24.404  0.00  0.00    -0.219 OA
ATOM     14  C   UNL     1      -1.040  -1.173  25.158  0.00  0.00    +0.184 C 
ATOM     15  O   UNL     1      -0.863  -1.940  25.409  0.00  0.00    -0.220 OA
ATOM     16  C   UNL     1      -0.600  -0.495  25.326  0.00  0.00    +0.042 C 
ATOM     17  C   UNL     1      -0.975   0.147  24.967  0.00  0.00    +0.049 C 
ENDROOT
BRANCH  17  18
ATOM     18  C   UNL     1      -0.723   0.932  24.994  0.00  0.00    -0.002 A 
ATOM     19  C   UNL     1      -0.826   1.376  25.680  0.00  0.00    -0.001 A 
ATOM     20  C   UNL     1      -0.574   2.160  25.706  0.00  0.00    +0.020 A 
ATOM     21  C   UNL     1      -0.217   2.501  25.045  0.00  0.00    +0.099 A 
ATOM     22  N   UNL     1      -0.113   2.056  24.358  0.00  0.00    -0.243 NA
ATOM     23  C   UNL     1      -0.365   1.272  24.331  0.00  0.00    +0.095 A 
ENDBRANCH  17  18
BRANCH  11  10
ATOM      8  C   UNL     1      -2.988   0.281  24.320  0.00  0.00    +0.246 C 
ATOM      9  O   UNL     1      -3.257  -0.212  24.923  0.00  0.00    -0.273 OA
ATOM     10  N   UNL     1      -2.183   0.319  24.147  0.00  0.00    -0.204 NA
BRANCH   8   7
ATOM      7  C   UNL     1      -3.525   0.735  23.888  0.00  0.00    +0.113 C 
BRANCH   7   6
ATOM      3  C   UNL     1      -5.077   2.265  25.060  0.00  0.00    +0.139 A 
ATOM      4  C   UNL     1      -4.483   2.571  24.579  0.00  0.00    +0.037 A 
ATOM      5  C   UNL     1      -3.965   2.061  24.188  0.00  0.00    -0.001 A 
ATOM      6  C   UNL     1      -4.043   1.244  24.279  0.00  0.00    -0.013 A 
ATOM     24  C   UNL     1      -4.638   0.938  24.761  0.00  0.00    -0.001 A 
ATOM     25  C   UNL     1      -5.156   1.449  25.152  0.00  0.00    +0.037 A 
BRANCH   3   2
ATOM      1  C   UNL     1      -5.335   3.517  25.700  0.00  0.00    +0.252 C 
ATOM      2  O   UNL     1      -5.596   2.775  25.451  0.00  0.00    -0.471 OA
ENDBRANCH   3   2
ENDBRANCH   7   6
ENDBRANCH   8   7
ENDBRANCH  11  10
TORSDOF 5
ENDMDL
MODEL 4
REMARK VINA RESULT:     -10.5      2.413      4.470
REMARK  Name = 
REMARK  5 active torsions:
REMARK  status: ('A' for Active; 'I' for Inactive)
REMARK    1  A    between atoms: O_2  and  C_3
REMARK    2  A    between atoms: C_6  and  C_7
REMARK    3  A    between atoms: C_7  and  C_8
REMARK    4  A    between atoms: N_10  and  C_11
REMARK    5  A    between atoms: C_17  and  C_18
REMARK                            x       y       z     vdW  Elec       q    Type
REMARK                         _______ _______ _______ _____ _____    ______ ____
ROOT
ATOM     11  C   UNL     1      -3.231  -1.161  24.839  0.00  0.00    +0.132 C 
ATOM     12  C   UNL     1      -3.234  -1.961  24.641  0.00  0.00    +0.202 C 
ATOM     13  O   UNL     1      -2.676  -2.522  24.875  0.00  0.00    -0.219 OA
ATOM     14  C   UNL     1      -3.894  -2.103  24.165  0.00  0.00    +0.184 C 
ATOM     15  O   UNL     1      -4.111  -2.831  23.841  0.00  0.00    -0.220 OA
ATOM     16  C   UNL     1      -4.298  -1.390  24.071  0.00  0.00    +0.042 C 
ATOM     17  C   UNL     1      -3.888  -0.808  24.488  0.00  0.00    +0.049 C 
ENDROOT
BRANCH  17  18
ATOM     18  C   UNL     1      -4.100  -0.012  24.542  0.00  0.00    -0.002 A 
ATOM     19  C   UNL     1      -4.509   0.263  25.203  0.00  0.00    -0.001 A 
ATOM     20  C   UNL     1      -4.720   1.058  25.257  0.00  0.00    +0.020 A 
ATOM     21  C   UNL     1      -4.522   1.579  24.649  0.00  0.00    +0.099 A 
ATOM     22  N   UNL     1      -4.113   1.305  23.987  0.00  0.00    -0.243 NA
ATOM     23  C   UNL     1      -3.901   0.509  23.933  0.00  0.00    +0.095 A 
ENDBRANCH  17  18
BRANCH  11  10
ATOM      8  C   UNL     1      -1.868  -0.837  25.120  0.00  0.00    +0.246 C 
ATOM      9  O   UNL     1      -1.629  -1.275  24.464  0.00  0.00    -0.273 OA
ATOM     10  N   UNL     1      -2.668  -0.780  25.309  0.00  0.00    -0.204 NA
BRANCH   8   7
ATOM      7  C   UNL     1      -1.306  -0.457  25.589  0.00  0.00    +0.113 C 
BRANCH   7   6
ATOM      3  C   UNL     1      -0.176   1.583  24.760  0.00  0.00    +0.139 A 
ATOM      4  C   UNL     1      -0.602   1.605  25.465  0.00  0.00    +0.037 A 
ATOM      5  C   UNL     1      -0.979   0.926  25.742  0.00  0.00    -0.001 A 
ATOM      6  C   UNL     1      -0.929   0.223  25.312  0.00  0.00    -0.013 A 
ATOM     24  C   UNL     1      -0.503   0.200  24.607  0.00  0.00    -0.001 A 
ATOM     25  C   UNL     1      -0.126   0.880  24.331  0.00  0.00    +0.037 A 
BRANCH   3   2
ATOM      1  C   UNL     1      -0.246   2.913  24.242  0.00  0.00    +0.252 C 
ATOM      2  O   UNL     1       0.201   2.263  24.484  0.00  0.00    -0.471 OA
ENDBRANCH   3   2
ENDBRANCH   7   6
ENDBRANCH   8   7
ENDBRANCH  11  10
TORSDOF 5
ENDMDL
MODEL 5
REMARK VINA RESULT:     -10.4      1.617      2.373
REMARK  Name = 
REMARK  5 active torsions:
REMARK  status: ('A' for Active; 'I' for Inactive)
REMARK    1  A    between atoms: O_2  and  C_3
REMARK    2  A    between atoms: C_6  and  C_7
REMARK    3  A    between atoms: C_7  and  C_8
REMARK    4  A    between atoms: N_10  and  C_11
REMARK    5  A    between atoms: C_17  and  C_18
REMARK                            x       y       z     vdW  Elec       q    Type
REMARK                         _______ _______ _______ _____ _____    ______ ____
ROOT
ATOM     11  C   UNL     1      -2.271   2.968  24.549  0.00  0.00    +0.132 C 
ATOM     12  C   UNL     1      -1.471   3.161  24.574  0.00  0.00    +0.202 C 
ATOM     13  O   UNL     1      -0.861   2.759  24.190  0.00  0.00    -0.219 OA
ATOM     14  C   UNL     1      -1.385   3.829  25.051  0.00  0.00    +0.184 C 
ATOM     15  O   UNL     1      -0.675   4.212  25.228  0.00  0.00    -0.220 OA
ATOM     16  C   UNL     1      -2.133   4.048  25.321  0.00  0.00    +0.042 C 
ATOM     17  C   UNL     1      -2.682   3.515  25.010  0.00  0.00    +0.049 C 
ENDROOT
BRANCH  17  18
ATOM     18  C   UNL     1      -3.497   3.528  25.139  0.00  0.00    -0.002 A 
ATOM     19  C   UNL     1      -3.802   3.322  25.876  0.00  0.00    -0.001 A 
ATOM     20  C   UNL     1      -4.616   3.335  26.004  0.00  0.00    +0.020 A 
ATOM     21  C   UNL     1      -5.126   3.556  25.394  0.00  0.00    +0.099 A 
ATOM     22  N   UNL     1      -4.821   3.763  24.656  0.00  0.00    -0.243 NA
ATOM     23  C   UNL     1      -4.006   3.750  24.527  0.00  0.00    +0.095 A 
ENDBRANCH  17  18
BRANCH  11  10
ATOM      8  C   UNL     1      -2.341   1.568  24.272  0.00  0.00    +0.246 C 
ATOM      9  O   UNL     1      -1.744   1.429  24.824  0.00  0.00    -0.273 OA
ATOM     10  N   UNL     1      -2.605   2.336  24.134  0.00  0.00    -0.204 NA
BRANCH   8   7
ATOM      7  C   UNL     1      -2.674   0.937  23.858  0.00  0.00    +0.113 C 
BRANCH   7   6
ATOM      3  C   UNL     1      -3.365  -1.111  25.063  0.00  0.00    +0.139 A 
ATOM      4  C   UNL     1      -3.935  -0.603  24.754  0.00  0.00    +0.037 A 
ATOM      5  C   UNL     1      -3.705   0.080  24.352  0.00  0.00    -0.001 A 
ATOM      6  C   UNL     1      -2.903   0.254  24.260  0.00  0.00    -0.013 A 
ATOM     24  C   UNL     1      -2.333  -0.254  24.569  0.00  0.00    -0.001 A 
ATOM     25  C   UNL     1      -2.564  -0.937  24.972  0.00  0.00    +0.037 A 
BRANCH   3   2
ATOM      1  C   UNL     1      -3.519  -2.531  25.104  0.00  0.00    +0.252 C 
ATOM      2  O   UNL     1      -3.595  -1.794  25.466  0.00  0.00    -0.471 OA
ENDBRANCH   3   2
ENDBRANCH   7   6
ENDBRANCH   8   7
ENDBRANCH  11  10
TORSDOF 5
ENDMDL
MODEL 6
REMARK VINA RESULT:     -10.4      1.887      4.632
REMARK  Name = 
REMARK  5 active torsions:
REMARK  status: ('A' for Active; 'I' for Inactive)
REMARK    1  A    between atoms: O_2  and  C_3
REMARK    2  A    between atoms: C_6  and  C_7
REMARK    3  A    between atoms: C_7  and  C_8
REMARK    4  A    between atoms: N_10  and  C_11
REMARK    5  A    between atoms: C_17  and  C_18
REMARK                            x       y       z     vdW  Elec       q    Type
REMARK                         _______ _______ _______ _____ _____    ______ ____
ROOT
ATOM     11  C   UNL     1      -1.988   0.251  24.265  0.00  0.00    +0.132 C 
ATOM     12  C   UNL     1      -1.260   0.623  24.164  0.00  0.00    +0.202 C 
ATOM     13  O   UNL     1      -1.128   1.333  23.765  0.00  0.00    -0.219 OA
ATOM     14  C   UNL     1      -0.684   0.160  24.532  0.00  0.00    +0.184 C 
ATOM     15  O   UNL     1       0.124   0.326  24.565  0.00  0.00    -0.220 OA
ATOM     16  C   UNL     1      -1.057  -0.498  24.860  0.00  0.00    +0.042 C 
ATOM     17  C   UNL     1      -1.864  -0.442  24.695  0.00  0.00    +0.049 C 
ENDROOT
BRANCH  17  18
ATOM     18  C   UNL     1      -2.443  -0.984  24.922  0.00  0.00    -0.002 A 
ATOM     19  C   UNL     1      -2.723  -0.991  25.697  0.00  0.00    -0.001 A 
ATOM     20  C   UNL     1      -3.302  -1.533  25.923  0.00  0.00    +0.020 A 
ATOM     21  C   UNL     1      -3.602  -2.069  25.373  0.00  0.00    +0.099 A 
ATOM     22  N   UNL     1      -3.322  -2.063  24.596  0.00  0.00    -0.243 NA
ATOM     23  C   UNL     1      -2.743  -1.521  24.370  0.00  0.00    +0.095 A 
ENDBRANCH  17  18
BRANCH  11  10
ATOM      8  C   UNL     1      -2.960   1.293  24.156  0.00  0.00    +0.246 C 
ATOM      9  O   UNL     1      -2.479   1.789  24.605  0.00  0.00    -0.273 OA
ATOM     10  N   UNL     1      -2.715   0.524  23.985  0.00  0.00    -0.204 NA
BRANCH   8   7
ATOM      7  C   UNL     1      -3.687   1.566  23.876  0.00  0.00    +0.113 C 
BRANCH   7   6
ATOM      3  C   UNL     1      -5.170   2.879  25.358  0.00  0.00    +0.139 A 
ATOM      4  C   UNL     1      -4.543   3.248  24.972  0.00  0.00    +0.037 A 
ATOM      5  C   UNL     1      -4.048   2.811  24.478  0.00  0.00    -0.001 A 
ATOM      6  C   UNL     1      -4.182   2.003  24.370  0.00  0.00    -0.013 A 
ATOM     24  C   UNL     1      -4.809   1.634  24.756  0.00  0.00    -0.001 A 
ATOM     25  C   UNL     1      -5.304   2.072  25.251  0.00  0.00    +0.037 A 
BRANCH   3   2
ATOM      1  C   UNL     1      -5.824   4.109  25.682  0.00  0.00    +0.252 C 
ATOM      2  O   UNL     1      -5.665   3.317  25.853  0.00  0.00    -0.471 OA
ENDBRANCH   3   2
ENDBRANCH   7   6
ENDBRANCH   8   7
ENDBRANCH  11  10
TORSDOF 5
ENDMDL
