MODEL 1
REMARK VINA RESULT:      -9.0      0.000      0.000
REMARK  Name = 
REMARK  11 active torsions:
REMARK  status: ('A' for Active; 'I' for Inactive)
REMARK    1  A    between atoms: C_2  and  C_4
REMARK    2  A    between atoms: C_4  and  C_5
REMARK    3  A    between atoms: C_5  and  N_6
REMARK    4  A    between atoms: C_5  and  C_32
REMARK    5  A    between atoms: C_7  and  C_9
REMARK    6  A    between atoms: C_11  and  N_23
REMARK    7  A    between atoms: C_15  and  C_17
REMARK    8  A    between atoms: C_17  and  O_18
REMARK    9  A    between atoms: O_18  and  C_19
REMARK   10  A    between atoms: C_19  and  C_20
REMARK   11  A    between atoms: C_24  and  C_26
REMARK                            x       y       z     vdW  Elec       q    Type
REMARK                         _______ _______ _______ _____ _____    ______ ____
ROOT
ATOM      9  C   UNL     1      -2.103   0.504  24.765  0.00  0.00    +0.155 C 
ATOM     10  C   UNL     1      -2.692   1.007  25.049  0.00  0.00    +0.051 C 
ATOM     11  C   UNL     1      -2.611   1.824  24.967  0.00  0.00    +0.100 C 
ATOM     12  C   UNL     1      -1.940   2.137  24.601  0.00  0.00    +0.043 C 
ATOM     13  C   UNL     1      -1.352   1.633  24.318  0.00  0.00    +0.096 C 
ATOM     14  N   UNL     1      -1.434   0.816  24.400  0.00  0.00    -0.271 N 
ATOM     15  C   UNL     1      -0.845   0.313  24.116  0.00  0.00    +0.256 C 
ATOM     16  O   UNL     1      -0.927  -0.505  24.198  0.00  0.00    -0.272 OA
ENDROOT
BRANCH   9   7
ATOM      6  N   UNL     1      -2.936  -0.651  24.887  0.00  0.00    -0.196 NA
ATOM      7  C   UNL     1      -2.185  -0.314  24.847  0.00  0.00    +0.260 C 
ATOM      8  O   UNL     1      -1.514  -0.793  24.888  0.00  0.00    -0.272 OA
BRANCH   6   5
ATOM      5  C   UNL     1      -3.017  -1.468  24.969  0.00  0.00    +0.174 C 
BRANCH   5  32
ATOM     32  C   UNL     1      -3.040  -1.808  25.721  0.00  0.00    +0.281 C 
ATOM     33  N   UNL     1      -2.603  -2.490  25.878  0.00  0.00    -0.086 NA
ATOM     34  O   UNL     1      -3.499  -1.466  26.314  0.00  0.00    -0.270 OA
ENDBRANCH   5  32
BRANCH   5   4
ATOM      4  C   UNL     1      -3.076  -1.947  24.300  0.00  0.00    +0.031 C 
BRANCH   4   2
ATOM      1  C   UNL     1      -4.017  -2.969  23.970  0.00  0.00    +0.000 C 
ATOM      2  C   UNL     1      -3.816  -2.170  24.016  0.00  0.00    +0.002 C 
ATOM      3  C   UNL     1      -4.357  -1.595  23.777  0.00  0.00    +0.000 C 
ENDBRANCH   4   2
ENDBRANCH   5   4
ENDBRANCH   6   5
ENDBRANCH   9   7
BRANCH  11  23
ATOM     23  N   UNL     1      -3.200   2.328  25.251  0.00  0.00    -0.203 NA
ATOM     24  C   UNL     1      -3.827   2.545  24.761  0.00  0.00    +0.273 C 
ATOM     25  O   UNL     1      -3.867   2.258  23.989  0.00  0.00    -0.268 OA
BRANCH  24  26
ATOM     26  C   UNL     1      -4.416   3.049  25.045  0.00  0.00    +0.119 A 
ATOM     27  C   UNL     1      -5.212   2.855  25.146  0.00  0.00    +0.093 A 
ATOM     28  C   UNL     1      -5.559   2.126  24.980  0.00  0.00    +0.055 C 
ATOM     29  N   UNL     1      -5.600   3.521  25.441  0.00  0.00    -0.145 NA
ATOM     30  N   UNL     1      -5.045   4.124  25.523  0.00  0.00    -0.110 NA
ATOM     31  S   UNL     1      -4.313   3.833  25.278  0.00  0.00    +0.042 S 
ENDBRANCH  24  26
ENDBRANCH  11  23
BRANCH  15  17
ATOM     17  C   UNL     1      -0.175   0.626  23.750  0.00  0.00    +0.228 C 
BRANCH  17  18
ATOM     18  O   UNL     1       0.341   0.130  23.342  0.00  0.00    -0.333 OA
BRANCH  18  19
ATOM     19  C   UNL     1       1.040   0.433  23.024  0.00  0.00    +0.257 C 
BRANCH  19  20
ATOM     20  C   UNL     1       1.533  -0.051  22.574  0.00  0.00    +0.394 C 
ATOM     21  O   UNL     1       1.268  -0.358  21.855  0.00  0.00    -0.243 OA
ATOM     22  O   UNL     1       2.293  -0.230  22.844  0.00  0.00    -0.243 OA
ENDBRANCH  19  20
ENDBRANCH  18  19
ENDBRANCH  17  18
ENDBRANCH  15  17
TORSDOF 11
ENDMDL
MODEL 2
REMARK VINA RESULT:      -8.7      0.917      1.157
REMARK  Name = 
REMARK  11 active torsions:
REMARK  status: ('A' for Active; 'I' for Inactive)
REMARK    1  A    between atoms: C_2  and  C_4
REMARK    2  A    between atoms: C_4  and  C_5
REMARK    3  A    between atoms: C_5  and  N_6
REMARK    4  A    between atoms: C_5  and  C_32
REMARK    5  A    between atoms: C_7  and  C_9
REMARK    6  A    between atoms: C_11  and  N_23
REMARK    7  A    between atoms: C_15  and  C_17
REMARK    8  A    between atoms: C_17  and  O_18
REMARK    9  A    between atoms: O_18  and  C_19
REMARK   10  A    between atoms: C_19  and  C_20
REMARK   11  A    between atoms: C_24  and  C_26
REMARK                            x       y       z     vdW  Elec       q    Type
REMARK                         _______ _______ _______ _____ _____    ______ ____
ROOT
ATOM      9  C   UNL     1      -1.452   0.422  24.699  0.00  0.00    +0.155 C 
ATOM     10  C   UNL     1      -1.903   1.006  25.069  0.00  0.00    +0.051 C 
ATOM     11  C   UNL     1      -1.617   1.778  25.118  0.00  0.00    +0.100 C 
ATOM     12  C   UNL     1      -0.881   1.967  24.796  0.00  0.00    +0.043 C 
ATOM     13  C   UNL     1      -0.431   1.383  24.426  0.00  0.00    +0.096 C 
ATOM     14  N   UNL     1      -0.717   0.610  24.378  0.00  0.00    -0.271 N 
ATOM     15  C   UNL     1      -0.267   0.027  24.008  0.00  0.00    +0.256 C 
ATOM     16  O   UNL     1      -0.553  -0.747  23.960  0.00  0.00    -0.272 OA
ENDROOT
BRANCH   9   7
ATOM      6  N   UNL     1      -2.528  -0.510  24.825  0.00  0.00    -0.196 NA
ATOM      7  C   UNL     1      -1.738  -0.351  24.651  0.00  0.00    +0.260 C 
ATOM      8  O   UNL     1      -1.233  -0.965  24.429  0.00  0.00    -0.272 OA
BRANCH   6   5
ATOM      5  C   UNL     1      -2.814  -1.282  24.776  0.00  0.00    +0.174 C 
BRANCH   5  32
ATOM     32  C   UNL     1      -2.818  -1.764  25.446  0.00  0.00    +0.281 C 
ATOM     33  N   UNL     1      -3.174  -1.498  26.143  0.00  0.00    -0.086 NA
ATOM     34  O   UNL     1      -2.468  -2.509  25.421  0.00  0.00    -0.270 OA
ENDBRANCH   5  32
BRANCH   5   4
ATOM      4  C   UNL     1      -3.096  -1.574  24.058  0.00  0.00    +0.031 C 
BRANCH   4   2
ATOM      1  C   UNL     1      -4.346  -0.902  23.898  0.00  0.00    +0.000 C 
ATOM      2  C   UNL     1      -3.907  -1.601  23.913  0.00  0.00    +0.002 C 
ATOM      3  C   UNL     1      -4.280  -2.324  23.783  0.00  0.00    +0.000 C 
ENDBRANCH   4   2
ENDBRANCH   5   4
ENDBRANCH   6   5
ENDBRANCH   9   7
BRANCH  11  23
ATOM     23  N   UNL     1      -2.068   2.363  25.488  0.00  0.00    -0.203 NA
ATOM     24  C   UNL     1      -2.524   2.880  25.035  0.00  0.00    +0.273 C 
ATOM     25  O   UNL     1      -2.530   2.813  24.213  0.00  0.00    -0.268 OA
BRANCH  24  26
ATOM     26  C   UNL     1      -2.974   3.464  25.405  0.00  0.00    +0.119 A 
ATOM     27  C   UNL     1      -3.791   3.559  25.341  0.00  0.00    +0.093 A 
ATOM     28  C   UNL     1      -4.301   3.087  24.896  0.00  0.00    +0.055 C 
ATOM     29  N   UNL     1      -4.009   4.209  25.800  0.00  0.00    -0.145 NA
ATOM     30  N   UNL     1      -3.327   4.515  26.148  0.00  0.00    -0.110 NA
ATOM     31  S   UNL     1      -2.687   4.055  25.904  0.00  0.00    +0.042 S 
ENDBRANCH  24  26
ENDBRANCH  11  23
BRANCH  15  17
ATOM     17  C   UNL     1       0.469   0.215  23.686  0.00  0.00    +0.228 C 
BRANCH  17  18
ATOM     18  O   UNL     1       0.745  -0.189  23.023  0.00  0.00    -0.333 OA
BRANCH  18  19
ATOM     19  C   UNL     1       1.556  -0.251  22.884  0.00  0.00    +0.257 C 
BRANCH  19  20
ATOM     20  C   UNL     1       1.850  -0.189  22.116  0.00  0.00    +0.394 C 
ATOM     21  O   UNL     1       2.597   0.135  21.984  0.00  0.00    -0.243 OA
ATOM     22  O   UNL     1       1.395  -0.452  21.478  0.00  0.00    -0.243 OA
ENDBRANCH  19  20
ENDBRANCH  18  19
ENDBRANCH  17  18
ENDBRANCH  15  17
TORSDOF 11
ENDMDL
MODEL 3
REMARK VINA RESULT:      -8.0      2.457      4.394
REMARK  Name = 
REMARK  11 active torsions:
REMARK  status: ('A' for Active; 'I' for Inactive)
REMARK    1  A    between atoms: C_2  and  C_4
REMARK    2  A    between atoms: C_4  and  C_5
REMARK    3  A    between atoms: C_5  and  N_6
REMARK    4  A    between atoms: C_5  and  C_32
REMARK    5  A    between atoms: C_7  and  C_9
REMARK    6  A    between atoms: C_11  and  N_23
REMARK    7  A    between atoms: C_15  and  C_17
REMARK    8  A    between atoms: C_17  and  O_18
REMARK    9  A    between atoms: O_18  and  C_19
REMARK   10  A    between atoms: C_19  and  C_20
REMARK   11  A    between atoms: C_24  and  C_26
REMARK                            x       y       z     vdW  Elec       q    Type
REMARK                         _______ _______ _______ _____ _____    ______ ____
ROOT
ATOM      9  C   UNL     1      -0.193   0.774  24.175  0.00  0.00    +0.155 C 
ATOM     10  C   UNL     1      -0.906   0.383  24.316  0.00  0.00    +0.051 C 
ATOM     11  C   UNL     1      -1.026  -0.376  24.017  0.00  0.00    +0.100 C 
ATOM     12  C   UNL     1      -0.434  -0.745  23.577  0.00  0.00    +0.043 C 
ATOM     13  C   UNL     1       0.279  -0.354  23.436  0.00  0.00    +0.096 C 
ATOM     14  N   UNL     1       0.399   0.406  23.735  0.00  0.00    -0.271 N 
ATOM     15  C   UNL     1       1.111   0.796  23.593  0.00  0.00    +0.256 C 
ATOM     16  O   UNL     1       1.231   1.557  23.893  0.00  0.00    -0.272 OA
ENDROOT
BRANCH   9   7
ATOM      6  N   UNL     1      -0.579   1.835  25.051  0.00  0.00    -0.196 NA
ATOM      7  C   UNL     1      -0.073   1.534  24.474  0.00  0.00    +0.260 C 
ATOM      8  O   UNL     1       0.555   1.992  24.195  0.00  0.00    -0.272 OA
BRANCH   6   5
ATOM      5  C   UNL     1      -0.459   2.594  25.350  0.00  0.00    +0.174 C 
BRANCH   5  32
ATOM     32  C   UNL     1      -0.094   2.697  26.082  0.00  0.00    +0.281 C 
ATOM     33  N   UNL     1      -0.409   2.334  26.754  0.00  0.00    -0.086 NA
ATOM     34  O   UNL     1       0.584   3.161  26.144  0.00  0.00    -0.270 OA
ENDBRANCH   5  32
BRANCH   5   4
ATOM      4  C   UNL     1      -0.704   3.252  24.916  0.00  0.00    +0.031 C 
BRANCH   4   2
ATOM      1  C   UNL     1      -1.369   4.475  25.237  0.00  0.00    +0.000 C 
ATOM      2  C   UNL     1      -1.388   3.657  25.131  0.00  0.00    +0.002 C 
ATOM      3  C   UNL     1      -2.094   3.244  25.242  0.00  0.00    +0.000 C 
ENDBRANCH   4   2
ENDBRANCH   5   4
ENDBRANCH   6   5
ENDBRANCH   9   7
BRANCH  11  23
ATOM     23  N   UNL     1      -1.740  -0.768  24.159  0.00  0.00    -0.203 NA
ATOM     24  C   UNL     1      -1.789  -1.329  24.761  0.00  0.00    +0.273 C 
ATOM     25  O   UNL     1      -1.126  -1.500  25.221  0.00  0.00    -0.268 OA
BRANCH  24  26
ATOM     26  C   UNL     1      -2.501  -1.720  24.902  0.00  0.00    +0.119 A 
ATOM     27  C   UNL     1      -3.057  -1.521  25.478  0.00  0.00    +0.093 A 
ATOM     28  C   UNL     1      -2.998  -0.897  26.015  0.00  0.00    +0.055 C 
ATOM     29  N   UNL     1      -3.683  -2.055  25.424  0.00  0.00    -0.145 NA
ATOM     30  N   UNL     1      -3.514  -2.585  24.815  0.00  0.00    -0.110 NA
ATOM     31  S   UNL     1      -2.784  -2.377  24.492  0.00  0.00    +0.042 S 
ENDBRANCH  24  26
ENDBRANCH  11  23
BRANCH  15  17
ATOM     17  C   UNL     1       1.704   0.428  23.153  0.00  0.00    +0.228 C 
BRANCH  17  18
ATOM     18  O   UNL     1       2.458   0.759  23.118  0.00  0.00    -0.333 OA
BRANCH  18  19
ATOM     19  C   UNL     1       3.069   0.357  22.736  0.00  0.00    +0.257 C 
BRANCH  19  20
ATOM     20  C   UNL     1       3.810   0.709  22.658  0.00  0.00    +0.394 C 
ATOM     21  O   UNL     1       4.263   0.871  23.328  0.00  0.00    -0.243 OA
ATOM     22  O   UNL     1       4.099   0.900  21.908  0.00  0.00    -0.243 OA
ENDBRANCH  19  20
ENDBRANCH  18  19
ENDBRANCH  17  18
ENDBRANCH  15  17
TORSDOF 11
ENDMDL
MODEL 4
REMARK VINA RESULT:      -7.6      2.095      5.379
REMARK  Name = 
REMARK  11 active torsions:
REMARK  status: ('A' for Active; 'I' for Inactive)
REMARK    1  A    between atoms: C_2  and  C_4
REMARK    2  A    between atoms: C_4  and  C_5
REMARK    3  A    between atoms: C_5  and  N_6
REMARK    4  A    between atoms: C_5  and  C_32
REMARK    5  A    between atoms: C_7  and  C_9
REMARK    6  A    between atoms: C_11  and  N_23
REMARK    7  A    between atoms: C_15  and  C_17
REMARK    8  A    between atoms: C_17  and  O_18
REMARK    9  A    between atoms: O_18  and  C_19
REMARK   10  A    between atoms: C_19  and  C_20
REMARK   11  A    between atoms: C_24  and  C_26
REMARK                            x       y       z     vdW  Elec       q    Type
REMARK                         _______ _______ _______ _____ _____    ______ ____
ROOT
ATOM      9  C   UNL     1      -2.820   1.434  24.232  0.00  0.00    +0.155 C 
ATOM     10  C   UNL     1      -2.801   0.615  24.132  0.00  0.00    +0.051 C 
ATOM     11  C   UNL     1      -3.507   0.190  24.083  0.00  0.00    +0.100 C 
ATOM     12  C   UNL     1      -4.231   0.584  24.134  0.00  0.00    +0.043 C 
ATOM     13  C   UNL     1      -4.248   1.402  24.235  0.00  0.00    +0.096 C 
ATOM     14  N   UNL     1      -3.542   1.827  24.284  0.00  0.00    -0.271 N 
ATOM     15  C   UNL     1      -3.560   2.645  24.384  0.00  0.00    +0.256 C 
ATOM     16  O   UNL     1      -2.854   3.071  24.433  0.00  0.00    -0.272 OA
ENDROOT
BRANCH   9   7
ATOM      6  N   UNL     1      -1.484   1.563  24.723  0.00  0.00    -0.196 NA
ATOM      7  C   UNL     1      -2.113   1.859  24.281  0.00  0.00    +0.260 C 
ATOM      8  O   UNL     1      -2.039   2.581  23.888  0.00  0.00    -0.272 OA
BRANCH   6   5
ATOM      5  C   UNL     1      -0.778   1.988  24.772  0.00  0.00    +0.174 C 
BRANCH   5  32
ATOM     32  C   UNL     1      -0.181   1.862  24.217  0.00  0.00    +0.281 C 
ATOM     33  N   UNL     1       0.079   1.094  24.058  0.00  0.00    -0.086 NA
ATOM     34  O   UNL     1       0.156   2.501  23.821  0.00  0.00    -0.270 OA
ENDBRANCH   5  32
BRANCH   5   4
ATOM      4  C   UNL     1      -0.669   2.539  25.375  0.00  0.00    +0.031 C 
BRANCH   4   2
ATOM      1  C   UNL     1       0.319   2.806  26.372  0.00  0.00    +0.000 C 
ATOM      2  C   UNL     1      -0.276   2.322  26.066  0.00  0.00    +0.002 C 
ATOM      3  C   UNL     1      -0.476   1.621  26.453  0.00  0.00    +0.000 C 
ENDBRANCH   4   2
ENDBRANCH   5   4
ENDBRANCH   6   5
ENDBRANCH   9   7
BRANCH  11  23
ATOM     23  N   UNL     1      -3.489  -0.630  23.982  0.00  0.00    -0.203 NA
ATOM     24  C   UNL     1      -3.742  -1.125  24.592  0.00  0.00    +0.273 C 
ATOM     25  O   UNL     1      -4.012  -0.802  25.301  0.00  0.00    -0.268 OA
BRANCH  24  26
ATOM     26  C   UNL     1      -3.724  -1.943  24.491  0.00  0.00    +0.119 A 
ATOM     27  C   UNL     1      -3.379  -2.487  25.006  0.00  0.00    +0.093 A 
ATOM     28  C   UNL     1      -2.990  -2.309  25.712  0.00  0.00    +0.055 C 
ATOM     29  N   UNL     1      -3.489  -3.242  24.692  0.00  0.00    -0.145 NA
ATOM     30  N   UNL     1      -3.903  -3.164  23.983  0.00  0.00    -0.110 NA
ATOM     31  S   UNL     1      -4.048  -2.362  23.859  0.00  0.00    +0.042 S 
ENDBRANCH  24  26
ENDBRANCH  11  23
BRANCH  15  17
ATOM     17  C   UNL     1      -4.283   3.040  24.436  0.00  0.00    +0.228 C 
BRANCH  17  18
ATOM     18  O   UNL     1      -4.462   3.489  25.103  0.00  0.00    -0.333 OA
BRANCH  18  19
ATOM     19  C   UNL     1      -5.090   4.023  25.086  0.00  0.00    +0.257 C 
BRANCH  19  20
ATOM     20  C   UNL     1      -5.603   4.079  25.729  0.00  0.00    +0.394 C 
ATOM     21  O   UNL     1      -5.527   3.558  26.365  0.00  0.00    -0.243 OA
ATOM     22  O   UNL     1      -6.193   4.657  25.738  0.00  0.00    -0.243 OA
ENDBRANCH  19  20
ENDBRANCH  18  19
ENDBRANCH  17  18
ENDBRANCH  15  17
TORSDOF 11
ENDMDL
