MODEL 1
REMARK VINA RESULT:      -6.9      0.000      0.000
REMARK  Name = 
REMARK  7 active torsions:
REMARK  status: ('A' for Active; 'I' for Inactive)
REMARK    1  A    between atoms: O_2  and  C_3
REMARK    2  A    between atoms: C_5  and  O_6
REMARK    3  A    between atoms: C_9  and  N_10
REMARK    4  A    between atoms: N_13  and  C_14
REMARK    5  A    between atoms: C_14  and  C_15
REMARK    6  A    between atoms: C_22  and  C_23
REMARK    7  A    between atoms: C_25  and  C_30
REMARK                            x       y       z     vdW  Elec       q    Type
REMARK                         _______ _______ _______ _____ _____    ______ ____
ROOT
ATOM     15  C   UNL     1      -0.953   1.143  23.803  0.00  0.00    +0.079 C 
ATOM     16  C   UNL     1      -1.532   1.367  23.334  0.00  0.00    +0.018 C 
ATOM     17  C   UNL     1      -2.171   1.813  23.554  0.00  0.00    +0.010 C 
ATOM     18  C   UNL     1      -2.725   1.964  22.866  0.00  0.00    +0.018 C 
ATOM     19  C   UNL     1      -2.195   1.722  23.161  0.00  0.00    +0.072 C 
ATOM     20  N   UNL     1      -1.608   1.596  24.020  0.00  0.00    -0.272 NA
ATOM     21  C   UNL     1      -1.860   1.962  24.817  0.00  0.00    +0.078 C 
ATOM     22  C   UNL     1      -2.408   2.161  24.324  0.00  0.00    +0.056 C 
ENDROOT
BRANCH  22  23
ATOM     23  C   UNL     1      -3.082   2.611  24.482  0.00  0.00    +0.063 A 
ATOM     24  C   UNL     1      -3.784   2.237  24.702  0.00  0.00    +0.037 A 
ATOM     25  C   UNL     1      -4.457   2.687  24.860  0.00  0.00    +0.118 A 
ATOM     26  N   UNL     1      -4.429   3.509  24.798  0.00  0.00    -0.228 NA
ATOM     27  C   UNL     1      -3.727   3.882  24.578  0.00  0.00    +0.139 A 
ATOM     28  C   UNL     1      -3.698   4.704  24.515  0.00  0.00    +0.074 C 
ATOM     29  N   UNL     1      -3.053   3.432  24.420  0.00  0.00    -0.235 NA
BRANCH  25  30
ATOM     30  C   UNL     1      -5.160   2.314  25.080  0.00  0.00    +0.163 A 
ATOM     31  C   UNL     1      -5.459   2.259  25.848  0.00  0.00    +0.042 A 
ATOM     32  C   UNL     1      -6.171   1.843  25.813  0.00  0.00    +0.044 A 
ATOM     33  C   UNL     1      -6.311   1.641  25.026  0.00  0.00    +0.180 A 
ATOM     34  O   UNL     1      -5.687   1.933  24.573  0.00  0.00    -0.449 OA
ENDBRANCH  25  30
ENDBRANCH  22  23
BRANCH  15  14
ATOM     14  C   UNL     1      -0.242   0.755  23.961  0.00  0.00    +0.133 C 
BRANCH  14  13
ATOM     10  N   UNL     1       1.402  -0.046  22.771  0.00  0.00    -0.161 NA
ATOM     11  C   UNL     1       0.991   0.328  23.381  0.00  0.00    +0.344 C 
ATOM     12  O   UNL     1       1.403   0.648  24.019  0.00  0.00    -0.249 OA
ATOM     13  N   UNL     1       0.168   0.381  23.351  0.00  0.00    -0.185 NA
BRANCH  10   9
ATOM      3  C   UNL     1       3.511   0.436  22.484  0.00  0.00    +0.143 A 
ATOM      4  C   UNL     1       3.870  -0.206  22.856  0.00  0.00    +0.074 A 
ATOM      5  C   UNL     1       3.406  -0.795  23.200  0.00  0.00    +0.143 A 
ATOM      8  C   UNL     1       2.583  -0.742  23.172  0.00  0.00    +0.054 A 
ATOM      9  C   UNL     1       2.224  -0.099  22.800  0.00  0.00    +0.081 A 
ATOM     35  C   UNL     1       2.689   0.490  22.455  0.00  0.00    +0.054 A 
BRANCH   3   2
ATOM      1  C   UNL     1       4.326   1.603  22.613  0.00  0.00    +0.252 C 
ATOM      2  O   UNL     1       3.975   1.026  22.140  0.00  0.00    -0.471 OA
ENDBRANCH   3   2
BRANCH   5   6
ATOM      6  O   UNL     1       3.765  -1.439  23.573  0.00  0.00    -0.471 OA
ATOM      7  C   UNL     1       4.502  -1.348  23.933  0.00  0.00    +0.252 C 
ENDBRANCH   5   6
ENDBRANCH  10   9
ENDBRANCH  14  13
ENDBRANCH  15  14
TORSDOF 7
ENDMDL
MODEL 2
REMARK VINA RESULT:      -6.5      1.152      1.603
REMARK  Name = 
REMARK  7 active torsions:
REMARK  status: ('A' for Active; 'I' for Inactive)
REMARK    1  A    between atoms: O_2  and  C_3
REMARK    2  A    between atoms: C_5  and  O_6
REMARK    3  A    between atoms: C_9  and  N_10
REMARK    4  A    between atoms: N_13  and  C_14
REMARK    5  A    between atoms: C_14  and  C_15
REMARK    6  A    between atoms: C_22  and  C_23
REMARK    7  A    between atoms: C_25  and  C_30
REMARK                            x       y       z     vdW  Elec       q    Type
REMARK                         _______ _______ _______ _____ _____    ______ ____
ROOT
ATOM     15  C   UNL     1      -0.616   1.281  23.639  0.00  0.00    +0.079 C 
ATOM     16  C   UNL     1      -1.259   1.497  23.259  0.00  0.00    +0.018 C 
ATOM     17  C   UNL     1      -2.019   1.362  23.503  0.00  0.00    +0.010 C 
ATOM     18  C   UNL     1      -2.620   1.691  22.924  0.00  0.00    +0.018 C 
ATOM     19  C   UNL     1      -2.021   1.561  23.151  0.00  0.00    +0.072 C 
ATOM     20  N   UNL     1      -1.393   1.147  23.881  0.00  0.00    -0.272 NA
ATOM     21  C   UNL     1      -1.741   0.733  24.617  0.00  0.00    +0.078 C 
ATOM     22  C   UNL     1      -2.347   0.963  24.213  0.00  0.00    +0.056 C 
ENDROOT
BRANCH  22  23
ATOM     23  C   UNL     1      -3.143   0.858  24.404  0.00  0.00    +0.063 A 
ATOM     24  C   UNL     1      -3.581   1.489  24.705  0.00  0.00    +0.037 A 
ATOM     25  C   UNL     1      -4.376   1.384  24.896  0.00  0.00    +0.118 A 
ATOM     26  N   UNL     1      -4.734   0.648  24.786  0.00  0.00    -0.228 NA
ATOM     27  C   UNL     1      -4.295   0.018  24.486  0.00  0.00    +0.139 A 
ATOM     28  C   UNL     1      -4.652  -0.718  24.376  0.00  0.00    +0.074 C 
ATOM     29  N   UNL     1      -3.499   0.123  24.294  0.00  0.00    -0.235 NA
BRANCH  25  30
ATOM     30  C   UNL     1      -4.815   2.015  25.197  0.00  0.00    +0.163 A 
ATOM     31  C   UNL     1      -5.615   2.161  25.052  0.00  0.00    +0.042 A 
ATOM     32  C   UNL     1      -5.826   2.846  25.461  0.00  0.00    +0.044 A 
ATOM     33  C   UNL     1      -5.158   3.122  25.858  0.00  0.00    +0.180 A 
ATOM     34  O   UNL     1      -4.534   2.608  25.695  0.00  0.00    -0.449 OA
ENDBRANCH  25  30
ENDBRANCH  22  23
BRANCH  15  14
ATOM     14  C   UNL     1       0.202   1.227  23.729  0.00  0.00    +0.133 C 
BRANCH  14  13
ATOM     10  N   UNL     1       1.902   0.269  22.752  0.00  0.00    -0.161 NA
ATOM     11  C   UNL     1       1.450   0.668  23.315  0.00  0.00    +0.344 C 
ATOM     12  O   UNL     1       1.794   0.909  24.024  0.00  0.00    -0.249 OA
ATOM     13  N   UNL     1       0.654   0.827  23.167  0.00  0.00    -0.185 NA
BRANCH  10   9
ATOM      3  C   UNL     1       4.062   0.536  22.919  0.00  0.00    +0.143 A 
ATOM      4  C   UNL     1       4.290  -0.208  23.194  0.00  0.00    +0.074 A 
ATOM      5  C   UNL     1       3.723  -0.792  23.321  0.00  0.00    +0.143 A 
ATOM      8  C   UNL     1       2.926  -0.634  23.174  0.00  0.00    +0.054 A 
ATOM      9  C   UNL     1       2.698   0.110  22.899  0.00  0.00    +0.081 A 
ATOM     35  C   UNL     1       3.266   0.695  22.772  0.00  0.00    +0.054 A 
BRANCH   3   2
ATOM      1  C   UNL     1       5.264   1.200  23.312  0.00  0.00    +0.252 C 
ATOM      2  O   UNL     1       4.630   1.121  22.791  0.00  0.00    -0.471 OA
ENDBRANCH   3   2
BRANCH   5   6
ATOM      6  O   UNL     1       3.951  -1.537  23.596  0.00  0.00    -0.471 OA
ATOM      7  C   UNL     1       4.673  -1.630  23.982  0.00  0.00    +0.252 C 
ENDBRANCH   5   6
ENDBRANCH  10   9
ENDBRANCH  14  13
ENDBRANCH  15  14
TORSDOF 7
ENDMDL
MODEL 3
REMARK VINA RESULT:      -6.5      1.235      7.410
REMARK  Name = 
REMARK  7 active torsions:
REMARK  status: ('A' for Active; 'I' for Inactive)
REMARK    1  A    between atoms: O_2  and  C_3
REMARK    2  A    between atoms: C_5  and  O_6
REMARK    3  A    between atoms: C_9  and  N_10
REMARK    4  A    between atoms: N_13  and  C_14
REMARK    5  A    between atoms: C_14  and  C_15
REMARK    6  A    between atoms: C_22  and  C_23
REMARK    7  A    between atoms: C_25  and  C_30
REMARK                            x       y       z     vdW  Elec       q    Type
REMARK                         _______ _______ _______ _____ _____    ______ ____
ROOT
ATOM     15  C   UNL     1      -1.082   0.673  24.599  0.00  0.00    +0.079 C 
ATOM     16  C   UNL     1      -0.693   0.003  24.533  0.00  0.00    +0.018 C 
ATOM     17  C   UNL     1      -0.085  -0.140  24.017  0.00  0.00    +0.010 C 
ATOM     18  C   UNL     1       0.231  -0.976  24.098  0.00  0.00    +0.018 C 
ATOM     19  C   UNL     1      -0.158  -0.471  24.239  0.00  0.00    +0.072 C 
ATOM     20  N   UNL     1      -0.462   0.520  24.076  0.00  0.00    -0.272 NA
ATOM     21  C   UNL     1      -0.052   1.037  23.447  0.00  0.00    +0.078 C 
ATOM     22  C   UNL     1       0.305   0.363  23.414  0.00  0.00    +0.056 C 
ENDROOT
BRANCH  22  23
ATOM     23  C   UNL     1       0.928   0.153  22.915  0.00  0.00    +0.063 A 
ATOM     24  C   UNL     1       1.706   0.329  23.129  0.00  0.00    +0.037 A 
ATOM     25  C   UNL     1       2.328   0.118  22.630  0.00  0.00    +0.118 A 
ATOM     26  N   UNL     1       2.173  -0.268  21.918  0.00  0.00    -0.228 NA
ATOM     27  C   UNL     1       1.396  -0.443  21.704  0.00  0.00    +0.139 A 
ATOM     28  C   UNL     1       1.241  -0.829  20.991  0.00  0.00    +0.074 C 
ATOM     29  N   UNL     1       0.774  -0.233  22.203  0.00  0.00    -0.235 NA
BRANCH  25  30
ATOM     30  C   UNL     1       3.106   0.293  22.844  0.00  0.00    +0.163 A 
ATOM     31  C   UNL     1       3.496   1.007  22.707  0.00  0.00    +0.042 A 
ATOM     32  C   UNL     1       4.261   0.940  23.010  0.00  0.00    +0.044 A 
ATOM     33  C   UNL     1       4.342   0.186  23.334  0.00  0.00    +0.180 A 
ATOM     34  O   UNL     1       3.628  -0.213  23.231  0.00  0.00    -0.449 OA
ENDBRANCH  25  30
ENDBRANCH  22  23
BRANCH  15  14
ATOM     14  C   UNL     1      -1.661   1.158  24.930  0.00  0.00    +0.133 C 
BRANCH  14  13
ATOM     10  N   UNL     1      -3.702   1.804  24.504  0.00  0.00    -0.161 NA
ATOM     11  C   UNL     1      -2.995   1.670  24.908  0.00  0.00    +0.344 C 
ATOM     12  O   UNL     1      -2.915   1.913  25.691  0.00  0.00    -0.249 OA
ATOM     13  N   UNL     1      -2.368   1.292  24.527  0.00  0.00    -0.185 NA
BRANCH  10   9
ATOM      3  C   UNL     1      -4.939   3.377  25.374  0.00  0.00    +0.143 A 
ATOM      4  C   UNL     1      -5.583   2.937  25.644  0.00  0.00    +0.074 A 
ATOM      5  C   UNL     1      -5.599   2.120  25.534  0.00  0.00    +0.143 A 
ATOM      8  C   UNL     1      -4.972   1.742  25.154  0.00  0.00    +0.054 A 
ATOM      9  C   UNL     1      -4.329   2.182  24.884  0.00  0.00    +0.081 A 
ATOM     35  C   UNL     1      -4.312   3.000  24.994  0.00  0.00    +0.054 A 
BRANCH   3   2
ATOM      1  C   UNL     1      -5.605   4.641  25.362  0.00  0.00    +0.252 C 
ATOM      2  O   UNL     1      -4.923   4.195  25.484  0.00  0.00    -0.471 OA
ENDBRANCH   3   2
BRANCH   5   6
ATOM      6  O   UNL     1      -6.244   1.680  25.805  0.00  0.00    -0.471 OA
ATOM      7  C   UNL     1      -6.346   1.553  26.613  0.00  0.00    +0.252 C 
ENDBRANCH   5   6
ENDBRANCH  10   9
ENDBRANCH  14  13
ENDBRANCH  15  14
TORSDOF 7
ENDMDL
MODEL 4
REMARK VINA RESULT:      -6.3      1.552      2.752
REMARK  Name = 
REMARK  7 active torsions:
REMARK  status: ('A' for Active; 'I' for Inactive)
REMARK    1  A    between atoms: O_2  and  C_3
REMARK    2  A    between atoms: C_5  and  O_6
REMARK    3  A    between atoms: C_9  and  N_10
REMARK    4  A    between atoms: N_13  and  C_14
REMARK    5  A    between atoms: C_14  and  C_15
REMARK    6  A    between atoms: C_22  and  C_23
REMARK    7  A    between atoms: C_25  and  C_30
REMARK                            x       y       z     vdW  Elec       q    Type
REMARK                         _______ _______ _______ _____ _____    ______ ____
ROOT
ATOM     15  C   UNL     1      -1.601   3.555  24.776  0.00  0.00    +0.079 C 
ATOM     16  C   UNL     1      -1.941   3.825  25.422  0.00  0.00    +0.018 C 
ATOM     17  C   UNL     1      -2.739   3.853  25.558  0.00  0.00    +0.010 C 
ATOM     18  C   UNL     1      -2.928   4.200  26.364  0.00  0.00    +0.018 C 
ATOM     19  C   UNL     1      -2.539   4.002  25.877  0.00  0.00    +0.072 C 
ATOM     20  N   UNL     1      -2.413   3.587  24.923  0.00  0.00    -0.272 NA
ATOM     21  C   UNL     1      -3.134   3.338  24.422  0.00  0.00    +0.078 C 
ATOM     22  C   UNL     1      -3.428   3.611  25.071  0.00  0.00    +0.056 C 
ENDROOT
BRANCH  22  23
ATOM     23  C   UNL     1      -4.226   3.668  25.273  0.00  0.00    +0.063 A 
ATOM     24  C   UNL     1      -4.633   3.000  25.536  0.00  0.00    +0.037 A 
ATOM     25  C   UNL     1      -5.431   3.057  25.737  0.00  0.00    +0.118 A 
ATOM     26  N   UNL     1      -5.822   3.780  25.676  0.00  0.00    -0.228 NA
ATOM     27  C   UNL     1      -5.415   4.448  25.413  0.00  0.00    +0.139 A 
ATOM     28  C   UNL     1      -5.805   5.172  25.352  0.00  0.00    +0.074 C 
ATOM     29  N   UNL     1      -4.616   4.391  25.212  0.00  0.00    -0.235 NA
BRANCH  25  30
ATOM     30  C   UNL     1      -5.839   2.389  26.000  0.00  0.00    +0.163 A 
ATOM     31  C   UNL     1      -6.005   1.716  25.552  0.00  0.00    +0.042 A 
ATOM     32  C   UNL     1      -6.421   1.188  26.032  0.00  0.00    +0.044 A 
ATOM     33  C   UNL     1      -6.511   1.535  26.774  0.00  0.00    +0.180 A 
ATOM     34  O   UNL     1      -6.152   2.277  26.754  0.00  0.00    -0.449 OA
ENDBRANCH  25  30
ENDBRANCH  22  23
BRANCH  15  14
ATOM     14  C   UNL     1      -0.945   3.377  24.310  0.00  0.00    +0.133 C 
BRANCH  14  13
ATOM     10  N   UNL     1       0.319   1.602  24.439  0.00  0.00    -0.161 NA
ATOM     11  C   UNL     1      -0.246   2.138  24.168  0.00  0.00    +0.344 C 
ATOM     12  O   UNL     1      -0.676   1.973  23.485  0.00  0.00    -0.249 OA
ATOM     13  N   UNL     1      -0.380   2.840  24.581  0.00  0.00    -0.185 NA
BRANCH  10   9
ATOM      3  C   UNL     1       0.132  -0.469  23.778  0.00  0.00    +0.143 A 
ATOM      4  C   UNL     1       0.722  -0.503  23.202  0.00  0.00    +0.074 A 
ATOM      5  C   UNL     1       1.178   0.165  23.039  0.00  0.00    +0.143 A 
ATOM      8  C   UNL     1       1.044   0.867  23.452  0.00  0.00    +0.054 A 
ATOM      9  C   UNL     1       0.454   0.901  24.027  0.00  0.00    +0.081 A 
ATOM     35  C   UNL     1      -0.002   0.232  24.190  0.00  0.00    +0.054 A 
BRANCH   3   2
ATOM      1  C   UNL     1      -0.447  -1.372  24.722  0.00  0.00    +0.252 C 
ATOM      2  O   UNL     1      -0.324  -1.137  23.941  0.00  0.00    -0.471 OA
ENDBRANCH   3   2
BRANCH   5   6
ATOM      6  O   UNL     1       1.769   0.131  22.463  0.00  0.00    -0.471 OA
ATOM      7  C   UNL     1       2.562   0.156  22.685  0.00  0.00    +0.252 C 
ENDBRANCH   5   6
ENDBRANCH  10   9
ENDBRANCH  14  13
ENDBRANCH  15  14
TORSDOF 7
ENDMDL
MODEL 5
REMARK VINA RESULT:      -5.6      2.094      2.410
REMARK  Name = 
REMARK  7 active torsions:
REMARK  status: ('A' for Active; 'I' for Inactive)
REMARK    1  A    between atoms: O_2  and  C_3
REMARK    2  A    between atoms: C_5  and  O_6
REMARK    3  A    between atoms: C_9  and  N_10
REMARK    4  A    between atoms: N_13  and  C_14
REMARK    5  A    between atoms: C_14  and  C_15
REMARK    6  A    between atoms: C_22  and  C_23
REMARK    7  A    between atoms: C_25  and  C_30
REMARK                            x       y       z     vdW  Elec       q    Type
REMARK                         _______ _______ _______ _____ _____    ______ ____
ROOT
ATOM     15  C   UNL     1      -0.363   1.376  23.730  0.00  0.00    +0.079 C 
ATOM     16  C   UNL     1      -1.056   1.533  23.413  0.00  0.00    +0.018 C 
ATOM     17  C   UNL     1      -1.764   1.222  23.651  0.00  0.00    +0.010 C 
ATOM     18  C   UNL     1      -2.447   1.530  23.158  0.00  0.00    +0.018 C 
ATOM     19  C   UNL     1      -1.822   1.474  23.340  0.00  0.00    +0.072 C 
ATOM     20  N   UNL     1      -1.089   1.063  23.966  0.00  0.00    -0.272 NA
ATOM     21  C   UNL     1      -1.314   0.473  24.626  0.00  0.00    +0.078 C 
ATOM     22  C   UNL     1      -1.974   0.655  24.287  0.00  0.00    +0.056 C 
ENDROOT
BRANCH  22  23
ATOM     23  C   UNL     1      -2.726   0.375  24.479  0.00  0.00    +0.063 A 
ATOM     24  C   UNL     1      -2.915  -0.419  24.355  0.00  0.00    +0.037 A 
ATOM     25  C   UNL     1      -3.667  -0.697  24.547  0.00  0.00    +0.118 A 
ATOM     26  N   UNL     1      -4.230  -0.184  24.863  0.00  0.00    -0.228 NA
ATOM     27  C   UNL     1      -4.041   0.610  24.987  0.00  0.00    +0.139 A 
ATOM     28  C   UNL     1      -4.603   1.124  25.303  0.00  0.00    +0.074 C 
ATOM     29  N   UNL     1      -3.288   0.889  24.795  0.00  0.00    -0.235 NA
BRANCH  25  30
ATOM     30  C   UNL     1      -3.857  -1.491  24.424  0.00  0.00    +0.163 A 
ATOM     31  C   UNL     1      -4.304  -1.790  23.798  0.00  0.00    +0.042 A 
ATOM     32  C   UNL     1      -4.357  -2.608  23.892  0.00  0.00    +0.044 A 
ATOM     33  C   UNL     1      -3.943  -2.814  24.574  0.00  0.00    +0.180 A 
ATOM     34  O   UNL     1      -3.634  -2.124  24.903  0.00  0.00    -0.449 OA
ENDBRANCH  25  30
ENDBRANCH  22  23
BRANCH  15  14
ATOM     14  C   UNL     1       0.456   1.457  23.785  0.00  0.00    +0.133 C 
BRANCH  14  13
ATOM     10  N   UNL     1       2.181   0.600  22.760  0.00  0.00    -0.161 NA
ATOM     11  C   UNL     1       1.696   0.888  23.361  0.00  0.00    +0.344 C 
ATOM     12  O   UNL     1       1.965   0.893  24.141  0.00  0.00    -0.249 OA
ATOM     13  N   UNL     1       0.941   1.170  23.183  0.00  0.00    -0.185 NA
BRANCH  10   9
ATOM      3  C   UNL     1       4.339   0.546  23.083  0.00  0.00    +0.143 A 
ATOM      4  C   UNL     1       4.445  -0.245  23.291  0.00  0.00    +0.074 A 
ATOM      5  C   UNL     1       3.797  -0.754  23.323  0.00  0.00    +0.143 A 
ATOM      8  C   UNL     1       3.042  -0.473  23.145  0.00  0.00    +0.054 A 
ATOM      9  C   UNL     1       2.936   0.318  22.937  0.00  0.00    +0.081 A 
ATOM     35  C   UNL     1       3.584   0.828  22.906  0.00  0.00    +0.054 A 
BRANCH   3   2
ATOM      1  C   UNL     1       5.553   1.040  23.652  0.00  0.00    +0.252 C 
ATOM      2  O   UNL     1       4.988   1.055  23.052  0.00  0.00    -0.471 OA
ENDBRANCH   3   2
BRANCH   5   6
ATOM      6  O   UNL     1       3.904  -1.546  23.531  0.00  0.00    -0.471 OA
ATOM      7  C   UNL     1       4.582  -1.778  23.939  0.00  0.00    +0.252 C 
ENDBRANCH   5   6
ENDBRANCH  10   9
ENDBRANCH  14  13
ENDBRANCH  15  14
TORSDOF 7
ENDMDL
MODEL 6
REMARK VINA RESULT:      -5.5      1.986      6.878
REMARK  Name = 
REMARK  7 active torsions:
REMARK  status: ('A' for Active; 'I' for Inactive)
REMARK    1  A    between atoms: O_2  and  C_3
REMARK    2  A    between atoms: C_5  and  O_6
REMARK    3  A    between atoms: C_9  and  N_10
REMARK    4  A    between atoms: N_13  and  C_14
REMARK    5  A    between atoms: C_14  and  C_15
REMARK    6  A    between atoms: C_22  and  C_23
REMARK    7  A    between atoms: C_25  and  C_30
REMARK                            x       y       z     vdW  Elec       q    Type
REMARK                         _______ _______ _______ _____ _____    ______ ____
ROOT
ATOM     15  C   UNL     1      -1.295   3.157  24.677  0.00  0.00    +0.079 C 
ATOM     16  C   UNL     1      -0.597   2.868  24.864  0.00  0.00    +0.018 C 
ATOM     17  C   UNL     1      -0.315   2.140  24.649  0.00  0.00    +0.010 C 
ATOM     18  C   UNL     1       0.512   1.996  24.964  0.00  0.00    +0.018 C 
ATOM     19  C   UNL     1      -0.039   2.335  24.870  0.00  0.00    +0.072 C 
ATOM     20  N   UNL     1      -1.001   2.417  24.462  0.00  0.00    -0.272 NA
ATOM     21  C   UNL     1      -1.360   1.736  23.972  0.00  0.00    +0.078 C 
ATOM     22  C   UNL     1      -0.667   1.490  24.176  0.00  0.00    +0.056 C 
ENDROOT
BRANCH  22  23
ATOM     23  C   UNL     1      -0.321   0.763  23.992  0.00  0.00    +0.063 A 
ATOM     24  C   UNL     1      -0.587   0.075  24.360  0.00  0.00    +0.037 A 
ATOM     25  C   UNL     1      -0.241  -0.651  24.176  0.00  0.00    +0.118 A 
ATOM     26  N   UNL     1       0.371  -0.688  23.623  0.00  0.00    -0.228 NA
ATOM     27  C   UNL     1       0.636   0.000  23.255  0.00  0.00    +0.139 A 
ATOM     28  C   UNL     1       1.248  -0.036  22.702  0.00  0.00    +0.074 C 
ATOM     29  N   UNL     1       0.290   0.727  23.440  0.00  0.00    -0.235 NA
BRANCH  25  30
ATOM     30  C   UNL     1      -0.506  -1.340  24.544  0.00  0.00    +0.163 A 
ATOM     31  C   UNL     1      -1.137  -1.810  24.294  0.00  0.00    +0.042 A 
ATOM     32  C   UNL     1      -1.208  -2.441  24.822  0.00  0.00    +0.044 A 
ATOM     33  C   UNL     1      -0.621  -2.361  25.396  0.00  0.00    +0.180 A 
ATOM     34  O   UNL     1      -0.188  -1.680  25.224  0.00  0.00    -0.449 OA
ENDBRANCH  25  30
ENDBRANCH  22  23
BRANCH  15  14
ATOM     14  C   UNL     1      -1.875   3.743  24.687  0.00  0.00    +0.133 C 
BRANCH  14  13
ATOM     10  N   UNL     1      -3.690   3.738  25.899  0.00  0.00    -0.161 NA
ATOM     11  C   UNL     1      -3.187   3.666  25.249  0.00  0.00    +0.344 C 
ATOM     12  O   UNL     1      -3.489   3.447  24.515  0.00  0.00    -0.249 OA
ATOM     13  N   UNL     1      -2.379   3.815  25.336  0.00  0.00    -0.185 NA
BRANCH  10   9
ATOM      3  C   UNL     1      -5.837   4.071  25.691  0.00  0.00    +0.143 A 
ATOM      4  C   UNL     1      -6.111   3.295  25.642  0.00  0.00    +0.074 A 
ATOM      5  C   UNL     1      -5.579   2.666  25.678  0.00  0.00    +0.143 A 
ATOM      8  C   UNL     1      -4.771   2.814  25.764  0.00  0.00    +0.054 A 
ATOM      9  C   UNL     1      -4.497   3.590  25.813  0.00  0.00    +0.081 A 
ATOM     35  C   UNL     1      -5.030   4.219  25.777  0.00  0.00    +0.054 A 
BRANCH   3   2
ATOM      1  C   UNL     1      -6.166   5.391  25.253  0.00  0.00    +0.252 C 
ATOM      2  O   UNL     1      -6.370   4.700  25.655  0.00  0.00    -0.471 OA
ENDBRANCH   3   2
BRANCH   5   6
ATOM      6  O   UNL     1      -5.853   1.889  25.629  0.00  0.00    -0.471 OA
ATOM      7  C   UNL     1      -6.181   1.611  24.925  0.00  0.00    +0.252 C 
ENDBRANCH   5   6
ENDBRANCH  10   9
ENDBRANCH  14  13
ENDBRANCH  15  14
TORSDOF 7
ENDMDL
MODEL 7
REMARK VINA RESULT:      -5.1     16.695     18.171
REMARK  Name = 
REMARK  7 active torsions:
REMARK  status: ('A' for Active; 'I' for Inactive)
REMARK    1  A    between atoms: O_2  and  C_3
REMARK    2  A    between atoms: C_5  and  O_6
REMARK    3  A    between atoms: C_9  and  N_10
REMARK    4  A    between atoms: N_13  and  C_14
REMARK    5  A    between atoms: C_14  and  C_15
REMARK    6  A    between atoms: C_22  and  C_23
REMARK    7  A    between atoms: C_25  and  C_30
REMARK                            x       y       z     vdW  Elec       q    Type
REMARK                         _______ _______ _______ _____ _____    ______ ____
ROOT
ATOM     15  C   UNL     1      13.333  -5.549  31.494  0.00  0.00    +0.079 C 
ATOM     16  C   UNL     1      12.948  -5.964  30.961  0.00  0.00    +0.018 C 
ATOM     17  C   UNL     1      12.510  -6.629  31.106  0.00  0.00    +0.010 C 
ATOM     18  C   UNL     1      12.145  -6.960  30.357  0.00  0.00    +0.018 C 
ATOM     19  C   UNL     1      12.500  -6.542  30.712  0.00  0.00    +0.072 C 
ATOM     20  N   UNL     1      12.884  -6.227  31.635  0.00  0.00    -0.272 NA
ATOM     21  C   UNL     1      12.699  -6.689  32.400  0.00  0.00    +0.078 C 
ATOM     22  C   UNL     1      12.335  -7.068  31.846  0.00  0.00    +0.056 C 
ENDROOT
BRANCH  22  23
ATOM     23  C   UNL     1      11.875  -7.748  31.926  0.00  0.00    +0.063 A 
ATOM     24  C   UNL     1      11.077  -7.684  32.127  0.00  0.00    +0.037 A 
ATOM     25  C   UNL     1      10.617  -8.364  32.207  0.00  0.00    +0.118 A 
ATOM     26  N   UNL     1      10.954  -9.107  32.087  0.00  0.00    -0.228 NA
ATOM     27  C   UNL     1      11.751  -9.171  31.886  0.00  0.00    +0.139 A 
ATOM     28  C   UNL     1      12.089  -9.914  31.765  0.00  0.00    +0.074 C 
ATOM     29  N   UNL     1      12.212  -8.490  31.806  0.00  0.00    -0.235 NA
BRANCH  25  30
ATOM     30  C   UNL     1       9.819  -8.301  32.408  0.00  0.00    +0.163 A 
ATOM     31  C   UNL     1       9.239  -8.873  32.273  0.00  0.00    +0.042 A 
ATOM     32  C   UNL     1       8.523  -8.581  32.560  0.00  0.00    +0.044 A 
ATOM     33  C   UNL     1       8.660  -7.830  32.872  0.00  0.00    +0.180 A 
ATOM     34  O   UNL     1       9.461  -7.657  32.778  0.00  0.00    -0.449 OA
ENDBRANCH  25  30
ENDBRANCH  22  23
BRANCH  15  14
ATOM     14  C   UNL     1      13.813  -4.922  31.733  0.00  0.00    +0.133 C 
BRANCH  14  13
ATOM     10  N   UNL     1      15.737  -4.062  31.169  0.00  0.00    -0.161 NA
ATOM     11  C   UNL     1      14.969  -4.128  31.463  0.00  0.00    +0.344 C 
ATOM     12  O   UNL     1      14.590  -3.468  31.778  0.00  0.00    -0.249 OA
ATOM     13  N   UNL     1      14.581  -4.856  31.440  0.00  0.00    -0.185 NA
BRANCH  10   9
ATOM      3  C   UNL     1      16.816  -2.322  31.927  0.00  0.00    +0.143 A 
ATOM      4  C   UNL     1      16.903  -1.880  31.236  0.00  0.00    +0.074 A 
ATOM      5  C   UNL     1      16.602  -2.165  30.523  0.00  0.00    +0.143 A 
ATOM      8  C   UNL     1      16.213  -2.892  30.501  0.00  0.00    +0.054 A 
ATOM      9  C   UNL     1      16.126  -3.334  31.191  0.00  0.00    +0.081 A 
ATOM     35  C   UNL     1      16.428  -3.049  31.905  0.00  0.00    +0.054 A 
BRANCH   3   2
ATOM      1  C   UNL     1      16.967  -1.260  32.871  0.00  0.00    +0.252 C 
ATOM      2  O   UNL     1      17.118  -2.037  32.640  0.00  0.00    -0.471 OA
ENDBRANCH   3   2
BRANCH   5   6
ATOM      6  O   UNL     1      16.689  -1.722  29.831  0.00  0.00    -0.471 OA
ATOM      7  C   UNL     1      16.951  -2.086  29.140  0.00  0.00    +0.252 C 
ENDBRANCH   5   6
ENDBRANCH  10   9
ENDBRANCH  14  13
ENDBRANCH  15  14
TORSDOF 7
ENDMDL
MODEL 8
REMARK VINA RESULT:      -4.8     15.144     17.549
REMARK  Name = 
REMARK  7 active torsions:
REMARK  status: ('A' for Active; 'I' for Inactive)
REMARK    1  A    between atoms: O_2  and  C_3
REMARK    2  A    between atoms: C_5  and  O_6
REMARK    3  A    between atoms: C_9  and  N_10
REMARK    4  A    between atoms: N_13  and  C_14
REMARK    5  A    between atoms: C_14  and  C_15
REMARK    6  A    between atoms: C_22  and  C_23
REMARK    7  A    between atoms: C_25  and  C_30
REMARK                            x       y       z     vdW  Elec       q    Type
REMARK                         _______ _______ _______ _____ _____    ______ ____
ROOT
ATOM     15  C   UNL     1      11.970  -6.919  32.123  0.00  0.00    +0.079 C 
ATOM     16  C   UNL     1      11.761  -7.501  31.652  0.00  0.00    +0.018 C 
ATOM     17  C   UNL     1      11.100  -7.961  31.734  0.00  0.00    +0.010 C 
ATOM     18  C   UNL     1      11.039  -8.579  31.087  0.00  0.00    +0.018 C 
ATOM     19  C   UNL     1      11.309  -8.078  31.409  0.00  0.00    +0.072 C 
ATOM     20  N   UNL     1      11.298  -7.391  32.201  0.00  0.00    -0.272 NA
ATOM     21  C   UNL     1      10.622  -7.395  32.814  0.00  0.00    +0.078 C 
ATOM     22  C   UNL     1      10.453  -7.959  32.327  0.00  0.00    +0.056 C 
ENDROOT
BRANCH  22  23
ATOM     23  C   UNL     1       9.798  -8.461  32.354  0.00  0.00    +0.063 A 
ATOM     24  C   UNL     1       9.054  -8.181  32.134  0.00  0.00    +0.037 A 
ATOM     25  C   UNL     1       8.401  -8.683  32.161  0.00  0.00    +0.118 A 
ATOM     26  N   UNL     1       8.490  -9.465  32.407  0.00  0.00    -0.228 NA
ATOM     27  C   UNL     1       9.235  -9.745  32.627  0.00  0.00    +0.139 A 
ATOM     28  C   UNL     1       9.325 -10.527  32.873  0.00  0.00    +0.074 C 
ATOM     29  N   UNL     1       9.889  -9.243  32.600  0.00  0.00    -0.235 NA
BRANCH  25  30
ATOM     30  C   UNL     1       7.656  -8.404  31.941  0.00  0.00    +0.163 A 
ATOM     31  C   UNL     1       7.259  -8.584  31.240  0.00  0.00    +0.042 A 
ATOM     32  C   UNL     1       6.535  -8.187  31.249  0.00  0.00    +0.044 A 
ATOM     33  C   UNL     1       6.486  -7.762  31.954  0.00  0.00    +0.180 A 
ATOM     34  O   UNL     1       7.179  -7.896  32.381  0.00  0.00    -0.449 OA
ENDBRANCH  25  30
ENDBRANCH  22  23
BRANCH  15  14
ATOM     14  C   UNL     1      12.471  -6.308  32.361  0.00  0.00    +0.133 C 
BRANCH  14  13
ATOM     10  N   UNL     1      14.062  -5.123  31.450  0.00  0.00    -0.161 NA
ATOM     11  C   UNL     1      13.624  -5.540  32.012  0.00  0.00    +0.344 C 
ATOM     12  O   UNL     1      13.902  -5.606  32.785  0.00  0.00    -0.249 OA
ATOM     13  N   UNL     1      12.908  -5.891  31.799  0.00  0.00    -0.185 NA
BRANCH  10   9
ATOM      3  C   UNL     1      16.201  -4.828  31.760  0.00  0.00    +0.143 A 
ATOM      4  C   UNL     1      16.209  -4.071  32.086  0.00  0.00    +0.074 A 
ATOM      5  C   UNL     1      15.501  -3.664  32.199  0.00  0.00    +0.143 A 
ATOM      8  C   UNL     1      14.784  -4.014  31.988  0.00  0.00    +0.054 A 
ATOM      9  C   UNL     1      14.777  -4.772  31.662  0.00  0.00    +0.081 A 
ATOM     35  C   UNL     1      15.486  -5.179  31.549  0.00  0.00    +0.054 A 
BRANCH   3   2
ATOM      1  C   UNL     1      17.180  -5.388  30.883  0.00  0.00    +0.252 C 
ATOM      2  O   UNL     1      16.910  -5.236  31.647  0.00  0.00    -0.471 OA
ENDBRANCH   3   2
BRANCH   5   6
ATOM      6  O   UNL     1      15.508  -2.905  32.525  0.00  0.00    -0.471 OA
ATOM      7  C   UNL     1      15.905  -2.294  32.139  0.00  0.00    +0.252 C 
ENDBRANCH   5   6
ENDBRANCH  10   9
ENDBRANCH  14  13
ENDBRANCH  15  14
TORSDOF 7
ENDMDL
