REMARK  Name = 
REMARK  1 active torsions:
REMARK  status: ('A' for Active; 'I' for Inactive)
REMARK    1  A    between atoms: C_19  and  C_21
REMARK                            x       y       z     vdW  Elec       q    Type
REMARK                         _______ _______ _______ _____ _____    ______ ____
ROOT
ATOM      1 BR   UNL     1      -0.003  -2.241   0.000  0.00  0.00    -0.049 Br
ATOM      2  C   UNL     1       0.601  -1.680   0.000  0.00  0.00    +0.035 A 
ATOM      3  C   UNL     1       0.418  -0.876   0.000  0.00  0.00    +0.008 A 
ATOM      4  C   UNL     1       1.023  -0.315   0.000  0.00  0.00    +0.017 A 
ATOM      5  C   UNL     1       1.811  -0.558   0.000  0.00  0.00    +0.078 A 
ATOM      6  N   UNL     1       2.325   0.087   0.000  0.00  0.00    -0.178 NA
ATOM      7  C   UNL     1       3.150   0.087   0.000  0.00  0.00    +0.265 C 
ATOM      8  O   UNL     1       3.508   0.830   0.000  0.00  0.00    -0.271 OA
ATOM      9  C   UNL     1       3.665  -0.558   0.000  0.00  0.00    +0.174 C 
ATOM     10  C   UNL     1       4.453  -0.315   0.000  0.00  0.00    +0.123 C 
ATOM     11  N   UNL     1       5.058  -0.876   0.000  0.00  0.00    -0.272 N 
ATOM     12  C   UNL     1       4.874  -1.680   0.000  0.00  0.00    +0.115 C 
ATOM     13  C   UNL     1       4.086  -1.923   0.000  0.00  0.00    +0.116 C 
ATOM     14  N   UNL     1       3.481  -1.362   0.000  0.00  0.00    -0.266 N 
ATOM     15  C   UNL     1       2.738  -1.720   0.000  0.00  0.00    +0.251 C 
ATOM     16  O   UNL     1       2.738  -2.545   0.000  0.00  0.00    -0.270 OA
ATOM     17  C   UNL     1       1.994  -1.362   0.000  0.00  0.00    +0.069 A 
ATOM     18  C   UNL     1       1.390  -1.923   0.000  0.00  0.00    +0.013 A 
ATOM     19  C   UNL     1       5.846  -0.633   0.000  0.00  0.00    +0.251 C 
ATOM     20  O   UNL     1       6.030   0.172   0.000  0.00  0.00    -0.270 OA
ENDROOT
BRANCH  19  21
ATOM     21  C   UNL     1       6.451  -1.194   0.000  0.00  0.00    +0.073 A 
ATOM     22  C   UNL     1       7.239  -0.951   0.000  0.00  0.00    +0.103 A 
ATOM     23  N   UNL     1       7.844  -1.512   0.000  0.00  0.00    -0.242 NA
ATOM     24  C   UNL     1       7.660  -2.316   0.000  0.00  0.00    +0.099 A 
ATOM     25  C   UNL     1       6.872  -2.559   0.000  0.00  0.00    +0.021 A 
ATOM     26  C   UNL     1       6.267  -1.998   0.000  0.00  0.00    +0.008 A 
ENDBRANCH  19  21
TORSDOF 1
