REMARK  Name = 
REMARK  3 active torsions:
REMARK  status: ('A' for Active; 'I' for Inactive)
REMARK    1  A    between atoms: C_5  and  C_8
REMARK    2  A    between atoms: C_15  and  O_17
REMARK    3  A    between atoms: O_17  and  C_18
REMARK                            x       y       z     vdW  Elec       q    Type
REMARK                         _______ _______ _______ _____ _____    ______ ____
ROOT
ATOM      8  C   UNL     1      -1.115  -3.455   0.000  0.00  0.00    +0.249 C 
ATOM      9  O   UNL     1      -1.830  -3.868   0.000  0.00  0.00    -0.270 OA
ATOM     10  N   UNL     1      -0.401  -3.868   0.000  0.00  0.00    -0.270 N 
ATOM     11  C   UNL     1       0.281  -3.403   0.000  0.00  0.00    +0.126 C 
ATOM     12  C   UNL     1       1.069  -3.646   0.000  0.00  0.00    +0.164 C 
ATOM     13  O   UNL     1       1.371  -4.414   0.000  0.00  0.00    -0.348 OA
ATOM     14  C   UNL     1       0.958  -5.128   0.000  0.00  0.00    +0.187 C 
ATOM     15  C   UNL     1       0.142  -5.251   0.000  0.00  0.00    +0.215 C 
ATOM     16  C   UNL     1      -0.462  -4.690   0.000  0.00  0.00    +0.140 C 
ENDROOT
BRANCH   8   5
ATOM      1  F   UNL     1      -1.115  -0.155   0.000  0.00  0.00    -0.204 F 
ATOM      2  C   UNL     1      -1.115  -0.980   0.000  0.00  0.00    +0.140 A 
ATOM      3  C   UNL     1      -0.401  -1.393   0.000  0.00  0.00    +0.030 A 
ATOM      4  C   UNL     1      -0.401  -2.217   0.000  0.00  0.00    +0.007 A 
ATOM      5  C   UNL     1      -1.115  -2.630   0.000  0.00  0.00    +0.054 A 
ATOM      6  C   UNL     1      -1.830  -2.217   0.000  0.00  0.00    +0.007 A 
ATOM      7  C   UNL     1      -1.830  -1.393   0.000  0.00  0.00    +0.030 A 
ENDBRANCH   8   5
BRANCH  15  17
ATOM     17  O   UNL     1      -0.101  -6.040   0.000  0.00  0.00    -0.475 OA
BRANCH  17  18
ATOM     18  C   UNL     1      -0.905  -6.223   0.000  0.00  0.00    +0.139 A 
ATOM     19  C   UNL     1      -1.148  -7.012   0.000  0.00  0.00    +0.037 A 
ATOM     20  C   UNL     1      -1.953  -7.195   0.000  0.00  0.00    +0.003 A 
ATOM     21  C   UNL     1      -2.514  -6.590   0.000  0.00  0.00    +0.000 A 
ATOM     22  C   UNL     1      -2.271  -5.802   0.000  0.00  0.00    +0.003 A 
ATOM     23  C   UNL     1      -1.466  -5.619   0.000  0.00  0.00    +0.037 A 
ENDBRANCH  17  18
ENDBRANCH  15  17
TORSDOF 3
