MODEL 1
REMARK VINA RESULT:     -10.7      0.000      0.000
REMARK  Name = 
REMARK  6 active torsions:
REMARK  status: ('A' for Active; 'I' for Inactive)
REMARK    1  A    between atoms: C_5  and  C_6
REMARK    2  A    between atoms: C_6  and  C_7
REMARK    3  A    between atoms: N_12  and  C_15
REMARK    4  A    between atoms: C_23  and  C_24
REMARK    5  A    between atoms: C_24  and  N_25
REMARK    6  A    between atoms: C_26  and  C_28
REMARK                            x       y       z     vdW  Elec       q    Type
REMARK                         _______ _______ _______ _____ _____    ______ ____
ROOT
ATOM      6  C   UNL     1      -4.761   2.180  24.903  0.00  0.00    +0.117 C 
ENDROOT
BRANCH   6   7
ATOM      7  C   UNL     1      -4.327   1.806  24.309  0.00  0.00    +0.228 C 
ATOM      8  O   UNL     1      -4.018   2.247  23.684  0.00  0.00    -0.275 OA
ATOM      9  N   UNL     1      -4.202   0.991  24.340  0.00  0.00    -0.276 N 
ATOM     10  C   UNL     1      -3.768   0.617  23.746  0.00  0.00    +0.115 C 
ATOM     11  C   UNL     1      -3.643  -0.198  23.778  0.00  0.00    +0.112 C 
ATOM     12  N   UNL     1      -3.952  -0.638  24.403  0.00  0.00    -0.304 N 
ATOM     13  C   UNL     1      -4.386  -0.265  24.996  0.00  0.00    +0.112 C 
ATOM     14  C   UNL     1      -4.511   0.550  24.965  0.00  0.00    +0.115 C 
BRANCH  12  15
ATOM     15  C   UNL     1      -3.827  -1.454  24.434  0.00  0.00    +0.048 A 
ATOM     16  C   UNL     1      -4.206  -1.950  23.894  0.00  0.00    +0.017 A 
ATOM     17  C   UNL     1      -4.080  -2.765  23.926  0.00  0.00    +0.031 A 
ATOM     18  C   UNL     1      -3.576  -3.083  24.496  0.00  0.00    +0.140 A 
ATOM     19  F   UNL     1      -3.451  -3.898  24.527  0.00  0.00    -0.204 F 
ATOM     20  C   UNL     1      -3.197  -2.587  25.035  0.00  0.00    +0.031 A 
ATOM     21  C   UNL     1      -3.323  -1.772  25.004  0.00  0.00    +0.017 A 
ENDBRANCH  12  15
ENDBRANCH   6   7
BRANCH   6   5
ATOM      1  O   UNL     1      -4.613   4.656  26.412  0.00  0.00    -0.218 OA
ATOM      2  C   UNL     1      -4.407   4.012  25.940  0.00  0.00    +0.213 C 
ATOM      3  C   UNL     1      -4.908   3.396  25.715  0.00  0.00    +0.212 C 
ATOM      4  O   UNL     1      -5.703   3.317  25.923  0.00  0.00    -0.218 OA
ATOM      5  C   UNL     1      -4.476   2.873  25.247  0.00  0.00    +0.157 C 
ATOM     22  O   UNL     1      -3.707   3.166  25.181  0.00  0.00    -0.351 OA
ATOM     23  C   UNL     1      -3.665   3.870  25.610  0.00  0.00    +0.170 C 
BRANCH  23  24
ATOM     24  C   UNL     1      -2.997   4.347  25.694  0.00  0.00    +0.147 C 
BRANCH  24  25
ATOM     25  N   UNL     1      -2.262   4.074  25.439  0.00  0.00    -0.203 NA
ATOM     26  C   UNL     1      -1.645   4.607  25.310  0.00  0.00    +0.241 C 
ATOM     27  O   UNL     1      -1.765   5.414  25.437  0.00  0.00    -0.273 OA
BRANCH  26  28
ATOM     28  C   UNL     1      -0.910   4.334  25.056  0.00  0.00    +0.078 C 
ATOM     29  C   UNL     1      -0.296   3.785  25.104  0.00  0.00    +0.010 C 
ATOM     30  C   UNL     1      -0.250   4.410  24.567  0.00  0.00    +0.010 C 
ENDBRANCH  26  28
ENDBRANCH  24  25
ENDBRANCH  23  24
ENDBRANCH   6   5
TORSDOF 6
ENDMDL
MODEL 2
REMARK VINA RESULT:     -10.3      3.035      5.742
REMARK  Name = 
REMARK  6 active torsions:
REMARK  status: ('A' for Active; 'I' for Inactive)
REMARK    1  A    between atoms: C_5  and  C_6
REMARK    2  A    between atoms: C_6  and  C_7
REMARK    3  A    between atoms: N_12  and  C_15
REMARK    4  A    between atoms: C_23  and  C_24
REMARK    5  A    between atoms: C_24  and  N_25
REMARK    6  A    between atoms: C_26  and  C_28
REMARK                            x       y       z     vdW  Elec       q    Type
REMARK                         _______ _______ _______ _____ _____    ______ ____
ROOT
ATOM      6  C   UNL     1      -1.064   1.548  24.008  0.00  0.00    +0.117 C 
ENDROOT
BRANCH   6   7
ATOM      7  C   UNL     1      -1.717   1.736  23.539  0.00  0.00    +0.228 C 
ATOM      8  O   UNL     1      -1.709   1.562  22.733  0.00  0.00    -0.275 OA
ATOM      9  N   UNL     1      -2.376   2.098  23.877  0.00  0.00    -0.276 N 
ATOM     10  C   UNL     1      -3.029   2.286  23.408  0.00  0.00    +0.115 C 
ATOM     11  C   UNL     1      -3.689   2.648  23.747  0.00  0.00    +0.112 C 
ATOM     12  N   UNL     1      -3.696   2.821  24.553  0.00  0.00    -0.304 N 
ATOM     13  C   UNL     1      -3.044   2.634  25.021  0.00  0.00    +0.112 C 
ATOM     14  C   UNL     1      -2.384   2.271  24.683  0.00  0.00    +0.115 C 
BRANCH  12  15
ATOM     15  C   UNL     1      -4.357   3.183  24.890  0.00  0.00    +0.048 A 
ATOM     16  C   UNL     1      -4.362   4.000  25.013  0.00  0.00    +0.017 A 
ATOM     17  C   UNL     1      -5.023   4.361  25.351  0.00  0.00    +0.031 A 
ATOM     18  C   UNL     1      -5.677   3.906  25.565  0.00  0.00    +0.140 A 
ATOM     19  F   UNL     1      -6.337   4.268  25.903  0.00  0.00    -0.204 F 
ATOM     20  C   UNL     1      -5.671   3.091  25.442  0.00  0.00    +0.031 A 
ATOM     21  C   UNL     1      -5.011   2.729  25.105  0.00  0.00    +0.017 A 
ENDBRANCH  12  15
ENDBRANCH   6   7
BRANCH   6   5
ATOM      1  O   UNL     1       0.667  -0.782  23.911  0.00  0.00    -0.218 OA
ATOM      2  C   UNL     1       0.001  -0.302  24.000  0.00  0.00    +0.213 C 
ATOM      3  C   UNL     1      -0.021   0.517  23.904  0.00  0.00    +0.212 C 
ATOM      4  O   UNL     1       0.618   1.000  23.703  0.00  0.00    -0.218 OA
ATOM      5  C   UNL     1      -0.793   0.769  24.044  0.00  0.00    +0.157 C 
ATOM     22  O   UNL     1      -1.249   0.106  24.227  0.00  0.00    -0.351 OA
ATOM     23  C   UNL     1      -0.757  -0.556  24.199  0.00  0.00    +0.170 C 
BRANCH  23  24
ATOM     24  C   UNL     1      -0.985  -1.335  24.346  0.00  0.00    +0.147 C 
BRANCH  24  25
ATOM     25  N   UNL     1      -1.783  -1.519  24.444  0.00  0.00    -0.203 NA
ATOM     26  C   UNL     1      -2.013  -2.299  24.583  0.00  0.00    +0.241 C 
ATOM     27  O   UNL     1      -1.444  -2.895  24.625  0.00  0.00    -0.273 OA
BRANCH  26  28
ATOM     28  C   UNL     1      -2.812  -2.482  24.681  0.00  0.00    +0.078 C 
ATOM     29  C   UNL     1      -3.525  -2.757  24.370  0.00  0.00    +0.010 C 
ATOM     30  C   UNL     1      -3.481  -2.527  25.161  0.00  0.00    +0.010 C 
ENDBRANCH  26  28
ENDBRANCH  24  25
ENDBRANCH  23  24
ENDBRANCH   6   5
TORSDOF 6
ENDMDL
MODEL 3
REMARK VINA RESULT:     -10.2      1.686      3.108
REMARK  Name = 
REMARK  6 active torsions:
REMARK  status: ('A' for Active; 'I' for Inactive)
REMARK    1  A    between atoms: C_5  and  C_6
REMARK    2  A    between atoms: C_6  and  C_7
REMARK    3  A    between atoms: N_12  and  C_15
REMARK    4  A    between atoms: C_23  and  C_24
REMARK    5  A    between atoms: C_24  and  N_25
REMARK    6  A    between atoms: C_26  and  C_28
REMARK                            x       y       z     vdW  Elec       q    Type
REMARK                         _______ _______ _______ _____ _____    ______ ____
ROOT
ATOM      6  C   UNL     1      -0.694   1.670  24.720  0.00  0.00    +0.117 C 
ENDROOT
BRANCH   6   7
ATOM      7  C   UNL     1      -0.815   1.095  25.300  0.00  0.00    +0.228 C 
ATOM      8  O   UNL     1      -0.475   1.183  26.047  0.00  0.00    -0.275 OA
ATOM      9  N   UNL     1      -1.278   0.433  25.133  0.00  0.00    -0.276 N 
ATOM     10  C   UNL     1      -1.399  -0.142  25.713  0.00  0.00    +0.115 C 
ATOM     11  C   UNL     1      -1.861  -0.805  25.545  0.00  0.00    +0.112 C 
ATOM     12  N   UNL     1      -2.201  -0.893  24.799  0.00  0.00    -0.304 N 
ATOM     13  C   UNL     1      -2.080  -0.319  24.220  0.00  0.00    +0.112 C 
ATOM     14  C   UNL     1      -1.618   0.345  24.387  0.00  0.00    +0.115 C 
BRANCH  12  15
ATOM     15  C   UNL     1      -2.663  -1.556  24.632  0.00  0.00    +0.048 A 
ATOM     16  C   UNL     1      -2.321  -2.307  24.629  0.00  0.00    +0.017 A 
ATOM     17  C   UNL     1      -2.784  -2.970  24.462  0.00  0.00    +0.031 A 
ATOM     18  C   UNL     1      -3.587  -2.881  24.298  0.00  0.00    +0.140 A 
ATOM     19  F   UNL     1      -4.050  -3.545  24.132  0.00  0.00    -0.204 F 
ATOM     20  C   UNL     1      -3.929  -2.131  24.301  0.00  0.00    +0.031 A 
ATOM     21  C   UNL     1      -3.467  -1.468  24.468  0.00  0.00    +0.017 A 
ENDBRANCH  12  15
ENDBRANCH   6   7
BRANCH   6   5
ATOM      1  O   UNL     1      -0.788   4.571  24.810  0.00  0.00    -0.218 OA
ATOM      2  C   UNL     1      -0.996   3.776  24.888  0.00  0.00    +0.213 C 
ATOM      3  C   UNL     1      -0.531   3.130  24.673  0.00  0.00    +0.212 C 
ATOM      4  O   UNL     1       0.225   3.165  24.342  0.00  0.00    -0.218 OA
ATOM      5  C   UNL     1      -0.952   2.443  24.847  0.00  0.00    +0.157 C 
ATOM     22  O   UNL     1      -1.679   2.664  25.169  0.00  0.00    -0.351 OA
ATOM     23  C   UNL     1      -1.706   3.489  25.194  0.00  0.00    +0.170 C 
BRANCH  23  24
ATOM     24  C   UNL     1      -2.333   3.945  25.477  0.00  0.00    +0.147 C 
BRANCH  24  25
ATOM     25  N   UNL     1      -3.110   3.704  25.343  0.00  0.00    -0.203 NA
ATOM     26  C   UNL     1      -3.712   3.945  25.853  0.00  0.00    +0.241 C 
ATOM     27  O   UNL     1      -3.535   4.429  26.499  0.00  0.00    -0.273 OA
BRANCH  26  28
ATOM     28  C   UNL     1      -4.489   3.705  25.718  0.00  0.00    +0.078 C 
ATOM     29  C   UNL     1      -5.245   3.861  25.427  0.00  0.00    +0.010 C 
ATOM     30  C   UNL     1      -5.080   3.132  25.776  0.00  0.00    +0.010 C 
ENDBRANCH  26  28
ENDBRANCH  24  25
ENDBRANCH  23  24
ENDBRANCH   6   5
TORSDOF 6
ENDMDL
