MODEL 1
REMARK VINA RESULT:     -11.1      0.000      0.000
REMARK  Name = 
REMARK  8 active torsions:
REMARK  status: ('A' for Active; 'I' for Inactive)
REMARK    1  A    between atoms: O_2  and  C_3
REMARK    2  A    between atoms: C_3  and  C_4
REMARK    3  A    between atoms: N_6  and  C_7
REMARK    4  A    between atoms: C_7  and  C_8
REMARK    5  A    between atoms: C_12  and  C_13
REMARK    6  A    between atoms: C_13  and  C_14
REMARK    7  A    between atoms: C_17  and  C_19
REMARK    8  A    between atoms: C_27  and  C_28
REMARK                            x       y       z     vdW  Elec       q    Type
REMARK                         _______ _______ _______ _____ _____    ______ ____
ROOT
ATOM      8  C   UNL     1      -4.055   0.738  24.235  0.00  0.00    +0.043 C 
ATOM      9  C   UNL     1      -4.671   0.876  24.766  0.00  0.00    -0.033 C 
ATOM     10  C   UNL     1      -4.802   1.638  25.057  0.00  0.00    -0.048 C 
ATOM     11  C   UNL     1      -5.418   1.776  25.587  0.00  0.00    +0.026 C 
ATOM     12  C   UNL     1      -4.316   2.260  24.818  0.00  0.00    +0.027 C 
ATOM     26  C   UNL     1      -3.699   2.120  24.287  0.00  0.00    +0.005 C 
ATOM     27  C   UNL     1      -3.569   1.360  23.996  0.00  0.00    +0.006 C 
ENDROOT
BRANCH  27  28
ATOM     28  C   UNL     1      -2.952   1.221  23.465  0.00  0.00    +0.000 C 
ATOM     29  C   UNL     1      -3.062   1.358  22.660  0.00  0.00    +0.000 C 
ATOM     30  C   UNL     1      -2.226   0.944  23.741  0.00  0.00    +0.000 C 
ENDBRANCH  27  28
BRANCH   8   7
ATOM      7  C   UNL     1      -3.925  -0.023  23.944  0.00  0.00    +0.119 C 
BRANCH   7   6
ATOM      4  C   UNL     1      -4.030  -1.432  24.161  0.00  0.00    +0.272 C 
ATOM      5  O   UNL     1      -4.119  -1.550  23.349  0.00  0.00    -0.271 OA
ATOM      6  N   UNL     1      -3.932  -0.668  24.458  0.00  0.00    -0.203 NA
BRANCH   4   3
ATOM      3  C   UNL     1      -4.038  -2.077  24.675  0.00  0.00    +0.229 C 
BRANCH   3   2
ATOM      1  C   UNL     1      -3.322  -3.265  25.017  0.00  0.00    +0.175 C 
ATOM      2  O   UNL     1      -3.684  -2.788  24.450  0.00  0.00    -0.342 OA
ENDBRANCH   3   2
ENDBRANCH   4   3
ENDBRANCH   7   6
ENDBRANCH   8   7
BRANCH  12  13
ATOM     13  C   UNL     1      -4.446   3.020  25.109  0.00  0.00    +0.091 C 
BRANCH  13  14
ATOM     14  C   UNL     1      -3.817   3.461  25.409  0.00  0.00    +0.227 A 
ATOM     15  N   UNL     1      -3.716   3.687  26.197  0.00  0.00    -0.111 NA
ATOM     16  N   UNL     1      -3.015   4.119  26.250  0.00  0.00    -0.107 NA
ATOM     17  C   UNL     1      -2.683   4.160  25.497  0.00  0.00    +0.252 A 
ATOM     18  O   UNL     1      -3.179   3.753  24.977  0.00  0.00    -0.419 OA
BRANCH  17  19
ATOM     19  C   UNL     1      -1.979   4.541  25.296  0.00  0.00    +0.083 A 
ATOM     20  C   UNL     1      -1.992   5.329  25.052  0.00  0.00    +0.007 A 
ATOM     21  C   UNL     1      -1.289   5.711  24.852  0.00  0.00    +0.000 A 
ATOM     22  C   UNL     1      -0.572   5.304  24.896  0.00  0.00    +0.002 A 
ATOM     23  C   UNL     1      -0.559   4.515  25.140  0.00  0.00    +0.030 A 
ATOM     24  C   UNL     1      -1.263   4.134  25.340  0.00  0.00    +0.145 A 
ATOM     25  F   UNL     1      -1.249   3.346  25.583  0.00  0.00    -0.204 F 
ENDBRANCH  17  19
ENDBRANCH  13  14
ENDBRANCH  12  13
TORSDOF 8
ENDMDL
MODEL 2
REMARK VINA RESULT:     -10.9      2.624      4.229
REMARK  Name = 
REMARK  8 active torsions:
REMARK  status: ('A' for Active; 'I' for Inactive)
REMARK    1  A    between atoms: O_2  and  C_3
REMARK    2  A    between atoms: C_3  and  C_4
REMARK    3  A    between atoms: N_6  and  C_7
REMARK    4  A    between atoms: C_7  and  C_8
REMARK    5  A    between atoms: C_12  and  C_13
REMARK    6  A    between atoms: C_13  and  C_14
REMARK    7  A    between atoms: C_17  and  C_19
REMARK    8  A    between atoms: C_27  and  C_28
REMARK                            x       y       z     vdW  Elec       q    Type
REMARK                         _______ _______ _______ _____ _____    ______ ____
ROOT
ATOM      8  C   UNL     1      -0.623   1.186  24.395  0.00  0.00    +0.043 C 
ATOM      9  C   UNL     1      -0.379   1.959  24.245  0.00  0.00    -0.033 C 
ATOM     10  C   UNL     1      -0.807   2.594  24.554  0.00  0.00    -0.048 C 
ATOM     11  C   UNL     1      -0.563   3.367  24.403  0.00  0.00    +0.026 C 
ATOM     12  C   UNL     1      -1.479   2.454  25.012  0.00  0.00    +0.027 C 
ATOM     26  C   UNL     1      -1.722   1.680  25.162  0.00  0.00    +0.005 C 
ATOM     27  C   UNL     1      -1.294   1.046  24.854  0.00  0.00    +0.006 C 
ENDROOT
BRANCH  27  28
ATOM     28  C   UNL     1      -1.537   0.272  25.004  0.00  0.00    +0.000 C 
ATOM     29  C   UNL     1      -1.264  -0.125  25.673  0.00  0.00    +0.000 C 
ATOM     30  C   UNL     1      -2.054  -0.106  24.483  0.00  0.00    +0.000 C 
ENDBRANCH  27  28
BRANCH   8   7
ATOM      7  C   UNL     1      -0.194   0.551  24.086  0.00  0.00    +0.119 C 
BRANCH   7   6
ATOM      4  C   UNL     1       0.842   0.054  23.237  0.00  0.00    +0.272 C 
ATOM      5  O   UNL     1       0.676  -0.715  23.484  0.00  0.00    -0.271 OA
ATOM      6  N   UNL     1       0.407   0.688  23.539  0.00  0.00    -0.203 NA
BRANCH   4   3
ATOM      3  C   UNL     1       1.443   0.191  22.689  0.00  0.00    +0.229 C 
BRANCH   3   2
ATOM      1  C   UNL     1       2.829   0.099  22.353  0.00  0.00    +0.175 C 
ATOM      2  O   UNL     1       2.181  -0.165  22.790  0.00  0.00    -0.342 OA
ENDBRANCH   3   2
ENDBRANCH   4   3
ENDBRANCH   7   6
ENDBRANCH   8   7
BRANCH  12  13
ATOM     13  C   UNL     1      -1.906   3.088  25.321  0.00  0.00    +0.091 C 
BRANCH  13  14
ATOM     14  C   UNL     1      -2.705   3.178  25.134  0.00  0.00    +0.227 A 
ATOM     15  N   UNL     1      -3.022   3.740  24.619  0.00  0.00    -0.111 NA
ATOM     16  N   UNL     1      -3.839   3.631  24.596  0.00  0.00    -0.107 NA
ATOM     17  C   UNL     1      -4.027   3.003  25.095  0.00  0.00    +0.252 A 
ATOM     18  O   UNL     1      -3.326   2.723  25.428  0.00  0.00    -0.419 OA
BRANCH  17  19
ATOM     19  C   UNL     1      -4.784   2.706  25.238  0.00  0.00    +0.083 A 
ATOM     20  C   UNL     1      -5.206   2.955  25.902  0.00  0.00    +0.007 A 
ATOM     21  C   UNL     1      -5.962   2.659  26.046  0.00  0.00    +0.000 A 
ATOM     22  C   UNL     1      -6.297   2.113  25.525  0.00  0.00    +0.002 A 
ATOM     23  C   UNL     1      -5.875   1.863  24.861  0.00  0.00    +0.030 A 
ATOM     24  C   UNL     1      -5.118   2.161  24.718  0.00  0.00    +0.145 A 
ATOM     25  F   UNL     1      -4.697   1.911  24.054  0.00  0.00    -0.204 F 
ENDBRANCH  17  19
ENDBRANCH  13  14
ENDBRANCH  12  13
TORSDOF 8
ENDMDL
MODEL 3
REMARK VINA RESULT:     -10.2      1.694      5.559
REMARK  Name = 
REMARK  8 active torsions:
REMARK  status: ('A' for Active; 'I' for Inactive)
REMARK    1  A    between atoms: O_2  and  C_3
REMARK    2  A    between atoms: C_3  and  C_4
REMARK    3  A    between atoms: N_6  and  C_7
REMARK    4  A    between atoms: C_7  and  C_8
REMARK    5  A    between atoms: C_12  and  C_13
REMARK    6  A    between atoms: C_13  and  C_14
REMARK    7  A    between atoms: C_17  and  C_19
REMARK    8  A    between atoms: C_27  and  C_28
REMARK                            x       y       z     vdW  Elec       q    Type
REMARK                         _______ _______ _______ _____ _____    ______ ____
ROOT
ATOM      8  C   UNL     1      -1.876   2.460  24.393  0.00  0.00    +0.043 C 
ATOM      9  C   UNL     1      -2.595   2.814  24.196  0.00  0.00    -0.033 C 
ATOM     10  C   UNL     1      -3.228   2.348  23.942  0.00  0.00    -0.048 C 
ATOM     11  C   UNL     1      -3.946   2.702  23.745  0.00  0.00    +0.026 C 
ATOM     12  C   UNL     1      -3.141   1.530  23.886  0.00  0.00    +0.027 C 
ATOM     26  C   UNL     1      -2.422   1.177  24.084  0.00  0.00    +0.005 C 
ATOM     27  C   UNL     1      -1.790   1.641  24.337  0.00  0.00    +0.006 C 
ENDROOT
BRANCH  27  28
ATOM     28  C   UNL     1      -1.071   1.288  24.534  0.00  0.00    +0.000 C 
ATOM     29  C   UNL     1      -0.922   1.061  25.313  0.00  0.00    +0.000 C 
ATOM     30  C   UNL     1      -0.500   1.163  23.952  0.00  0.00    +0.000 C 
ENDBRANCH  27  28
BRANCH   8   7
ATOM      7  C   UNL     1      -1.243   2.925  24.647  0.00  0.00    +0.119 C 
BRANCH   7   6
ATOM      4  C   UNL     1      -0.777   4.233  24.986  0.00  0.00    +0.272 C 
ATOM      5  O   UNL     1      -0.277   3.907  25.556  0.00  0.00    -0.271 OA
ATOM      6  N   UNL     1      -1.260   3.742  24.531  0.00  0.00    -0.203 NA
BRANCH   4   3
ATOM      3  C   UNL     1      -0.794   5.049  24.870  0.00  0.00    +0.229 C 
BRANCH   3   2
ATOM      1  C   UNL     1      -1.625   6.210  24.932  0.00  0.00    +0.175 C 
ATOM      2  O   UNL     1      -1.349   5.511  25.271  0.00  0.00    -0.342 OA
ENDBRANCH   3   2
ENDBRANCH   4   3
ENDBRANCH   7   6
ENDBRANCH   8   7
BRANCH  12  13
ATOM     13  C   UNL     1      -3.773   1.065  23.633  0.00  0.00    +0.091 C 
BRANCH  13  14
ATOM     14  C   UNL     1      -3.972   0.377  24.043  0.00  0.00    +0.227 A 
ATOM     15  N   UNL     1      -4.526   0.320  24.652  0.00  0.00    -0.111 NA
ATOM     16  N   UNL     1      -4.548  -0.466  24.902  0.00  0.00    -0.107 NA
ATOM     17  C   UNL     1      -4.008  -0.893  24.449  0.00  0.00    +0.252 A 
ATOM     18  O   UNL     1      -3.651  -0.372  23.919  0.00  0.00    -0.419 OA
BRANCH  17  19
ATOM     19  C   UNL     1      -3.850  -1.701  24.515  0.00  0.00    +0.083 A 
ATOM     20  C   UNL     1      -4.093  -2.218  23.919  0.00  0.00    +0.007 A 
ATOM     21  C   UNL     1      -3.936  -3.025  23.984  0.00  0.00    +0.000 A 
ATOM     22  C   UNL     1      -3.535  -3.315  24.645  0.00  0.00    +0.002 A 
ATOM     23  C   UNL     1      -3.292  -2.799  25.240  0.00  0.00    +0.030 A 
ATOM     24  C   UNL     1      -3.450  -1.991  25.175  0.00  0.00    +0.145 A 
ATOM     25  F   UNL     1      -3.206  -1.475  25.770  0.00  0.00    -0.204 F 
ENDBRANCH  17  19
ENDBRANCH  13  14
ENDBRANCH  12  13
TORSDOF 8
ENDMDL
MODEL 4
REMARK VINA RESULT:     -10.2      2.743      5.302
REMARK  Name = 
REMARK  8 active torsions:
REMARK  status: ('A' for Active; 'I' for Inactive)
REMARK    1  A    between atoms: O_2  and  C_3
REMARK    2  A    between atoms: C_3  and  C_4
REMARK    3  A    between atoms: N_6  and  C_7
REMARK    4  A    between atoms: C_7  and  C_8
REMARK    5  A    between atoms: C_12  and  C_13
REMARK    6  A    between atoms: C_13  and  C_14
REMARK    7  A    between atoms: C_17  and  C_19
REMARK    8  A    between atoms: C_27  and  C_28
REMARK                            x       y       z     vdW  Elec       q    Type
REMARK                         _______ _______ _______ _____ _____    ______ ____
ROOT
ATOM      8  C   UNL     1      -0.758   1.633  24.199  0.00  0.00    +0.043 C 
ATOM      9  C   UNL     1      -1.148   1.670  23.473  0.00  0.00    -0.033 C 
ATOM     10  C   UNL     1      -1.972   1.638  23.446  0.00  0.00    -0.048 C 
ATOM     11  C   UNL     1      -2.363   1.675  22.721  0.00  0.00    +0.026 C 
ATOM     12  C   UNL     1      -2.406   1.570  24.145  0.00  0.00    +0.027 C 
ATOM     26  C   UNL     1      -2.014   1.533  24.871  0.00  0.00    +0.005 C 
ATOM     27  C   UNL     1      -1.191   1.565  24.898  0.00  0.00    +0.006 C 
ENDROOT
BRANCH  27  28
ATOM     28  C   UNL     1      -0.800   1.528  25.623  0.00  0.00    +0.000 C 
ATOM     29  C   UNL     1      -0.637   0.797  25.969  0.00  0.00    +0.000 C 
ATOM     30  C   UNL     1      -0.571   2.224  26.003  0.00  0.00    +0.000 C 
ENDBRANCH  27  28
BRANCH   8   7
ATOM      7  C   UNL     1       0.067   1.665  24.226  0.00  0.00    +0.119 C 
BRANCH   7   6
ATOM      4  C   UNL     1       1.307   1.333  23.599  0.00  0.00    +0.272 C 
ATOM      5  O   UNL     1       1.653   2.007  23.925  0.00  0.00    -0.271 OA
ATOM      6  N   UNL     1       0.514   1.161  23.749  0.00  0.00    -0.203 NA
BRANCH   4   3
ATOM      3  C   UNL     1       1.754   0.830  23.122  0.00  0.00    +0.229 C 
BRANCH   3   2
ATOM      1  C   UNL     1       3.022   0.411  22.613  0.00  0.00    +0.175 C 
ATOM      2  O   UNL     1       2.574   0.924  23.078  0.00  0.00    -0.342 OA
ENDBRANCH   3   2
ENDBRANCH   4   3
ENDBRANCH   7   6
ENDBRANCH   8   7
BRANCH  12  13
ATOM     13  C   UNL     1      -3.229   1.538  24.118  0.00  0.00    +0.091 C 
BRANCH  13  14
ATOM     14  C   UNL     1      -3.624   0.853  24.354  0.00  0.00    +0.227 A 
ATOM     15  N   UNL     1      -4.315   0.824  24.805  0.00  0.00    -0.111 NA
ATOM     16  N   UNL     1      -4.516   0.030  24.910  0.00  0.00    -0.107 NA
ATOM     17  C   UNL     1      -3.951  -0.429  24.523  0.00  0.00    +0.252 A 
ATOM     18  O   UNL     1      -3.400   0.080  24.180  0.00  0.00    -0.419 OA
BRANCH  17  19
ATOM     19  C   UNL     1      -3.939  -1.254  24.486  0.00  0.00    +0.083 A 
ATOM     20  C   UNL     1      -4.274  -1.642  23.840  0.00  0.00    +0.007 A 
ATOM     21  C   UNL     1      -4.262  -2.466  23.802  0.00  0.00    +0.000 A 
ATOM     22  C   UNL     1      -3.915  -2.902  24.410  0.00  0.00    +0.002 A 
ATOM     23  C   UNL     1      -3.579  -2.513  25.057  0.00  0.00    +0.030 A 
ATOM     24  C   UNL     1      -3.592  -1.689  25.094  0.00  0.00    +0.145 A 
ATOM     25  F   UNL     1      -3.256  -1.301  25.741  0.00  0.00    -0.204 F 
ENDBRANCH  17  19
ENDBRANCH  13  14
ENDBRANCH  12  13
TORSDOF 8
ENDMDL
MODEL 5
REMARK VINA RESULT:     -10.2      2.897      4.784
REMARK  Name = 
REMARK  8 active torsions:
REMARK  status: ('A' for Active; 'I' for Inactive)
REMARK    1  A    between atoms: O_2  and  C_3
REMARK    2  A    between atoms: C_3  and  C_4
REMARK    3  A    between atoms: N_6  and  C_7
REMARK    4  A    between atoms: C_7  and  C_8
REMARK    5  A    between atoms: C_12  and  C_13
REMARK    6  A    between atoms: C_13  and  C_14
REMARK    7  A    between atoms: C_17  and  C_19
REMARK    8  A    between atoms: C_27  and  C_28
REMARK                            x       y       z     vdW  Elec       q    Type
REMARK                         _______ _______ _______ _____ _____    ______ ____
ROOT
ATOM      8  C   UNL     1      -0.394   0.439  24.323  0.00  0.00    +0.043 C 
ATOM      9  C   UNL     1      -0.547  -0.371  24.284  0.00  0.00    -0.033 C 
ATOM     10  C   UNL     1      -1.248  -0.674  24.598  0.00  0.00    -0.048 C 
ATOM     11  C   UNL     1      -1.401  -1.483  24.559  0.00  0.00    +0.026 C 
ATOM     12  C   UNL     1      -1.795  -0.166  24.951  0.00  0.00    +0.027 C 
ATOM     26  C   UNL     1      -1.641   0.643  24.989  0.00  0.00    +0.005 C 
ATOM     27  C   UNL     1      -0.941   0.946  24.676  0.00  0.00    +0.006 C 
ENDROOT
BRANCH  27  28
ATOM     28  C   UNL     1      -0.787   1.756  24.714  0.00  0.00    +0.000 C 
ATOM     29  C   UNL     1      -1.003   2.247  24.088  0.00  0.00    +0.000 C 
ATOM     30  C   UNL     1      -0.417   2.073  25.379  0.00  0.00    +0.000 C 
ENDBRANCH  27  28
BRANCH   8   7
ATOM      7  C   UNL     1       0.307   0.742  24.009  0.00  0.00    +0.119 C 
BRANCH   7   6
ATOM      4  C   UNL     1       1.499   0.539  23.249  0.00  0.00    +0.272 C 
ATOM      5  O   UNL     1       1.822   1.227  23.571  0.00  0.00    -0.271 OA
ATOM      6  N   UNL     1       0.741   0.296  23.468  0.00  0.00    -0.203 NA
BRANCH   4   3
ATOM      3  C   UNL     1       1.934   0.094  22.707  0.00  0.00    +0.229 C 
BRANCH   3   2
ATOM      1  C   UNL     1       3.113   0.058  21.901  0.00  0.00    +0.175 C 
ATOM      2  O   UNL     1       2.744   0.228  22.619  0.00  0.00    -0.342 OA
ENDBRANCH   3   2
ENDBRANCH   4   3
ENDBRANCH   7   6
ENDBRANCH   8   7
BRANCH  12  13
ATOM     13  C   UNL     1      -2.495  -0.469  25.264  0.00  0.00    +0.091 C 
BRANCH  13  14
ATOM     14  C   UNL     1      -3.222  -0.159  25.027  0.00  0.00    +0.227 A 
ATOM     15  N   UNL     1      -3.719  -0.477  24.450  0.00  0.00    -0.111 NA
ATOM     16  N   UNL     1      -4.384   0.008  24.392  0.00  0.00    -0.107 NA
ATOM     17  C   UNL     1      -4.297   0.625  24.932  0.00  0.00    +0.252 A 
ATOM     18  O   UNL     1      -3.579   0.522  25.325  0.00  0.00    -0.419 OA
BRANCH  17  19
ATOM     19  C   UNL     1      -4.835   1.239  25.058  0.00  0.00    +0.083 A 
ATOM     20  C   UNL     1      -5.392   1.181  25.664  0.00  0.00    +0.007 A 
ATOM     21  C   UNL     1      -5.929   1.793  25.791  0.00  0.00    +0.000 A 
ATOM     22  C   UNL     1      -5.910   2.465  25.311  0.00  0.00    +0.002 A 
ATOM     23  C   UNL     1      -5.353   2.523  24.705  0.00  0.00    +0.030 A 
ATOM     24  C   UNL     1      -4.815   1.909  24.579  0.00  0.00    +0.145 A 
ATOM     25  F   UNL     1      -4.259   1.968  23.973  0.00  0.00    -0.204 F 
ENDBRANCH  17  19
ENDBRANCH  13  14
ENDBRANCH  12  13
TORSDOF 8
ENDMDL
MODEL 6
REMARK VINA RESULT:     -10.0      2.255      4.653
REMARK  Name = 
REMARK  8 active torsions:
REMARK  status: ('A' for Active; 'I' for Inactive)
REMARK    1  A    between atoms: O_2  and  C_3
REMARK    2  A    between atoms: C_3  and  C_4
REMARK    3  A    between atoms: N_6  and  C_7
REMARK    4  A    between atoms: C_7  and  C_8
REMARK    5  A    between atoms: C_12  and  C_13
REMARK    6  A    between atoms: C_13  and  C_14
REMARK    7  A    between atoms: C_17  and  C_19
REMARK    8  A    between atoms: C_27  and  C_28
REMARK                            x       y       z     vdW  Elec       q    Type
REMARK                         _______ _______ _______ _____ _____    ______ ____
ROOT
ATOM      8  C   UNL     1      -3.252   3.217  24.630  0.00  0.00    +0.043 C 
ATOM      9  C   UNL     1      -3.423   2.736  23.982  0.00  0.00    -0.033 C 
ATOM     10  C   UNL     1      -2.811   2.370  23.567  0.00  0.00    -0.048 C 
ATOM     11  C   UNL     1      -2.982   1.889  22.919  0.00  0.00    +0.026 C 
ATOM     12  C   UNL     1      -2.028   2.486  23.799  0.00  0.00    +0.027 C 
ATOM     26  C   UNL     1      -1.857   2.968  24.447  0.00  0.00    +0.005 C 
ATOM     27  C   UNL     1      -2.469   3.333  24.862  0.00  0.00    +0.006 C 
ENDROOT
BRANCH  27  28
ATOM     28  C   UNL     1      -2.298   3.815  25.510  0.00  0.00    +0.000 C 
ATOM     29  C   UNL     1      -2.175   4.623  25.403  0.00  0.00    +0.000 C 
ATOM     30  C   UNL     1      -2.251   3.487  26.266  0.00  0.00    +0.000 C 
ENDBRANCH  27  28
BRANCH   8   7
ATOM      7  C   UNL     1      -3.864   3.583  25.046  0.00  0.00    +0.119 C 
BRANCH   7   6
ATOM      4  C   UNL     1      -5.229   3.548  25.467  0.00  0.00    +0.272 C 
ATOM      5  O   UNL     1      -5.245   4.373  25.485  0.00  0.00    -0.271 OA
ATOM      6  N   UNL     1      -4.539   3.153  25.248  0.00  0.00    -0.203 NA
BRANCH   4   3
ATOM      3  C   UNL     1      -5.904   3.118  25.669  0.00  0.00    +0.229 C 
BRANCH   3   2
ATOM      1  C   UNL     1      -6.436   2.052  26.458  0.00  0.00    +0.175 C 
ATOM      2  O   UNL     1      -5.926   2.696  26.378  0.00  0.00    -0.342 OA
ENDBRANCH   3   2
ENDBRANCH   4   3
ENDBRANCH   7   6
ENDBRANCH   8   7
BRANCH  12  13
ATOM     13  C   UNL     1      -1.416   2.121  23.384  0.00  0.00    +0.091 C 
BRANCH  13  14
ATOM     14  C   UNL     1      -0.959   1.540  23.749  0.00  0.00    +0.227 A 
ATOM     15  N   UNL     1      -0.149   1.586  23.903  0.00  0.00    -0.111 NA
ATOM     16  N   UNL     1       0.080   0.885  24.272  0.00  0.00    -0.107 NA
ATOM     17  C   UNL     1      -0.587   0.406  24.347  0.00  0.00    +0.252 A 
ATOM     18  O   UNL     1      -1.229   0.811  24.023  0.00  0.00    -0.419 OA
BRANCH  17  19
ATOM     19  C   UNL     1      -0.609  -0.346  24.686  0.00  0.00    +0.083 A 
ATOM     20  C   UNL     1      -0.386  -1.005  24.241  0.00  0.00    +0.007 A 
ATOM     21  C   UNL     1      -0.408  -1.757  24.579  0.00  0.00    +0.000 A 
ATOM     22  C   UNL     1      -0.653  -1.851  25.361  0.00  0.00    +0.002 A 
ATOM     23  C   UNL     1      -0.876  -1.192  25.806  0.00  0.00    +0.030 A 
ATOM     24  C   UNL     1      -0.854  -0.440  25.467  0.00  0.00    +0.145 A 
ATOM     25  F   UNL     1      -1.076   0.218  25.912  0.00  0.00    -0.204 F 
ENDBRANCH  17  19
ENDBRANCH  13  14
ENDBRANCH  12  13
TORSDOF 8
ENDMDL
MODEL 7
REMARK VINA RESULT:      -9.9      1.413      2.282
REMARK  Name = 
REMARK  8 active torsions:
REMARK  status: ('A' for Active; 'I' for Inactive)
REMARK    1  A    between atoms: O_2  and  C_3
REMARK    2  A    between atoms: C_3  and  C_4
REMARK    3  A    between atoms: N_6  and  C_7
REMARK    4  A    between atoms: C_7  and  C_8
REMARK    5  A    between atoms: C_12  and  C_13
REMARK    6  A    between atoms: C_13  and  C_14
REMARK    7  A    between atoms: C_17  and  C_19
REMARK    8  A    between atoms: C_27  and  C_28
REMARK                            x       y       z     vdW  Elec       q    Type
REMARK                         _______ _______ _______ _____ _____    ______ ____
ROOT
ATOM      8  C   UNL     1      -2.630  -0.101  24.526  0.00  0.00    +0.043 C 
ATOM      9  C   UNL     1      -1.930  -0.473  24.754  0.00  0.00    -0.033 C 
ATOM     10  C   UNL     1      -1.247  -0.026  24.878  0.00  0.00    -0.048 C 
ATOM     11  C   UNL     1      -0.547  -0.398  25.107  0.00  0.00    +0.026 C 
ATOM     12  C   UNL     1      -1.265   0.792  24.774  0.00  0.00    +0.027 C 
ATOM     26  C   UNL     1      -1.966   1.163  24.545  0.00  0.00    +0.005 C 
ATOM     27  C   UNL     1      -2.648   0.717  24.421  0.00  0.00    +0.006 C 
ENDROOT
BRANCH  27  28
ATOM     28  C   UNL     1      -3.348   1.088  24.193  0.00  0.00    +0.000 C 
ATOM     29  C   UNL     1      -3.917   1.279  24.758  0.00  0.00    +0.000 C 
ATOM     30  C   UNL     1      -3.480   1.267  23.398  0.00  0.00    +0.000 C 
ENDBRANCH  27  28
BRANCH   8   7
ATOM      7  C   UNL     1      -3.313  -0.549  24.402  0.00  0.00    +0.119 C 
BRANCH   7   6
ATOM      4  C   UNL     1      -3.928  -1.836  24.325  0.00  0.00    +0.272 C 
ATOM      5  O   UNL     1      -4.520  -1.524  23.842  0.00  0.00    -0.271 OA
ATOM      6  N   UNL     1      -3.324  -1.348  24.605  0.00  0.00    -0.203 NA
BRANCH   4   3
ATOM      3  C   UNL     1      -3.939  -2.635  24.528  0.00  0.00    +0.229 C 
BRANCH   3   2
ATOM      1  C   UNL     1      -3.591  -3.925  24.022  0.00  0.00    +0.175 C 
ATOM      2  O   UNL     1      -3.993  -3.210  23.938  0.00  0.00    -0.342 OA
ENDBRANCH   3   2
ENDBRANCH   4   3
ENDBRANCH   7   6
ENDBRANCH   8   7
BRANCH  12  13
ATOM     13  C   UNL     1      -0.583   1.238  24.897  0.00  0.00    +0.091 C 
BRANCH  13  14
ATOM     14  C   UNL     1      -0.635   1.988  25.238  0.00  0.00    +0.227 A 
ATOM     15  N   UNL     1      -0.460   2.177  26.023  0.00  0.00    -0.111 NA
ATOM     16  N   UNL     1      -0.589   2.985  26.124  0.00  0.00    -0.107 NA
ATOM     17  C   UNL     1      -0.843   3.295  25.404  0.00  0.00    +0.252 A 
ATOM     18  O   UNL     1      -0.872   2.679  24.857  0.00  0.00    -0.419 OA
BRANCH  17  19
ATOM     19  C   UNL     1      -1.036   4.084  25.256  0.00  0.00    +0.083 A 
ATOM     20  C   UNL     1      -0.513   4.563  24.833  0.00  0.00    +0.007 A 
ATOM     21  C   UNL     1      -0.705   5.352  24.685  0.00  0.00    +0.000 A 
ATOM     22  C   UNL     1      -1.419   5.662  24.959  0.00  0.00    +0.002 A 
ATOM     23  C   UNL     1      -1.941   5.183  25.382  0.00  0.00    +0.030 A 
ATOM     24  C   UNL     1      -1.749   4.393  25.530  0.00  0.00    +0.145 A 
ATOM     25  F   UNL     1      -2.272   3.915  25.953  0.00  0.00    -0.204 F 
ENDBRANCH  17  19
ENDBRANCH  13  14
ENDBRANCH  12  13
TORSDOF 8
ENDMDL
MODEL 8
REMARK VINA RESULT:      -9.6      2.092      5.300
REMARK  Name = 
REMARK  8 active torsions:
REMARK  status: ('A' for Active; 'I' for Inactive)
REMARK    1  A    between atoms: O_2  and  C_3
REMARK    2  A    between atoms: C_3  and  C_4
REMARK    3  A    between atoms: N_6  and  C_7
REMARK    4  A    between atoms: C_7  and  C_8
REMARK    5  A    between atoms: C_12  and  C_13
REMARK    6  A    between atoms: C_13  and  C_14
REMARK    7  A    between atoms: C_17  and  C_19
REMARK    8  A    between atoms: C_27  and  C_28
REMARK                            x       y       z     vdW  Elec       q    Type
REMARK                         _______ _______ _______ _____ _____    ______ ____
ROOT
ATOM      8  C   UNL     1      -2.253   2.289  24.360  0.00  0.00    +0.043 C 
ATOM      9  C   UNL     1      -1.784   2.274  25.038  0.00  0.00    -0.033 C 
ATOM     10  C   UNL     1      -1.225   1.674  25.139  0.00  0.00    -0.048 C 
ATOM     11  C   UNL     1      -0.756   1.658  25.817  0.00  0.00    +0.026 C 
ATOM     12  C   UNL     1      -1.137   1.091  24.562  0.00  0.00    +0.027 C 
ATOM     26  C   UNL     1      -1.607   1.108  23.884  0.00  0.00    +0.005 C 
ATOM     27  C   UNL     1      -2.165   1.706  23.783  0.00  0.00    +0.006 C 
ENDROOT
BRANCH  27  28
ATOM     28  C   UNL     1      -2.635   1.723  23.105  0.00  0.00    +0.000 C 
ATOM     29  C   UNL     1      -2.382   2.134  22.437  0.00  0.00    +0.000 C 
ATOM     30  C   UNL     1      -3.359   1.328  23.096  0.00  0.00    +0.000 C 
ENDBRANCH  27  28
BRANCH   8   7
ATOM      7  C   UNL     1      -2.811   2.889  24.259  0.00  0.00    +0.119 C 
BRANCH   7   6
ATOM      4  C   UNL     1      -3.785   3.752  24.850  0.00  0.00    +0.272 C 
ATOM      5  O   UNL     1      -3.655   4.307  24.254  0.00  0.00    -0.271 OA
ATOM      6  N   UNL     1      -3.363   3.043  24.853  0.00  0.00    -0.203 NA
BRANCH   4   3
ATOM      3  C   UNL     1      -4.337   3.906  25.444  0.00  0.00    +0.229 C 
BRANCH   3   2
ATOM      1  C   UNL     1      -5.681   3.590  25.813  0.00  0.00    +0.175 C 
ATOM      2  O   UNL     1      -5.143   3.899  25.269  0.00  0.00    -0.342 OA
ENDBRANCH   3   2
ENDBRANCH   4   3
ENDBRANCH   7   6
ENDBRANCH   8   7
BRANCH  12  13
ATOM     13  C   UNL     1      -0.580   0.492  24.664  0.00  0.00    +0.091 C 
BRANCH  13  14
ATOM     14  C   UNL     1      -0.826  -0.286  24.784  0.00  0.00    +0.227 A 
ATOM     15  N   UNL     1      -0.348  -0.914  25.025  0.00  0.00    -0.111 NA
ATOM     16  N   UNL     1      -0.819  -1.589  25.075  0.00  0.00    -0.107 NA
ATOM     17  C   UNL     1      -1.588  -1.378  24.865  0.00  0.00    +0.252 A 
ATOM     18  O   UNL     1      -1.592  -0.573  24.685  0.00  0.00    -0.419 OA
BRANCH  17  19
ATOM     19  C   UNL     1      -2.240  -1.884  24.838  0.00  0.00    +0.083 A 
ATOM     20  C   UNL     1      -2.294  -2.457  24.246  0.00  0.00    +0.007 A 
ATOM     21  C   UNL     1      -2.945  -2.962  24.219  0.00  0.00    +0.000 A 
ATOM     22  C   UNL     1      -3.543  -2.896  24.784  0.00  0.00    +0.002 A 
ATOM     23  C   UNL     1      -3.489  -2.324  25.377  0.00  0.00    +0.030 A 
ATOM     24  C   UNL     1      -2.837  -1.818  25.403  0.00  0.00    +0.145 A 
ATOM     25  F   UNL     1      -2.784  -1.246  25.995  0.00  0.00    -0.204 F 
ENDBRANCH  17  19
ENDBRANCH  13  14
ENDBRANCH  12  13
TORSDOF 8
ENDMDL
MODEL 9
REMARK VINA RESULT:      -9.6      2.103      5.677
REMARK  Name = 
REMARK  8 active torsions:
REMARK  status: ('A' for Active; 'I' for Inactive)
REMARK    1  A    between atoms: O_2  and  C_3
REMARK    2  A    between atoms: C_3  and  C_4
REMARK    3  A    between atoms: N_6  and  C_7
REMARK    4  A    between atoms: C_7  and  C_8
REMARK    5  A    between atoms: C_12  and  C_13
REMARK    6  A    between atoms: C_13  and  C_14
REMARK    7  A    between atoms: C_17  and  C_19
REMARK    8  A    between atoms: C_27  and  C_28
REMARK                            x       y       z     vdW  Elec       q    Type
REMARK                         _______ _______ _______ _____ _____    ______ ____
ROOT
ATOM      8  C   UNL     1      -1.077   2.594  24.908  0.00  0.00    +0.043 C 
ATOM      9  C   UNL     1      -1.379   2.368  24.174  0.00  0.00    -0.033 C 
ATOM     10  C   UNL     1      -1.168   1.639  23.849  0.00  0.00    -0.048 C 
ATOM     11  C   UNL     1      -1.470   1.412  23.116  0.00  0.00    +0.026 C 
ATOM     12  C   UNL     1      -0.654   1.138  24.257  0.00  0.00    +0.027 C 
ATOM     26  C   UNL     1      -0.353   1.366  24.990  0.00  0.00    +0.005 C 
ATOM     27  C   UNL     1      -0.563   2.093  25.316  0.00  0.00    +0.006 C 
ENDROOT
BRANCH  27  28
ATOM     28  C   UNL     1      -0.262   2.321  26.049  0.00  0.00    +0.000 C 
ATOM     29  C   UNL     1      -0.650   2.101  26.742  0.00  0.00    +0.000 C 
ATOM     30  C   UNL     1       0.430   2.770  26.089  0.00  0.00    +0.000 C 
ENDBRANCH  27  28
BRANCH   8   7
ATOM      7  C   UNL     1      -1.288   3.323  25.233  0.00  0.00    +0.119 C 
BRANCH   7   6
ATOM      4  C   UNL     1      -2.285   4.338  25.369  0.00  0.00    +0.272 C 
ATOM      5  O   UNL     1      -1.693   4.910  25.437  0.00  0.00    -0.271 OA
ATOM      6  N   UNL     1      -2.082   3.544  25.267  0.00  0.00    -0.203 NA
BRANCH   4   3
ATOM      3  C   UNL     1      -3.078   4.559  25.402  0.00  0.00    +0.229 C 
BRANCH   3   2
ATOM      1  C   UNL     1      -4.398   4.103  25.706  0.00  0.00    +0.175 C 
ATOM      2  O   UNL     1      -3.598   4.155  25.900  0.00  0.00    -0.342 OA
ENDBRANCH   3   2
ENDBRANCH   4   3
ENDBRANCH   7   6
ENDBRANCH   8   7
BRANCH  12  13
ATOM     13  C   UNL     1      -0.444   0.411  23.931  0.00  0.00    +0.091 C 
BRANCH  13  14
ATOM     14  C   UNL     1      -0.716  -0.290  24.273  0.00  0.00    +0.227 A 
ATOM     15  N   UNL     1      -0.253  -0.849  24.666  0.00  0.00    -0.111 NA
ATOM     16  N   UNL     1      -0.749  -1.458  24.917  0.00  0.00    -0.107 NA
ATOM     17  C   UNL     1      -1.517  -1.275  24.680  0.00  0.00    +0.252 A 
ATOM     18  O   UNL     1      -1.497  -0.553  24.282  0.00  0.00    -0.419 OA
BRANCH  17  19
ATOM     19  C   UNL     1      -2.190  -1.734  24.817  0.00  0.00    +0.083 A 
ATOM     20  C   UNL     1      -2.351  -2.383  24.333  0.00  0.00    +0.007 A 
ATOM     21  C   UNL     1      -3.023  -2.842  24.469  0.00  0.00    +0.000 A 
ATOM     22  C   UNL     1      -3.534  -2.652  25.089  0.00  0.00    +0.002 A 
ATOM     23  C   UNL     1      -3.372  -2.004  25.573  0.00  0.00    +0.030 A 
ATOM     24  C   UNL     1      -2.700  -1.545  25.436  0.00  0.00    +0.145 A 
ATOM     25  F   UNL     1      -2.539  -0.896  25.921  0.00  0.00    -0.204 F 
ENDBRANCH  17  19
ENDBRANCH  13  14
ENDBRANCH  12  13
TORSDOF 8
ENDMDL
MODEL 10
REMARK VINA RESULT:      -7.2     14.340     15.169
REMARK  Name = 
REMARK  8 active torsions:
REMARK  status: ('A' for Active; 'I' for Inactive)
REMARK    1  A    between atoms: O_2  and  C_3
REMARK    2  A    between atoms: C_3  and  C_4
REMARK    3  A    between atoms: N_6  and  C_7
REMARK    4  A    between atoms: C_7  and  C_8
REMARK    5  A    between atoms: C_12  and  C_13
REMARK    6  A    between atoms: C_13  and  C_14
REMARK    7  A    between atoms: C_17  and  C_19
REMARK    8  A    between atoms: C_27  and  C_28
REMARK                            x       y       z     vdW  Elec       q    Type
REMARK                         _______ _______ _______ _____ _____    ______ ____
ROOT
ATOM      8  C   UNL     1      -4.953 -10.373  16.483  0.00  0.00    +0.043 C 
ATOM      9  C   UNL     1      -4.850 -10.461  17.296  0.00  0.00    -0.033 C 
ATOM     10  C   UNL     1      -5.498 -10.387  17.804  0.00  0.00    -0.048 C 
ATOM     11  C   UNL     1      -5.395 -10.475  18.617  0.00  0.00    +0.026 C 
ATOM     12  C   UNL     1      -6.246 -10.226  17.497  0.00  0.00    +0.027 C 
ATOM     26  C   UNL     1      -6.347 -10.138  16.682  0.00  0.00    +0.005 C 
ATOM     27  C   UNL     1      -5.701 -10.211  16.176  0.00  0.00    +0.006 C 
ENDROOT
BRANCH  27  28
ATOM     28  C   UNL     1      -5.803 -10.124  15.361  0.00  0.00    +0.000 C 
ATOM     29  C   UNL     1      -5.969 -10.781  14.893  0.00  0.00    +0.000 C 
ATOM     30  C   UNL     1      -5.737  -9.377  15.016  0.00  0.00    +0.000 C 
ENDBRANCH  27  28
BRANCH   8   7
ATOM      7  C   UNL     1      -4.305 -10.447  15.975  0.00  0.00    +0.119 C 
BRANCH   7   6
ATOM      4  C   UNL     1      -2.898 -10.597  15.780  0.00  0.00    +0.272 C 
ATOM      5  O   UNL     1      -3.016 -10.646  14.965  0.00  0.00    -0.271 OA
ATOM      6  N   UNL     1      -3.543 -10.497  16.285  0.00  0.00    -0.203 NA
BRANCH   4   3
ATOM      3  C   UNL     1      -2.135 -10.647  16.090  0.00  0.00    +0.229 C 
BRANCH   3   2
ATOM      1  C   UNL     1      -0.730 -10.427  15.956  0.00  0.00    +0.175 C 
ATOM      2  O   UNL     1      -1.488 -10.418  15.631  0.00  0.00    -0.342 OA
ENDBRANCH   3   2
ENDBRANCH   4   3
ENDBRANCH   7   6
ENDBRANCH   8   7
BRANCH  12  13
ATOM     13  C   UNL     1      -6.892 -10.152  18.003  0.00  0.00    +0.091 C 
BRANCH  13  14
ATOM     14  C   UNL     1      -7.640  -9.986  17.698  0.00  0.00    +0.227 A 
ATOM     15  N   UNL     1      -8.219 -10.543  17.505  0.00  0.00    -0.111 NA
ATOM     16  N   UNL     1      -8.878 -10.136  17.219  0.00  0.00    -0.107 NA
ATOM     17  C   UNL     1      -8.706  -9.330  17.236  0.00  0.00    +0.252 A 
ATOM     18  O   UNL     1      -7.942  -9.238  17.531  0.00  0.00    -0.419 OA
BRANCH  17  19
ATOM     19  C   UNL     1      -9.211  -8.721  16.998  0.00  0.00    +0.083 A 
ATOM     20  C   UNL     1      -9.603  -8.266  17.564  0.00  0.00    +0.007 A 
ATOM     21  C   UNL     1     -10.107  -7.658  17.328  0.00  0.00    +0.000 A 
ATOM     22  C   UNL     1     -10.220  -7.505  16.524  0.00  0.00    +0.002 A 
ATOM     23  C   UNL     1      -9.828  -7.960  15.958  0.00  0.00    +0.030 A 
ATOM     24  C   UNL     1      -9.323  -8.569  16.196  0.00  0.00    +0.145 A 
ATOM     25  F   UNL     1      -8.932  -9.023  15.629  0.00  0.00    -0.204 F 
ENDBRANCH  17  19
ENDBRANCH  13  14
ENDBRANCH  12  13
TORSDOF 8
ENDMDL
