MODEL 1
REMARK VINA RESULT:     -11.7      0.000      0.000
REMARK  Name = 
REMARK  8 active torsions:
REMARK  status: ('A' for Active; 'I' for Inactive)
REMARK    1  A    between atoms: C_5  and  C_6
REMARK    2  A    between atoms: C_6  and  C_7
REMARK    3  A    between atoms: C_10  and  C_11
REMARK    4  A    between atoms: C_11  and  O_12
REMARK    5  A    between atoms: O_12  and  C_13
REMARK    6  A    between atoms: C_21  and  C_22
REMARK    7  A    between atoms: C_22  and  N_23
REMARK    8  A    between atoms: N_23  and  C_24
REMARK                            x       y       z     vdW  Elec       q    Type
REMARK                         _______ _______ _______ _____ _____    ______ ____
ROOT
ATOM      1  O   UNL     1      -1.965   4.825  25.119  0.00  0.00    -0.220 OA
ATOM      2  C   UNL     1      -1.648   4.079  25.276  0.00  0.00    +0.180 C 
ATOM      3  C   UNL     1      -0.831   3.968  25.268  0.00  0.00    +0.038 C 
ATOM      4  C   UNL     1      -0.514   3.223  25.425  0.00  0.00    +0.033 C 
ATOM      5  C   UNL     1      -1.016   2.589  25.589  0.00  0.00    +0.121 C 
ATOM     20  O   UNL     1      -1.832   2.700  25.596  0.00  0.00    -0.354 OA
ATOM     21  C   UNL     1      -2.149   3.445  25.440  0.00  0.00    +0.163 C 
ENDROOT
BRANCH   5   6
ATOM      6  C   UNL     1      -0.699   1.842  25.746  0.00  0.00    +0.079 C 
BRANCH   6   7
ATOM      7  C   UNL     1      -0.866   1.210  25.243  0.00  0.00    +0.103 A 
ATOM      8  N   UNL     1      -0.561   1.099  24.485  0.00  0.00    -0.082 NA
ATOM      9  O   UNL     1      -0.873   0.397  24.184  0.00  0.00    -0.354 OA
ATOM     10  C   UNL     1      -1.371   0.074  24.756  0.00  0.00    +0.198 A 
ATOM     19  C   UNL     1      -1.366   0.576  25.411  0.00  0.00    +0.057 A 
BRANCH  10  11
ATOM     11  C   UNL     1      -1.798  -0.628  24.686  0.00  0.00    +0.272 C 
BRANCH  11  12
ATOM     12  O   UNL     1      -2.607  -0.637  24.850  0.00  0.00    -0.467 OA
BRANCH  12  13
ATOM     13  C   UNL     1      -3.065  -1.287  24.634  0.00  0.00    +0.139 A 
ATOM     14  C   UNL     1      -3.716  -1.186  24.136  0.00  0.00    +0.037 A 
ATOM     15  C   UNL     1      -4.174  -1.837  23.919  0.00  0.00    +0.003 A 
ATOM     16  C   UNL     1      -3.982  -2.589  24.200  0.00  0.00    +0.000 A 
ATOM     17  C   UNL     1      -3.331  -2.690  24.697  0.00  0.00    +0.003 A 
ATOM     18  C   UNL     1      -2.873  -2.039  24.914  0.00  0.00    +0.037 A 
ENDBRANCH  12  13
ENDBRANCH  11  12
ENDBRANCH  10  11
ENDBRANCH   6   7
ENDBRANCH   5   6
BRANCH  21  22
ATOM     22  C   UNL     1      -2.967   3.556  25.447  0.00  0.00    +0.121 C 
BRANCH  22  23
ATOM     23  N   UNL     1      -3.437   3.197  24.873  0.00  0.00    -0.217 NA
BRANCH  23  24
ATOM     24  C   UNL     1      -4.231   3.034  25.032  0.00  0.00    +0.078 C 
ATOM     25  C   UNL     1      -4.574   2.340  24.747  0.00  0.00    +0.050 C 
ATOM     26  C   UNL     1      -5.367   2.178  24.906  0.00  0.00    +0.144 C 
ATOM     27  O   UNL     1      -5.817   2.710  25.349  0.00  0.00    -0.354 OA
ATOM     28  C   UNL     1      -5.473   3.403  25.634  0.00  0.00    +0.144 C 
ATOM     29  C   UNL     1      -4.679   3.565  25.475  0.00  0.00    +0.050 C 
ENDBRANCH  23  24
ENDBRANCH  22  23
ENDBRANCH  21  22
TORSDOF 8
ENDMDL
MODEL 2
REMARK VINA RESULT:     -11.2      1.150      3.327
REMARK  Name = 
REMARK  8 active torsions:
REMARK  status: ('A' for Active; 'I' for Inactive)
REMARK    1  A    between atoms: C_5  and  C_6
REMARK    2  A    between atoms: C_6  and  C_7
REMARK    3  A    between atoms: C_10  and  C_11
REMARK    4  A    between atoms: C_11  and  O_12
REMARK    5  A    between atoms: O_12  and  C_13
REMARK    6  A    between atoms: C_21  and  C_22
REMARK    7  A    between atoms: C_22  and  N_23
REMARK    8  A    between atoms: N_23  and  C_24
REMARK                            x       y       z     vdW  Elec       q    Type
REMARK                         _______ _______ _______ _____ _____    ______ ____
ROOT
ATOM      1  O   UNL     1      -1.699   4.340  25.782  0.00  0.00    -0.220 OA
ATOM      2  C   UNL     1      -2.370   3.968  25.478  0.00  0.00    +0.180 C 
ATOM      3  C   UNL     1      -3.120   4.254  25.665  0.00  0.00    +0.038 C 
ATOM      4  C   UNL     1      -3.791   3.883  25.362  0.00  0.00    +0.033 C 
ATOM      5  C   UNL     1      -3.711   3.226  24.870  0.00  0.00    +0.121 C 
ATOM     20  O   UNL     1      -2.961   2.940  24.683  0.00  0.00    -0.354 OA
ATOM     21  C   UNL     1      -2.290   3.311  24.987  0.00  0.00    +0.163 C 
ENDROOT
BRANCH   5   6
ATOM      6  C   UNL     1      -4.383   2.854  24.566  0.00  0.00    +0.079 C 
BRANCH   6   7
ATOM      7  C   UNL     1      -4.587   2.097  24.822  0.00  0.00    +0.103 A 
ATOM      8  N   UNL     1      -5.031   1.915  25.492  0.00  0.00    -0.082 NA
ATOM      9  O   UNL     1      -5.102   1.094  25.537  0.00  0.00    -0.354 OA
ATOM     10  C   UNL     1      -4.701   0.769  24.895  0.00  0.00    +0.198 A 
ATOM     19  C   UNL     1      -4.383   1.389  24.452  0.00  0.00    +0.057 A 
BRANCH  10  11
ATOM     11  C   UNL     1      -4.631  -0.035  24.723  0.00  0.00    +0.272 C 
BRANCH  11  12
ATOM     12  O   UNL     1      -3.899  -0.409  24.794  0.00  0.00    -0.467 OA
BRANCH  12  13
ATOM     13  C   UNL     1      -3.835  -1.220  24.654  0.00  0.00    +0.139 A 
ATOM     14  C   UNL     1      -4.199  -1.554  23.993  0.00  0.00    +0.037 A 
ATOM     15  C   UNL     1      -4.135  -2.364  23.853  0.00  0.00    +0.003 A 
ATOM     16  C   UNL     1      -3.707  -2.841  24.374  0.00  0.00    +0.000 A 
ATOM     17  C   UNL     1      -3.343  -2.506  25.034  0.00  0.00    +0.003 A 
ATOM     18  C   UNL     1      -3.407  -1.696  25.174  0.00  0.00    +0.037 A 
ENDBRANCH  12  13
ENDBRANCH  11  12
ENDBRANCH  10  11
ENDBRANCH   6   7
ENDBRANCH   5   6
BRANCH  21  22
ATOM     22  C   UNL     1      -1.539   3.024  24.799  0.00  0.00    +0.121 C 
BRANCH  22  23
ATOM     23  N   UNL     1      -1.309   2.275  25.053  0.00  0.00    -0.217 NA
BRANCH  23  24
ATOM     24  C   UNL     1      -0.694   1.880  24.669  0.00  0.00    +0.078 C 
ATOM     25  C   UNL     1       0.062   2.210  24.653  0.00  0.00    +0.050 C 
ATOM     26  C   UNL     1       0.676   1.815  24.269  0.00  0.00    +0.144 C 
ATOM     27  O   UNL     1       0.535   1.090  23.901  0.00  0.00    -0.354 OA
ATOM     28  C   UNL     1      -0.222   0.761  23.917  0.00  0.00    +0.144 C 
ATOM     29  C   UNL     1      -0.836   1.156  24.301  0.00  0.00    +0.050 C 
ENDBRANCH  23  24
ENDBRANCH  22  23
ENDBRANCH  21  22
TORSDOF 8
ENDMDL
MODEL 3
REMARK VINA RESULT:     -10.9      1.096      4.313
REMARK  Name = 
REMARK  8 active torsions:
REMARK  status: ('A' for Active; 'I' for Inactive)
REMARK    1  A    between atoms: C_5  and  C_6
REMARK    2  A    between atoms: C_6  and  C_7
REMARK    3  A    between atoms: C_10  and  C_11
REMARK    4  A    between atoms: C_11  and  O_12
REMARK    5  A    between atoms: O_12  and  C_13
REMARK    6  A    between atoms: C_21  and  C_22
REMARK    7  A    between atoms: C_22  and  N_23
REMARK    8  A    between atoms: N_23  and  C_24
REMARK                            x       y       z     vdW  Elec       q    Type
REMARK                         _______ _______ _______ _____ _____    ______ ____
ROOT
ATOM      1  O   UNL     1      -4.340  -1.671  24.179  0.00  0.00    -0.220 OA
ATOM      2  C   UNL     1      -3.641  -1.409  24.532  0.00  0.00    +0.180 C 
ATOM      3  C   UNL     1      -2.996  -1.918  24.597  0.00  0.00    +0.038 C 
ATOM      4  C   UNL     1      -2.297  -1.657  24.949  0.00  0.00    +0.033 C 
ATOM      5  C   UNL     1      -2.245  -0.886  25.237  0.00  0.00    +0.121 C 
ATOM     20  O   UNL     1      -2.890  -0.377  25.172  0.00  0.00    -0.354 OA
ATOM     21  C   UNL     1      -3.588  -0.638  24.820  0.00  0.00    +0.163 C 
ENDROOT
BRANCH   5   6
ATOM      6  C   UNL     1      -1.546  -0.624  25.590  0.00  0.00    +0.079 C 
BRANCH   6   7
ATOM      7  C   UNL     1      -1.143   0.024  25.276  0.00  0.00    +0.103 A 
ATOM      8  N   UNL     1      -0.576  -0.001  24.677  0.00  0.00    -0.082 NA
ATOM      9  O   UNL     1      -0.319   0.771  24.538  0.00  0.00    -0.354 OA
ATOM     10  C   UNL     1      -0.726   1.272  25.050  0.00  0.00    +0.198 A 
ATOM     19  C   UNL     1      -1.235   0.810  25.507  0.00  0.00    +0.057 A 
BRANCH  10  11
ATOM     11  C   UNL     1      -0.639   2.090  25.098  0.00  0.00    +0.272 C 
BRANCH  11  12
ATOM     12  O   UNL     1      -1.168   2.585  24.703  0.00  0.00    -0.467 OA
BRANCH  12  13
ATOM     13  C   UNL     1      -1.165   3.396  24.852  0.00  0.00    +0.139 A 
ATOM     14  C   UNL     1      -1.787   3.740  25.272  0.00  0.00    +0.037 A 
ATOM     15  C   UNL     1      -1.783   4.551  25.422  0.00  0.00    +0.003 A 
ATOM     16  C   UNL     1      -1.159   5.019  25.152  0.00  0.00    +0.000 A 
ATOM     17  C   UNL     1      -0.538   4.674  24.732  0.00  0.00    +0.003 A 
ATOM     18  C   UNL     1      -0.541   3.863  24.582  0.00  0.00    +0.037 A 
ENDBRANCH  12  13
ENDBRANCH  11  12
ENDBRANCH  10  11
ENDBRANCH   6   7
ENDBRANCH   5   6
BRANCH  21  22
ATOM     22  C   UNL     1      -4.234  -0.128  24.755  0.00  0.00    +0.121 C 
BRANCH  22  23
ATOM     23  N   UNL     1      -4.316   0.501  25.281  0.00  0.00    -0.217 NA
BRANCH  23  24
ATOM     24  C   UNL     1      -4.832   1.122  25.105  0.00  0.00    +0.078 C 
ATOM     25  C   UNL     1      -4.591   1.727  24.599  0.00  0.00    +0.050 C 
ATOM     26  C   UNL     1      -5.106   2.347  24.423  0.00  0.00    +0.144 C 
ATOM     27  O   UNL     1      -5.863   2.361  24.753  0.00  0.00    -0.354 OA
ATOM     28  C   UNL     1      -6.103   1.755  25.259  0.00  0.00    +0.144 C 
ATOM     29  C   UNL     1      -5.588   1.135  25.435  0.00  0.00    +0.050 C 
ENDBRANCH  23  24
ENDBRANCH  22  23
ENDBRANCH  21  22
TORSDOF 8
ENDMDL
MODEL 4
REMARK VINA RESULT:     -10.6      1.353      4.545
REMARK  Name = 
REMARK  8 active torsions:
REMARK  status: ('A' for Active; 'I' for Inactive)
REMARK    1  A    between atoms: C_5  and  C_6
REMARK    2  A    between atoms: C_6  and  C_7
REMARK    3  A    between atoms: C_10  and  C_11
REMARK    4  A    between atoms: C_11  and  O_12
REMARK    5  A    between atoms: O_12  and  C_13
REMARK    6  A    between atoms: C_21  and  C_22
REMARK    7  A    between atoms: C_22  and  N_23
REMARK    8  A    between atoms: N_23  and  C_24
REMARK                            x       y       z     vdW  Elec       q    Type
REMARK                         _______ _______ _______ _____ _____    ______ ____
ROOT
ATOM      1  O   UNL     1       0.154  -0.917  24.216  0.00  0.00    -0.220 OA
ATOM      2  C   UNL     1      -0.613  -1.048  24.494  0.00  0.00    +0.180 C 
ATOM      3  C   UNL     1      -0.971  -1.782  24.383  0.00  0.00    +0.038 C 
ATOM      4  C   UNL     1      -1.736  -1.914  24.660  0.00  0.00    +0.033 C 
ATOM      5  C   UNL     1      -2.143  -1.311  25.049  0.00  0.00    +0.121 C 
ATOM     20  O   UNL     1      -1.784  -0.577  25.161  0.00  0.00    -0.354 OA
ATOM     21  C   UNL     1      -1.019  -0.445  24.883  0.00  0.00    +0.163 C 
ENDROOT
BRANCH   5   6
ATOM      6  C   UNL     1      -2.909  -1.443  25.327  0.00  0.00    +0.079 C 
BRANCH   6   7
ATOM      7  C   UNL     1      -3.538  -0.999  25.030  0.00  0.00    +0.103 A 
ATOM      8  N   UNL     1      -3.973  -1.170  24.351  0.00  0.00    -0.082 NA
ATOM      9  O   UNL     1      -4.546  -0.583  24.261  0.00  0.00    -0.354 OA
ATOM     10  C   UNL     1      -4.465  -0.050  24.884  0.00  0.00    +0.198 A 
ATOM     19  C   UNL     1      -3.842  -0.307  25.360  0.00  0.00    +0.057 A 
BRANCH  10  11
ATOM     11  C   UNL     1      -4.926   0.622  25.010  0.00  0.00    +0.272 C 
BRANCH  11  12
ATOM     12  O   UNL     1      -4.764   1.317  24.596  0.00  0.00    -0.467 OA
BRANCH  12  13
ATOM     13  C   UNL     1      -4.978   2.047  24.915  0.00  0.00    +0.139 A 
ATOM     14  C   UNL     1      -4.463   2.690  24.856  0.00  0.00    +0.037 A 
ATOM     15  C   UNL     1      -4.677   3.419  25.176  0.00  0.00    +0.003 A 
ATOM     16  C   UNL     1      -5.405   3.508  25.554  0.00  0.00    +0.000 A 
ATOM     17  C   UNL     1      -5.919   2.865  25.613  0.00  0.00    +0.003 A 
ATOM     18  C   UNL     1      -5.705   2.135  25.294  0.00  0.00    +0.037 A 
ENDBRANCH  12  13
ENDBRANCH  11  12
ENDBRANCH  10  11
ENDBRANCH   6   7
ENDBRANCH   5   6
BRANCH  21  22
ATOM     22  C   UNL     1      -0.660   0.290  24.994  0.00  0.00    +0.121 C 
BRANCH  22  23
ATOM     23  N   UNL     1      -1.048   0.876  25.425  0.00  0.00    -0.217 NA
BRANCH  23  24
ATOM     24  C   UNL     1      -0.741   1.643  25.447  0.00  0.00    +0.078 C 
ATOM     25  C   UNL     1      -0.875   2.159  24.817  0.00  0.00    +0.050 C 
ATOM     26  C   UNL     1      -0.568   2.924  24.840  0.00  0.00    +0.144 C 
ATOM     27  O   UNL     1      -0.127   3.174  25.492  0.00  0.00    -0.354 OA
ATOM     28  C   UNL     1       0.006   2.657  26.121  0.00  0.00    +0.144 C 
ATOM     29  C   UNL     1      -0.300   1.891  26.098  0.00  0.00    +0.050 C 
ENDBRANCH  23  24
ENDBRANCH  22  23
ENDBRANCH  21  22
TORSDOF 8
ENDMDL
MODEL 5
REMARK VINA RESULT:     -10.5      1.399      3.377
REMARK  Name = 
REMARK  8 active torsions:
REMARK  status: ('A' for Active; 'I' for Inactive)
REMARK    1  A    between atoms: C_5  and  C_6
REMARK    2  A    between atoms: C_6  and  C_7
REMARK    3  A    between atoms: C_10  and  C_11
REMARK    4  A    between atoms: C_11  and  O_12
REMARK    5  A    between atoms: O_12  and  C_13
REMARK    6  A    between atoms: C_21  and  C_22
REMARK    7  A    between atoms: C_22  and  N_23
REMARK    8  A    between atoms: N_23  and  C_24
REMARK                            x       y       z     vdW  Elec       q    Type
REMARK                         _______ _______ _______ _____ _____    ______ ____
ROOT
ATOM      1  O   UNL     1      -4.861   4.302  26.210  0.00  0.00    -0.220 OA
ATOM      2  C   UNL     1      -4.894   3.604  25.770  0.00  0.00    +0.180 C 
ATOM      3  C   UNL     1      -5.599   3.179  25.723  0.00  0.00    +0.038 C 
ATOM      4  C   UNL     1      -5.633   2.482  25.283  0.00  0.00    +0.033 C 
ATOM      5  C   UNL     1      -4.960   2.211  24.891  0.00  0.00    +0.121 C 
ATOM     20  O   UNL     1      -4.255   2.635  24.938  0.00  0.00    -0.354 OA
ATOM     21  C   UNL     1      -4.222   3.332  25.378  0.00  0.00    +0.163 C 
ENDROOT
BRANCH   5   6
ATOM      6  C   UNL     1      -4.993   1.513  24.450  0.00  0.00    +0.079 C 
BRANCH   6   7
ATOM      7  C   UNL     1      -4.639   0.826  24.739  0.00  0.00    +0.103 A 
ATOM      8  N   UNL     1      -4.876   0.402  25.405  0.00  0.00    -0.082 NA
ATOM      9  O   UNL     1      -4.369  -0.245  25.490  0.00  0.00    -0.354 OA
ATOM     10  C   UNL     1      -3.820  -0.219  24.876  0.00  0.00    +0.198 A 
ATOM     19  C   UNL     1      -3.987   0.442  24.412  0.00  0.00    +0.057 A 
BRANCH  10  11
ATOM     11  C   UNL     1      -3.211  -0.760  24.748  0.00  0.00    +0.272 C 
BRANCH  11  12
ATOM     12  O   UNL     1      -2.687  -0.944  25.359  0.00  0.00    -0.467 OA
BRANCH  12  13
ATOM     13  C   UNL     1      -1.977  -1.329  25.192  0.00  0.00    +0.139 A 
ATOM     14  C   UNL     1      -1.259  -0.983  25.406  0.00  0.00    +0.037 A 
ATOM     15  C   UNL     1      -0.550  -1.368  25.239  0.00  0.00    +0.003 A 
ATOM     16  C   UNL     1      -0.557  -2.100  24.857  0.00  0.00    +0.000 A 
ATOM     17  C   UNL     1      -1.275  -2.446  24.643  0.00  0.00    +0.003 A 
ATOM     18  C   UNL     1      -1.984  -2.060  24.810  0.00  0.00    +0.037 A 
ENDBRANCH  12  13
ENDBRANCH  11  12
ENDBRANCH  10  11
ENDBRANCH   6   7
ENDBRANCH   5   6
BRANCH  21  22
ATOM     22  C   UNL     1      -3.516   3.757  25.425  0.00  0.00    +0.121 C 
BRANCH  22  23
ATOM     23  N   UNL     1      -2.923   3.634  24.866  0.00  0.00    -0.217 NA
BRANCH  23  24
ATOM     24  C   UNL     1      -2.166   3.940  24.993  0.00  0.00    +0.078 C 
ATOM     25  C   UNL     1      -2.039   4.755  24.951  0.00  0.00    +0.050 C 
ATOM     26  C   UNL     1      -1.283   5.060  25.078  0.00  0.00    +0.144 C 
ATOM     27  O   UNL     1      -0.655   4.552  25.247  0.00  0.00    -0.354 OA
ATOM     28  C   UNL     1      -0.783   3.738  25.289  0.00  0.00    +0.144 C 
ATOM     29  C   UNL     1      -1.539   3.433  25.163  0.00  0.00    +0.050 C 
ENDBRANCH  23  24
ENDBRANCH  22  23
ENDBRANCH  21  22
TORSDOF 8
ENDMDL
MODEL 6
REMARK VINA RESULT:     -10.4      1.179      4.259
REMARK  Name = 
REMARK  8 active torsions:
REMARK  status: ('A' for Active; 'I' for Inactive)
REMARK    1  A    between atoms: C_5  and  C_6
REMARK    2  A    between atoms: C_6  and  C_7
REMARK    3  A    between atoms: C_10  and  C_11
REMARK    4  A    between atoms: C_11  and  O_12
REMARK    5  A    between atoms: O_12  and  C_13
REMARK    6  A    between atoms: C_21  and  C_22
REMARK    7  A    between atoms: C_22  and  N_23
REMARK    8  A    between atoms: N_23  and  C_24
REMARK                            x       y       z     vdW  Elec       q    Type
REMARK                         _______ _______ _______ _____ _____    ______ ____
ROOT
ATOM      1  O   UNL     1       0.512   0.152  23.258  0.00  0.00    -0.220 OA
ATOM      2  C   UNL     1       0.284   0.711  23.821  0.00  0.00    +0.180 C 
ATOM      3  C   UNL     1       0.680   1.432  23.871  0.00  0.00    +0.038 C 
ATOM      4  C   UNL     1       0.452   1.991  24.433  0.00  0.00    +0.033 C 
ATOM      5  C   UNL     1      -0.173   1.827  24.946  0.00  0.00    +0.121 C 
ATOM     20  O   UNL     1      -0.568   1.106  24.897  0.00  0.00    -0.354 OA
ATOM     21  C   UNL     1      -0.341   0.547  24.335  0.00  0.00    +0.163 C 
ENDROOT
BRANCH   5   6
ATOM      6  C   UNL     1      -0.401   2.386  25.510  0.00  0.00    +0.079 C 
BRANCH   6   7
ATOM      7  C   UNL     1      -1.053   2.871  25.369  0.00  0.00    +0.103 A 
ATOM      8  N   UNL     1      -1.040   3.603  24.989  0.00  0.00    -0.082 NA
ATOM      9  O   UNL     1      -1.812   3.894  24.969  0.00  0.00    -0.354 OA
ATOM     10  C   UNL     1      -2.301   3.343  25.336  0.00  0.00    +0.198 A 
ATOM     19  C   UNL     1      -1.833   2.710  25.583  0.00  0.00    +0.057 A 
BRANCH  10  11
ATOM     11  C   UNL     1      -3.117   3.410  25.438  0.00  0.00    +0.272 C 
BRANCH  11  12
ATOM     12  O   UNL     1      -3.629   3.192  24.829  0.00  0.00    -0.467 OA
BRANCH  12  13
ATOM     13  C   UNL     1      -4.395   2.943  25.004  0.00  0.00    +0.139 A 
ATOM     14  C   UNL     1      -4.669   2.219  24.716  0.00  0.00    +0.037 A 
ATOM     15  C   UNL     1      -5.435   1.969  24.890  0.00  0.00    +0.003 A 
ATOM     16  C   UNL     1      -5.929   2.442  25.353  0.00  0.00    +0.000 A 
ATOM     17  C   UNL     1      -5.654   3.165  25.640  0.00  0.00    +0.003 A 
ATOM     18  C   UNL     1      -4.888   3.415  25.466  0.00  0.00    +0.037 A 
ENDBRANCH  12  13
ENDBRANCH  11  12
ENDBRANCH  10  11
ENDBRANCH   6   7
ENDBRANCH   5   6
BRANCH  21  22
ATOM     22  C   UNL     1      -0.737  -0.175  24.285  0.00  0.00    +0.121 C 
BRANCH  22  23
ATOM     23  N   UNL     1      -1.209  -0.429  24.912  0.00  0.00    -0.217 NA
BRANCH  23  24
ATOM     24  C   UNL     1      -1.724  -1.066  24.808  0.00  0.00    +0.078 C 
ATOM     25  C   UNL     1      -1.425  -1.833  24.746  0.00  0.00    +0.050 C 
ATOM     26  C   UNL     1      -1.939  -2.469  24.642  0.00  0.00    +0.144 C 
ATOM     27  O   UNL     1      -2.754  -2.339  24.601  0.00  0.00    -0.354 OA
ATOM     28  C   UNL     1      -3.052  -1.573  24.663  0.00  0.00    +0.144 C 
ATOM     29  C   UNL     1      -2.537  -0.936  24.766  0.00  0.00    +0.050 C 
ENDBRANCH  23  24
ENDBRANCH  22  23
ENDBRANCH  21  22
TORSDOF 8
ENDMDL
MODEL 7
REMARK VINA RESULT:     -10.2      1.319      5.459
REMARK  Name = 
REMARK  8 active torsions:
REMARK  status: ('A' for Active; 'I' for Inactive)
REMARK    1  A    between atoms: C_5  and  C_6
REMARK    2  A    between atoms: C_6  and  C_7
REMARK    3  A    between atoms: C_10  and  C_11
REMARK    4  A    between atoms: C_11  and  O_12
REMARK    5  A    between atoms: O_12  and  C_13
REMARK    6  A    between atoms: C_21  and  C_22
REMARK    7  A    between atoms: C_22  and  N_23
REMARK    8  A    between atoms: N_23  and  C_24
REMARK                            x       y       z     vdW  Elec       q    Type
REMARK                         _______ _______ _______ _____ _____    ______ ____
ROOT
ATOM      1  O   UNL     1      -2.334  -2.104  25.180  0.00  0.00    -0.220 OA
ATOM      2  C   UNL     1      -2.803  -1.465  24.946  0.00  0.00    +0.180 C 
ATOM      3  C   UNL     1      -3.602  -1.447  25.145  0.00  0.00    +0.038 C 
ATOM      4  C   UNL     1      -4.071  -0.809  24.911  0.00  0.00    +0.033 C 
ATOM      5  C   UNL     1      -3.738  -0.190  24.480  0.00  0.00    +0.121 C 
ATOM     20  O   UNL     1      -2.938  -0.209  24.281  0.00  0.00    -0.354 OA
ATOM     21  C   UNL     1      -2.470  -0.846  24.514  0.00  0.00    +0.163 C 
ENDROOT
BRANCH   5   6
ATOM      6  C   UNL     1      -4.207   0.448  24.246  0.00  0.00    +0.079 C 
BRANCH   6   7
ATOM      7  C   UNL     1      -4.126   1.178  24.622  0.00  0.00    +0.103 A 
ATOM      8  N   UNL     1      -4.536   1.426  25.293  0.00  0.00    -0.082 NA
ATOM      9  O   UNL     1      -4.285   2.190  25.478  0.00  0.00    -0.354 OA
ATOM     10  C   UNL     1      -3.720   2.414  24.921  0.00  0.00    +0.198 A 
ATOM     19  C   UNL     1      -3.622   1.789  24.392  0.00  0.00    +0.057 A 
BRANCH  10  11
ATOM     11  C   UNL     1      -3.322   3.137  24.897  0.00  0.00    +0.272 C 
BRANCH  11  12
ATOM     12  O   UNL     1      -2.751   3.313  25.466  0.00  0.00    -0.467 OA
BRANCH  12  13
ATOM     13  C   UNL     1      -2.204   3.914  25.329  0.00  0.00    +0.139 A 
ATOM     14  C   UNL     1      -1.411   3.728  25.198  0.00  0.00    +0.037 A 
ATOM     15  C   UNL     1      -0.864   4.329  25.061  0.00  0.00    +0.003 A 
ATOM     16  C   UNL     1      -1.109   5.118  25.055  0.00  0.00    +0.000 A 
ATOM     17  C   UNL     1      -1.902   5.303  25.186  0.00  0.00    +0.003 A 
ATOM     18  C   UNL     1      -2.449   4.702  25.323  0.00  0.00    +0.037 A 
ENDBRANCH  12  13
ENDBRANCH  11  12
ENDBRANCH  10  11
ENDBRANCH   6   7
ENDBRANCH   5   6
BRANCH  21  22
ATOM     22  C   UNL     1      -1.669  -0.865  24.316  0.00  0.00    +0.121 C 
BRANCH  22  23
ATOM     23  N   UNL     1      -1.158  -0.291  24.613  0.00  0.00    -0.217 NA
BRANCH  23  24
ATOM     24  C   UNL     1      -0.477  -0.086  24.191  0.00  0.00    +0.078 C 
ATOM     25  C   UNL     1      -0.046  -0.669  23.797  0.00  0.00    +0.050 C 
ATOM     26  C   UNL     1       0.634  -0.465  23.376  0.00  0.00    +0.144 C 
ATOM     27  O   UNL     1       0.882   0.322  23.349  0.00  0.00    -0.354 OA
ATOM     28  C   UNL     1       0.449   0.904  23.743  0.00  0.00    +0.144 C 
ATOM     29  C   UNL     1      -0.230   0.700  24.164  0.00  0.00    +0.050 C 
ENDBRANCH  23  24
ENDBRANCH  22  23
ENDBRANCH  21  22
TORSDOF 8
ENDMDL
MODEL 8
REMARK VINA RESULT:     -10.1      1.310      4.160
REMARK  Name = 
REMARK  8 active torsions:
REMARK  status: ('A' for Active; 'I' for Inactive)
REMARK    1  A    between atoms: C_5  and  C_6
REMARK    2  A    between atoms: C_6  and  C_7
REMARK    3  A    between atoms: C_10  and  C_11
REMARK    4  A    between atoms: C_11  and  O_12
REMARK    5  A    between atoms: O_12  and  C_13
REMARK    6  A    between atoms: C_21  and  C_22
REMARK    7  A    between atoms: C_22  and  N_23
REMARK    8  A    between atoms: N_23  and  C_24
REMARK                            x       y       z     vdW  Elec       q    Type
REMARK                         _______ _______ _______ _____ _____    ______ ____
ROOT
ATOM      1  O   UNL     1      -6.174   1.517  25.980  0.00  0.00    -0.220 OA
ATOM      2  C   UNL     1      -5.624   2.038  25.650  0.00  0.00    +0.180 C 
ATOM      3  C   UNL     1      -5.701   2.849  25.771  0.00  0.00    +0.038 C 
ATOM      4  C   UNL     1      -5.152   3.370  25.442  0.00  0.00    +0.033 C 
ATOM      5  C   UNL     1      -4.526   3.077  24.992  0.00  0.00    +0.121 C 
ATOM     20  O   UNL     1      -4.450   2.265  24.871  0.00  0.00    -0.354 OA
ATOM     21  C   UNL     1      -4.999   1.745  25.200  0.00  0.00    +0.163 C 
ENDROOT
BRANCH   5   6
ATOM      6  C   UNL     1      -3.977   3.597  24.662  0.00  0.00    +0.079 C 
BRANCH   6   7
ATOM      7  C   UNL     1      -3.182   3.549  24.878  0.00  0.00    +0.103 A 
ATOM      8  N   UNL     1      -2.839   3.894  25.544  0.00  0.00    -0.082 NA
ATOM      9  O   UNL     1      -2.035   3.706  25.543  0.00  0.00    -0.354 OA
ATOM     10  C   UNL     1      -1.882   3.245  24.878  0.00  0.00    +0.198 A 
ATOM     19  C   UNL     1      -2.591   3.148  24.466  0.00  0.00    +0.057 A 
BRANCH  10  11
ATOM     11  C   UNL     1      -1.149   2.935  24.661  0.00  0.00    +0.272 C 
BRANCH  11  12
ATOM     12  O   UNL     1      -0.893   2.218  24.980  0.00  0.00    -0.467 OA
BRANCH  12  13
ATOM     13  C   UNL     1      -0.372   1.740  24.556  0.00  0.00    +0.139 A 
ATOM     14  C   UNL     1       0.385   2.016  24.376  0.00  0.00    +0.037 A 
ATOM     15  C   UNL     1       0.907   1.538  23.952  0.00  0.00    +0.003 A 
ATOM     16  C   UNL     1       0.673   0.785  23.707  0.00  0.00    +0.000 A 
ATOM     17  C   UNL     1      -0.084   0.511  23.888  0.00  0.00    +0.003 A 
ATOM     18  C   UNL     1      -0.606   0.989  24.312  0.00  0.00    +0.037 A 
ENDBRANCH  12  13
ENDBRANCH  11  12
ENDBRANCH  10  11
ENDBRANCH   6   7
ENDBRANCH   5   6
BRANCH  21  22
ATOM     22  C   UNL     1      -4.922   0.932  25.079  0.00  0.00    +0.121 C 
BRANCH  22  23
ATOM     23  N   UNL     1      -4.212   0.623  24.796  0.00  0.00    -0.217 NA
BRANCH  23  24
ATOM     24  C   UNL     1      -4.099  -0.195  24.771  0.00  0.00    +0.078 C 
ATOM     25  C   UNL     1      -3.759  -0.583  25.415  0.00  0.00    +0.050 C 
ATOM     26  C   UNL     1      -3.645  -1.400  25.390  0.00  0.00    +0.144 C 
ATOM     27  O   UNL     1      -3.872  -1.828  24.722  0.00  0.00    -0.354 OA
ATOM     28  C   UNL     1      -4.212  -1.439  24.079  0.00  0.00    +0.144 C 
ATOM     29  C   UNL     1      -4.325  -0.622  24.103  0.00  0.00    +0.050 C 
ENDBRANCH  23  24
ENDBRANCH  22  23
ENDBRANCH  21  22
TORSDOF 8
ENDMDL
