MODEL 1
REMARK VINA RESULT:     -12.9      0.000      0.000
REMARK  Name = 
REMARK  5 active torsions:
REMARK  status: ('A' for Active; 'I' for Inactive)
REMARK    1  A    between atoms: O_2  and  C_3
REMARK    2  A    between atoms: C_8  and  C_10
REMARK    3  A    between atoms: N_13  and  C_14
REMARK    4  A    between atoms: C_14  and  C_15
REMARK    5  A    between atoms: C_18  and  C_21
REMARK                            x       y       z     vdW  Elec       q    Type
REMARK                         _______ _______ _______ _____ _____    ______ ____
ROOT
ATOM     10  C   UNL     1      -4.635   1.204  25.060  0.00  0.00    +0.076 C 
ATOM     11  C   UNL     1      -5.277   1.414  25.533  0.00  0.00    +0.026 C 
ATOM     12  C   UNL     1      -5.334   2.237  25.537  0.00  0.00    +0.073 C 
ATOM     13  N   UNL     1      -4.726   2.536  25.065  0.00  0.00    -0.269 NA
ATOM     25  C   UNL     1      -4.294   1.897  24.771  0.00  0.00    +0.080 C 
ENDROOT
BRANCH  10   8
ATOM      3  C   UNL     1      -3.267  -2.049  24.701  0.00  0.00    +0.140 A 
ATOM      4  C   UNL     1      -3.216  -1.356  25.144  0.00  0.00    +0.058 A 
ATOM      5  C   UNL     1      -3.711  -0.718  24.972  0.00  0.00    +0.103 A 
ATOM      6  C   UNL     1      -4.258  -0.775  24.357  0.00  0.00    +0.100 A 
ATOM      7  N   UNL     1      -4.670  -0.063  24.315  0.00  0.00    -0.229 NA
ATOM      8  C   UNL     1      -4.379   0.435  24.904  0.00  0.00    +0.140 A 
ATOM      9  N   UNL     1      -3.786   0.030  25.310  0.00  0.00    -0.229 NA
ATOM     26  C   UNL     1      -4.309  -1.470  23.913  0.00  0.00    +0.024 A 
ATOM     27  C   UNL     1      -3.814  -2.107  24.086  0.00  0.00    +0.039 A 
BRANCH   3   2
ATOM      1  C   UNL     1      -2.048  -2.763  24.487  0.00  0.00    +0.252 C 
ATOM      2  O   UNL     1      -2.773  -2.686  24.874  0.00  0.00    -0.471 OA
ENDBRANCH   3   2
ENDBRANCH  10   8
BRANCH  13  14
ATOM     14  C   UNL     1      -4.576   3.333  24.914  0.00  0.00    +0.099 C 
BRANCH  14  15
ATOM     15  C   UNL     1      -3.819   3.640  25.030  0.00  0.00    -0.006 A 
ATOM     16  C   UNL     1      -3.574   3.861  25.787  0.00  0.00    -0.003 A 
ATOM     17  C   UNL     1      -2.817   4.168  25.902  0.00  0.00    +0.004 A 
ATOM     18  C   UNL     1      -2.304   4.253  25.262  0.00  0.00    +0.071 A 
ATOM     19  C   UNL     1      -2.549   4.031  24.505  0.00  0.00    +0.004 A 
ATOM     20  C   UNL     1      -3.306   3.724  24.389  0.00  0.00    -0.003 A 
BRANCH  18  21
ATOM     21  C   UNL     1      -1.548   4.560  25.377  0.00  0.00    +0.419 C 
ATOM     22  F   UNL     1      -0.790   4.866  25.493  0.00  0.00    -0.166 F 
ATOM     23  F   UNL     1      -1.296   3.829  25.666  0.00  0.00    -0.166 F 
ATOM     24  F   UNL     1      -1.800   5.290  25.089  0.00  0.00    -0.166 F 
ENDBRANCH  18  21
ENDBRANCH  14  15
ENDBRANCH  13  14
TORSDOF 5
ENDMDL
MODEL 2
REMARK VINA RESULT:     -12.2      3.036      5.542
REMARK  Name = 
REMARK  5 active torsions:
REMARK  status: ('A' for Active; 'I' for Inactive)
REMARK    1  A    between atoms: O_2  and  C_3
REMARK    2  A    between atoms: C_8  and  C_10
REMARK    3  A    between atoms: N_13  and  C_14
REMARK    4  A    between atoms: C_14  and  C_15
REMARK    5  A    between atoms: C_18  and  C_21
REMARK                            x       y       z     vdW  Elec       q    Type
REMARK                         _______ _______ _______ _____ _____    ______ ____
ROOT
ATOM     10  C   UNL     1      -3.615   1.818  24.825  0.00  0.00    +0.076 C 
ATOM     11  C   UNL     1      -4.264   1.832  24.316  0.00  0.00    +0.026 C 
ATOM     12  C   UNL     1      -4.693   1.136  24.429  0.00  0.00    +0.073 C 
ATOM     13  N   UNL     1      -4.308   0.692  25.008  0.00  0.00    -0.269 NA
ATOM     25  C   UNL     1      -3.642   1.113  25.252  0.00  0.00    +0.080 C 
ENDROOT
BRANCH  10   8
ATOM      3  C   UNL     1      -1.454   4.612  25.154  0.00  0.00    +0.140 A 
ATOM      4  C   UNL     1      -2.247   4.388  25.131  0.00  0.00    +0.058 A 
ATOM      5  C   UNL     1      -2.451   3.594  25.035  0.00  0.00    +0.103 A 
ATOM      6  C   UNL     1      -1.859   3.024  24.963  0.00  0.00    +0.100 A 
ATOM      7  N   UNL     1      -2.223   2.289  24.875  0.00  0.00    -0.229 NA
ATOM      8  C   UNL     1      -3.040   2.405  24.893  0.00  0.00    +0.140 A 
ATOM      9  N   UNL     1      -3.179   3.212  24.992  0.00  0.00    -0.229 NA
ATOM     26  C   UNL     1      -1.065   3.247  24.986  0.00  0.00    +0.024 A 
ATOM     27  C   UNL     1      -0.863   4.041  25.082  0.00  0.00    +0.039 A 
BRANCH   3   2
ATOM      1  C   UNL     1      -0.751   5.772  24.706  0.00  0.00    +0.252 C 
ATOM      2  O   UNL     1      -1.252   5.405  25.250  0.00  0.00    -0.471 OA
ENDBRANCH   3   2
ENDBRANCH  10   8
BRANCH  13  14
ATOM     14  C   UNL     1      -4.547  -0.044  25.293  0.00  0.00    +0.099 C 
BRANCH  14  15
ATOM     15  C   UNL     1      -4.169  -0.731  25.034  0.00  0.00    -0.006 A 
ATOM     16  C   UNL     1      -3.598  -1.092  25.509  0.00  0.00    -0.003 A 
ATOM     17  C   UNL     1      -3.221  -1.777  25.250  0.00  0.00    +0.004 A 
ATOM     18  C   UNL     1      -3.412  -2.102  24.516  0.00  0.00    +0.071 A 
ATOM     19  C   UNL     1      -3.982  -1.741  24.041  0.00  0.00    +0.004 A 
ATOM     20  C   UNL     1      -4.360  -1.055  24.300  0.00  0.00    -0.003 A 
BRANCH  18  21
ATOM     21  C   UNL     1      -3.033  -2.788  24.257  0.00  0.00    +0.419 C 
ATOM     22  F   UNL     1      -2.655  -3.474  23.998  0.00  0.00    -0.166 F 
ATOM     23  F   UNL     1      -3.738  -3.208  24.341  0.00  0.00    -0.166 F 
ATOM     24  F   UNL     1      -2.329  -2.367  24.174  0.00  0.00    -0.166 F 
ENDBRANCH  18  21
ENDBRANCH  14  15
ENDBRANCH  13  14
TORSDOF 5
ENDMDL
MODEL 3
REMARK VINA RESULT:     -12.2      3.500      6.051
REMARK  Name = 
REMARK  5 active torsions:
REMARK  status: ('A' for Active; 'I' for Inactive)
REMARK    1  A    between atoms: O_2  and  C_3
REMARK    2  A    between atoms: C_8  and  C_10
REMARK    3  A    between atoms: N_13  and  C_14
REMARK    4  A    between atoms: C_14  and  C_15
REMARK    5  A    between atoms: C_18  and  C_21
REMARK                            x       y       z     vdW  Elec       q    Type
REMARK                         _______ _______ _______ _____ _____    ______ ____
ROOT
ATOM     10  C   UNL     1      -0.979   0.800  25.081  0.00  0.00    +0.076 C 
ATOM     11  C   UNL     1      -0.456   0.338  24.642  0.00  0.00    +0.026 C 
ATOM     12  C   UNL     1      -0.628  -0.455  24.791  0.00  0.00    +0.073 C 
ATOM     13  N   UNL     1      -1.258  -0.483  25.323  0.00  0.00    -0.269 NA
ATOM     25  C   UNL     1      -1.475   0.293  25.502  0.00  0.00    +0.080 C 
ENDROOT
BRANCH  10   8
ATOM      3  C   UNL     1      -1.465   4.307  25.294  0.00  0.00    +0.140 A 
ATOM      4  C   UNL     1      -1.830   3.580  25.426  0.00  0.00    +0.058 A 
ATOM      5  C   UNL     1      -1.425   2.879  25.267  0.00  0.00    +0.103 A 
ATOM      6  C   UNL     1      -0.653   2.906  24.975  0.00  0.00    +0.100 A 
ATOM      7  N   UNL     1      -0.393   2.131  24.871  0.00  0.00    -0.229 NA
ATOM      8  C   UNL     1      -1.003   1.625  25.097  0.00  0.00    +0.140 A 
ATOM      9  N   UNL     1      -1.640   2.087  25.342  0.00  0.00    -0.229 NA
ATOM     26  C   UNL     1      -0.288   3.635  24.843  0.00  0.00    +0.024 A 
ATOM     27  C   UNL     1      -0.694   4.335  25.002  0.00  0.00    +0.039 A 
BRANCH   3   2
ATOM      1  C   UNL     1      -1.667   5.702  25.057  0.00  0.00    +0.252 C 
ATOM      2  O   UNL     1      -1.871   5.007  25.453  0.00  0.00    -0.471 OA
ENDBRANCH   3   2
ENDBRANCH  10   8
BRANCH  13  14
ATOM     14  C   UNL     1      -1.609  -1.166  25.623  0.00  0.00    +0.099 C 
BRANCH  14  15
ATOM     15  C   UNL     1      -2.243  -1.515  25.224  0.00  0.00    -0.006 A 
ATOM     16  C   UNL     1      -3.016  -1.279  25.392  0.00  0.00    -0.003 A 
ATOM     17  C   UNL     1      -3.648  -1.628  24.994  0.00  0.00    +0.004 A 
ATOM     18  C   UNL     1      -3.508  -2.211  24.427  0.00  0.00    +0.071 A 
ATOM     19  C   UNL     1      -2.735  -2.446  24.259  0.00  0.00    +0.004 A 
ATOM     20  C   UNL     1      -2.102  -2.098  24.658  0.00  0.00    -0.003 A 
BRANCH  18  21
ATOM     21  C   UNL     1      -4.141  -2.559  24.029  0.00  0.00    +0.419 C 
ATOM     22  F   UNL     1      -4.774  -2.908  23.630  0.00  0.00    -0.166 F 
ATOM     23  F   UNL     1      -3.966  -3.283  24.384  0.00  0.00    -0.166 F 
ATOM     24  F   UNL     1      -4.316  -1.835  23.674  0.00  0.00    -0.166 F 
ENDBRANCH  18  21
ENDBRANCH  14  15
ENDBRANCH  13  14
TORSDOF 5
ENDMDL
MODEL 4
REMARK VINA RESULT:     -12.1      2.096      2.901
REMARK  Name = 
REMARK  5 active torsions:
REMARK  status: ('A' for Active; 'I' for Inactive)
REMARK    1  A    between atoms: O_2  and  C_3
REMARK    2  A    between atoms: C_8  and  C_10
REMARK    3  A    between atoms: N_13  and  C_14
REMARK    4  A    between atoms: C_14  and  C_15
REMARK    5  A    between atoms: C_18  and  C_21
REMARK                            x       y       z     vdW  Elec       q    Type
REMARK                         _______ _______ _______ _____ _____    ______ ____
ROOT
ATOM     10  C   UNL     1      -0.857   0.483  24.848  0.00  0.00    +0.076 C 
ATOM     11  C   UNL     1      -0.267   0.719  24.323  0.00  0.00    +0.026 C 
ATOM     12  C   UNL     1       0.057   1.425  24.601  0.00  0.00    +0.073 C 
ATOM     13  N   UNL     1      -0.335   1.626  25.299  0.00  0.00    -0.269 NA
ATOM     25  C   UNL     1      -0.899   1.043  25.451  0.00  0.00    +0.080 C 
ENDROOT
BRANCH  10   8
ATOM      3  C   UNL     1      -3.188  -2.175  24.564  0.00  0.00    +0.140 A 
ATOM      4  C   UNL     1      -3.124  -1.356  24.620  0.00  0.00    +0.058 A 
ATOM      5  C   UNL     1      -2.381  -1.002  24.679  0.00  0.00    +0.103 A 
ATOM      6  C   UNL     1      -1.701  -1.470  24.680  0.00  0.00    +0.100 A 
ATOM      7  N   UNL     1      -1.048  -0.971  24.743  0.00  0.00    -0.229 NA
ATOM      8  C   UNL     1      -1.323  -0.194  24.781  0.00  0.00    +0.140 A 
ATOM      9  N   UNL     1      -2.147  -0.214  24.741  0.00  0.00    -0.229 NA
ATOM     26  C   UNL     1      -1.765  -2.291  24.623  0.00  0.00    +0.024 A 
ATOM     27  C   UNL     1      -2.509  -2.643  24.565  0.00  0.00    +0.039 A 
BRANCH   3   2
ATOM      1  C   UNL     1      -4.335  -2.525  23.786  0.00  0.00    +0.252 C 
ATOM      2  O   UNL     1      -3.931  -2.528  24.505  0.00  0.00    -0.471 OA
ENDBRANCH   3   2
ENDBRANCH  10   8
BRANCH  13  14
ATOM     14  C   UNL     1      -0.188   2.292  25.763  0.00  0.00    +0.099 C 
BRANCH  14  15
ATOM     15  C   UNL     1      -0.555   3.009  25.584  0.00  0.00    -0.006 A 
ATOM     16  C   UNL     1      -0.225   3.512  25.018  0.00  0.00    -0.003 A 
ATOM     17  C   UNL     1      -0.592   4.228  24.841  0.00  0.00    +0.004 A 
ATOM     18  C   UNL     1      -1.288   4.443  25.227  0.00  0.00    +0.071 A 
ATOM     19  C   UNL     1      -1.618   3.940  25.793  0.00  0.00    +0.004 A 
ATOM     20  C   UNL     1      -1.251   3.223  25.971  0.00  0.00    -0.003 A 
BRANCH  18  21
ATOM     21  C   UNL     1      -1.655   5.160  25.049  0.00  0.00    +0.419 C 
ATOM     22  F   UNL     1      -2.021   5.878  24.870  0.00  0.00    -0.166 F 
ATOM     23  F   UNL     1      -0.989   5.567  25.317  0.00  0.00    -0.166 F 
ATOM     24  F   UNL     1      -2.320   4.753  24.780  0.00  0.00    -0.166 F 
ENDBRANCH  18  21
ENDBRANCH  14  15
ENDBRANCH  13  14
TORSDOF 5
ENDMDL
