MODEL 1
REMARK VINA RESULT:     -11.3      0.000      0.000
REMARK  Name = 
REMARK  5 active torsions:
REMARK  status: ('A' for Active; 'I' for Inactive)
REMARK    1  A    between atoms: N_2  and  C_4
REMARK    2  A    between atoms: C_4  and  C_5
REMARK    3  A    between atoms: C_7  and  C_8
REMARK    4  A    between atoms: C_8  and  C_9
REMARK    5  A    between atoms: C_12  and  C_14
REMARK                            x       y       z     vdW  Elec       q    Type
REMARK                         _______ _______ _______ _____ _____    ______ ____
ROOT
ATOM      8  C   UNL     1      -3.679   2.057  24.127  0.00  0.00    +0.079 C 
ENDROOT
BRANCH   8   7
ATOM      5  C   UNL     1      -2.507   3.298  25.486  0.00  0.00    +0.161 C 
ATOM      6  O   UNL     1      -2.706   2.710  24.944  0.00  0.00    -0.354 OA
ATOM      7  C   UNL     1      -3.481   2.645  24.670  0.00  0.00    +0.121 C 
ATOM     21  C   UNL     1      -4.058   3.170  24.939  0.00  0.00    +0.033 C 
ATOM     22  C   UNL     1      -3.861   3.759  25.481  0.00  0.00    +0.038 C 
ATOM     23  C   UNL     1      -3.084   3.823  25.755  0.00  0.00    +0.180 C 
ATOM     24  O   UNL     1      -2.887   4.412  26.298  0.00  0.00    -0.220 OA
BRANCH   5   4
ATOM      4  C   UNL     1      -1.732   3.363  25.760  0.00  0.00    +0.105 C 
BRANCH   4   2
ATOM      1  C   UNL     1      -0.845   3.497  24.648  0.00  0.00    +0.090 C 
ATOM      2  N   UNL     1      -1.108   3.074  25.305  0.00  0.00    -0.268 NA
ATOM      3  C   UNL     1      -0.746   2.360  25.508  0.00  0.00    +0.090 C 
ENDBRANCH   4   2
ENDBRANCH   5   4
ENDBRANCH   8   7
BRANCH   8   9
ATOM      9  C   UNL     1      -3.969   1.331  24.394  0.00  0.00    +0.103 A 
ATOM     10  N   UNL     1      -4.685   1.209  24.785  0.00  0.00    -0.081 NA
ATOM     11  O   UNL     1      -4.752   0.403  24.948  0.00  0.00    -0.354 OA
ATOM     12  C   UNL     1      -4.077   0.027  24.658  0.00  0.00    +0.177 A 
ATOM     13  C   UNL     1      -3.593   0.601  24.315  0.00  0.00    +0.058 A 
BRANCH  12  14
ATOM     14  C   UNL     1      -3.916  -0.781  24.702  0.00  0.00    +0.040 A 
ATOM     15  C   UNL     1      -4.182  -1.288  24.109  0.00  0.00    +0.045 A 
ATOM     16  C   UNL     1      -4.021  -2.096  24.154  0.00  0.00    +0.196 A 
ATOM     17  O   UNL     1      -4.287  -2.604  23.561  0.00  0.00    -0.287 OA
ATOM     18  C   UNL     1      -3.592  -2.396  24.792  0.00  0.00    +0.042 A 
ATOM     19  C   UNL     1      -3.325  -1.889  25.385  0.00  0.00    +0.003 A 
ATOM     20  C   UNL     1      -3.487  -1.080  25.340  0.00  0.00    +0.003 A 
ENDBRANCH  12  14
ENDBRANCH   8   9
TORSDOF 5
ENDMDL
MODEL 2
REMARK VINA RESULT:     -10.2      1.183      1.995
REMARK  Name = 
REMARK  5 active torsions:
REMARK  status: ('A' for Active; 'I' for Inactive)
REMARK    1  A    between atoms: N_2  and  C_4
REMARK    2  A    between atoms: C_4  and  C_5
REMARK    3  A    between atoms: C_7  and  C_8
REMARK    4  A    between atoms: C_8  and  C_9
REMARK    5  A    between atoms: C_12  and  C_14
REMARK                            x       y       z     vdW  Elec       q    Type
REMARK                         _______ _______ _______ _____ _____    ______ ____
ROOT
ATOM      8  C   UNL     1      -3.345   1.951  23.817  0.00  0.00    +0.079 C 
ENDROOT
BRANCH   8   7
ATOM      5  C   UNL     1      -3.784   3.295  25.479  0.00  0.00    +0.161 C 
ATOM      6  O   UNL     1      -3.872   2.704  24.910  0.00  0.00    -0.354 OA
ATOM      7  C   UNL     1      -3.257   2.541  24.385  0.00  0.00    +0.121 C 
ATOM     21  C   UNL     1      -2.554   2.970  24.429  0.00  0.00    +0.033 C 
ATOM     22  C   UNL     1      -2.465   3.561  24.998  0.00  0.00    +0.038 C 
ATOM     23  C   UNL     1      -3.081   3.723  25.523  0.00  0.00    +0.180 C 
ATOM     24  O   UNL     1      -2.992   4.314  26.092  0.00  0.00    -0.220 OA
BRANCH   5   4
ATOM      4  C   UNL     1      -4.399   3.457  26.004  0.00  0.00    +0.105 C 
BRANCH   4   2
ATOM      1  C   UNL     1      -5.559   3.930  25.317  0.00  0.00    +0.090 C 
ATOM      2  N   UNL     1      -5.183   3.352  25.768  0.00  0.00    -0.268 NA
ATOM      3  C   UNL     1      -5.590   2.668  25.984  0.00  0.00    +0.090 C 
ENDBRANCH   4   2
ENDBRANCH   5   4
ENDBRANCH   8   7
BRANCH   8   9
ATOM      9  C   UNL     1      -3.076   1.186  23.971  0.00  0.00    +0.103 A 
ATOM     10  N   UNL     1      -2.289   0.938  23.963  0.00  0.00    -0.081 NA
ATOM     11  O   UNL     1      -2.273   0.134  24.147  0.00  0.00    -0.354 OA
ATOM     12  C   UNL     1      -3.050  -0.115  24.270  0.00  0.00    +0.177 A 
ATOM     13  C   UNL     1      -3.547   0.536  24.161  0.00  0.00    +0.058 A 
BRANCH  12  14
ATOM     14  C   UNL     1      -3.289  -0.880  24.467  0.00  0.00    +0.040 A 
ATOM     15  C   UNL     1      -3.731  -1.324  23.932  0.00  0.00    +0.045 A 
ATOM     16  C   UNL     1      -3.970  -2.090  24.129  0.00  0.00    +0.196 A 
ATOM     17  O   UNL     1      -4.412  -2.534  23.594  0.00  0.00    -0.287 OA
ATOM     18  C   UNL     1      -3.765  -2.409  24.862  0.00  0.00    +0.042 A 
ATOM     19  C   UNL     1      -3.323  -1.964  25.397  0.00  0.00    +0.003 A 
ATOM     20  C   UNL     1      -3.085  -1.199  25.200  0.00  0.00    +0.003 A 
ENDBRANCH  12  14
ENDBRANCH   8   9
TORSDOF 5
ENDMDL
MODEL 3
REMARK VINA RESULT:     -10.2      1.718      4.474
REMARK  Name = 
REMARK  5 active torsions:
REMARK  status: ('A' for Active; 'I' for Inactive)
REMARK    1  A    between atoms: N_2  and  C_4
REMARK    2  A    between atoms: C_4  and  C_5
REMARK    3  A    between atoms: C_7  and  C_8
REMARK    4  A    between atoms: C_8  and  C_9
REMARK    5  A    between atoms: C_12  and  C_14
REMARK                            x       y       z     vdW  Elec       q    Type
REMARK                         _______ _______ _______ _____ _____    ______ ____
ROOT
ATOM      8  C   UNL     1      -3.914  -0.339  23.863  0.00  0.00    +0.079 C 
ENDROOT
BRANCH   8   7
ATOM      5  C   UNL     1      -2.268  -1.596  24.551  0.00  0.00    +0.161 C 
ATOM      6  O   UNL     1      -2.684  -0.944  24.264  0.00  0.00    -0.354 OA
ATOM      7  C   UNL     1      -3.499  -0.991  24.150  0.00  0.00    +0.121 C 
ATOM     21  C   UNL     1      -3.900  -1.690  24.325  0.00  0.00    +0.033 C 
ATOM     22  C   UNL     1      -3.486  -2.343  24.612  0.00  0.00    +0.038 C 
ATOM     23  C   UNL     1      -2.669  -2.296  24.726  0.00  0.00    +0.180 C 
ATOM     24  O   UNL     1      -2.255  -2.949  25.013  0.00  0.00    -0.220 OA
BRANCH   5   4
ATOM      4  C   UNL     1      -1.453  -1.549  24.665  0.00  0.00    +0.105 C 
BRANCH   4   2
ATOM      1  C   UNL     1      -1.157  -0.666  25.748  0.00  0.00    +0.090 C 
ATOM      2  N   UNL     1      -1.114  -0.852  24.946  0.00  0.00    -0.268 NA
ATOM      3  C   UNL     1      -0.732  -0.340  24.423  0.00  0.00    +0.090 C 
ENDBRANCH   4   2
ENDBRANCH   5   4
ENDBRANCH   8   7
BRANCH   8   9
ATOM      9  C   UNL     1      -4.189   0.238  24.386  0.00  0.00    +0.103 A 
ATOM     10  N   UNL     1      -4.641   0.104  25.061  0.00  0.00    -0.081 NA
ATOM     11  O   UNL     1      -4.792   0.833  25.417  0.00  0.00    -0.354 OA
ATOM     12  C   UNL     1      -4.432   1.418  24.960  0.00  0.00    +0.177 A 
ATOM     13  C   UNL     1      -4.059   1.051  24.322  0.00  0.00    +0.058 A 
BRANCH  12  14
ATOM     14  C   UNL     1      -4.444   2.229  25.114  0.00  0.00    +0.040 A 
ATOM     15  C   UNL     1      -5.145   2.594  25.350  0.00  0.00    +0.045 A 
ATOM     16  C   UNL     1      -5.156   3.405  25.504  0.00  0.00    +0.196 A 
ATOM     17  O   UNL     1      -5.856   3.770  25.740  0.00  0.00    -0.287 OA
ATOM     18  C   UNL     1      -4.465   3.849  25.422  0.00  0.00    +0.042 A 
ATOM     19  C   UNL     1      -3.765   3.484  25.186  0.00  0.00    +0.003 A 
ATOM     20  C   UNL     1      -3.754   2.673  25.032  0.00  0.00    +0.003 A 
ENDBRANCH  12  14
ENDBRANCH   8   9
TORSDOF 5
ENDMDL
