MODEL 1
REMARK VINA RESULT:     -16.7      0.000      0.000
REMARK  Name = 
REMARK  3 active torsions:
REMARK  status: ('A' for Active; 'I' for Inactive)
REMARK    1  A    between atoms: O_2  and  C_3
REMARK    2  A    between atoms: C_6  and  C_9
REMARK    3  A    between atoms: C_19  and  C_21
REMARK                            x       y       z     vdW  Elec       q    Type
REMARK                         _______ _______ _______ _____ _____    ______ ____
ROOT
ATOM      9  C   UNL     1      -3.920  -0.080  24.528  0.00  0.00    +0.056 A 
ATOM     10  C   UNL     1      -4.610  -0.561  24.212  0.00  0.00    +0.006 A 
ATOM     11  C   UNL     1      -4.454  -1.368  24.147  0.00  0.00    +0.013 A 
ATOM     12  C   UNL     1      -3.715  -1.664  24.365  0.00  0.00    +0.041 A 
ATOM     13  C   UNL     1      -3.249  -2.454  24.412  0.00  0.00    +0.058 C 
ATOM     14  C   UNL     1      -3.316  -3.141  24.286  0.00  0.00    +0.011 C 
ATOM     15  C   UNL     1      -2.743  -2.634  24.565  0.00  0.00    +0.043 C 
ATOM     16  C   UNL     1      -1.935  -2.189  24.918  0.00  0.00    +0.096 C 
ATOM     17  N   UNL     1      -2.207  -1.399  24.939  0.00  0.00    -0.276 N 
ATOM     18  C   UNL     1      -2.460  -2.039  24.754  0.00  0.00    +0.099 C 
ATOM     19  C   UNL     1      -2.069  -0.568  25.112  0.00  0.00    +0.249 C 
ATOM     20  O   UNL     1      -1.271  -0.374  25.423  0.00  0.00    -0.270 OA
ATOM     27  C   UNL     1      -3.223  -1.803  24.519  0.00  0.00    +0.110 C 
ATOM     28  N   UNL     1      -3.133  -1.152  24.647  0.00  0.00    -0.299 N 
ATOM     29  C   UNL     1      -3.289  -0.345  24.712  0.00  0.00    +0.261 A 
ATOM     30  O   UNL     1      -2.509   0.222  25.073  0.00  0.00    -0.267 OA
ENDROOT
BRANCH   9   6
ATOM      3  C   UNL     1      -4.541   2.334  24.928  0.00  0.00    +0.139 A 
ATOM      4  C   UNL     1      -5.156   1.796  24.814  0.00  0.00    +0.037 A 
ATOM      5  C   UNL     1      -4.987   0.999  24.681  0.00  0.00    +0.003 A 
ATOM      6  C   UNL     1      -3.861   0.668  24.660  0.00  0.00    +0.005 A 
ATOM      7  C   UNL     1      -3.817   1.330  24.777  0.00  0.00    +0.003 A 
ATOM      8  C   UNL     1      -3.758   2.077  24.908  0.00  0.00    +0.037 A 
BRANCH   3   2
ATOM      1  C   UNL     1      -4.409   3.743  25.615  0.00  0.00    +0.252 C 
ATOM      2  O   UNL     1      -4.745   3.182  25.069  0.00  0.00    -0.471 OA
ENDBRANCH   3   2
ENDBRANCH   9   6
BRANCH  19  21
ATOM     21  C   UNL     1      -2.862  -0.129  24.895  0.00  0.00    +0.054 A 
ATOM     22  C   UNL     1      -2.872   0.213  24.145  0.00  0.00    +0.005 A 
ATOM     23  C   UNL     1      -3.542   0.618  23.886  0.00  0.00    +0.000 A 
ATOM     24  C   UNL     1      -4.202   0.681  24.376  0.00  0.00    +0.000 A 
ATOM     25  C   UNL     1      -4.192   0.339  25.127  0.00  0.00    +0.000 A 
ATOM     26  C   UNL     1      -3.522  -0.067  25.387  0.00  0.00    +0.005 A 
ENDBRANCH  19  21
TORSDOF 3
ENDMDL
MODEL 2
REMARK VINA RESULT:     -15.9      1.348      3.762
REMARK  Name = 
REMARK  3 active torsions:
REMARK  status: ('A' for Active; 'I' for Inactive)
REMARK    1  A    between atoms: O_2  and  C_3
REMARK    2  A    between atoms: C_6  and  C_9
REMARK    3  A    between atoms: C_19  and  C_21
REMARK                            x       y       z     vdW  Elec       q    Type
REMARK                         _______ _______ _______ _____ _____    ______ ____
ROOT
ATOM      9  C   UNL     1      -3.988   0.506  24.795  0.00  0.00    +0.056 A 
ATOM     10  C   UNL     1      -4.776   0.481  25.224  0.00  0.00    +0.006 A 
ATOM     11  C   UNL     1      -5.121   1.222  25.336  0.00  0.00    +0.013 A 
ATOM     12  C   UNL     1      -4.739   1.900  25.062  0.00  0.00    +0.041 A 
ATOM     13  C   UNL     1      -4.842   2.812  25.027  0.00  0.00    +0.058 C 
ATOM     14  C   UNL     1      -5.284   3.324  25.215  0.00  0.00    +0.011 C 
ATOM     15  C   UNL     1      -4.567   3.257  24.833  0.00  0.00    +0.043 C 
ATOM     16  C   UNL     1      -3.710   3.382  24.357  0.00  0.00    +0.096 C 
ATOM     17  N   UNL     1      -3.463   2.586  24.303  0.00  0.00    -0.276 N 
ATOM     18  C   UNL     1      -4.016   2.949  24.566  0.00  0.00    +0.099 C 
ATOM     19  C   UNL     1      -2.886   2.001  24.049  0.00  0.00    +0.249 C 
ATOM     20  O   UNL     1      -2.181   2.321  23.635  0.00  0.00    -0.270 OA
ATOM     27  C   UNL     1      -4.451   2.305  24.866  0.00  0.00    +0.110 C 
ATOM     28  N   UNL     1      -4.013   1.836  24.675  0.00  0.00    -0.299 N 
ATOM     29  C   UNL     1      -3.668   1.095  24.563  0.00  0.00    +0.261 A 
ATOM     30  O   UNL     1      -2.763   1.104  24.072  0.00  0.00    -0.267 OA
ENDROOT
BRANCH   9   6
ATOM      3  C   UNL     1      -2.889  -1.764  24.689  0.00  0.00    +0.139 A 
ATOM      4  C   UNL     1      -3.523  -1.672  25.208  0.00  0.00    +0.037 A 
ATOM      5  C   UNL     1      -3.904  -0.942  25.267  0.00  0.00    +0.003 A 
ATOM      6  C   UNL     1      -3.518  -0.059  24.597  0.00  0.00    +0.005 A 
ATOM      7  C   UNL     1      -3.106  -0.564  24.426  0.00  0.00    +0.003 A 
ATOM      8  C   UNL     1      -2.636  -1.129  24.228  0.00  0.00    +0.037 A 
BRANCH   3   2
ATOM      1  C   UNL     1      -1.698  -2.757  24.422  0.00  0.00    +0.252 C 
ATOM      2  O   UNL     1      -2.495  -2.554  24.642  0.00  0.00    -0.471 OA
ENDBRANCH   3   2
ENDBRANCH   9   6
BRANCH  19  21
ATOM     21  C   UNL     1      -3.228   1.176  24.316  0.00  0.00    +0.054 A 
ATOM     22  C   UNL     1      -3.642   0.770  23.730  0.00  0.00    +0.005 A 
ATOM     23  C   UNL     1      -3.973   0.032  23.895  0.00  0.00    +0.000 A 
ATOM     24  C   UNL     1      -3.889  -0.299  24.646  0.00  0.00    +0.000 A 
ATOM     25  C   UNL     1      -3.474   0.107  25.232  0.00  0.00    +0.000 A 
ATOM     26  C   UNL     1      -3.143   0.845  25.067  0.00  0.00    +0.005 A 
ENDBRANCH  19  21
TORSDOF 3
ENDMDL
MODEL 3
REMARK VINA RESULT:     -15.4      2.129      4.090
REMARK  Name = 
REMARK  3 active torsions:
REMARK  status: ('A' for Active; 'I' for Inactive)
REMARK    1  A    between atoms: O_2  and  C_3
REMARK    2  A    between atoms: C_6  and  C_9
REMARK    3  A    between atoms: C_19  and  C_21
REMARK                            x       y       z     vdW  Elec       q    Type
REMARK                         _______ _______ _______ _____ _____    ______ ____
ROOT
ATOM      9  C   UNL     1      -3.140   2.204  24.630  0.00  0.00    +0.056 A 
ATOM     10  C   UNL     1      -3.742   2.785  24.958  0.00  0.00    +0.006 A 
ATOM     11  C   UNL     1      -3.421   3.515  25.170  0.00  0.00    +0.013 A 
ATOM     12  C   UNL     1      -2.614   3.655  25.072  0.00  0.00    +0.041 A 
ATOM     13  C   UNL     1      -1.983   4.311  25.199  0.00  0.00    +0.058 C 
ATOM     14  C   UNL     1      -1.913   4.969  25.430  0.00  0.00    +0.011 C 
ATOM     15  C   UNL     1      -1.435   4.385  25.125  0.00  0.00    +0.043 C 
ATOM     16  C   UNL     1      -0.706   3.815  24.778  0.00  0.00    +0.096 C 
ATOM     17  N   UNL     1      -1.141   3.123  24.601  0.00  0.00    -0.276 N 
ATOM     18  C   UNL     1      -1.268   3.772  24.866  0.00  0.00    +0.099 C 
ATOM     19  C   UNL     1      -1.168   2.316  24.306  0.00  0.00    +0.249 C 
ATOM     20  O   UNL     1      -0.400   1.984  24.040  0.00  0.00    -0.270 OA
ATOM     27  C   UNL     1      -2.087   3.693  24.989  0.00  0.00    +0.110 C 
ATOM     28  N   UNL     1      -2.128   3.065  24.762  0.00  0.00    -0.299 N 
ATOM     29  C   UNL     1      -2.448   2.335  24.551  0.00  0.00    +0.261 A 
ATOM     30  O   UNL     1      -1.773   1.655  24.173  0.00  0.00    -0.267 OA
ENDROOT
BRANCH   9   6
ATOM      3  C   UNL     1      -4.138  -0.081  24.231  0.00  0.00    +0.139 A 
ATOM      4  C   UNL     1      -4.570   0.448  24.695  0.00  0.00    +0.037 A 
ATOM      5  C   UNL     1      -4.271   1.203  24.844  0.00  0.00    +0.003 A 
ATOM      6  C   UNL     1      -3.231   1.490  24.382  0.00  0.00    +0.005 A 
ATOM      7  C   UNL     1      -3.319   0.858  24.166  0.00  0.00    +0.003 A 
ATOM      8  C   UNL     1      -3.410   0.144  23.917  0.00  0.00    +0.037 A 
BRANCH   3   2
ATOM      1  C   UNL     1      -4.101  -1.648  24.103  0.00  0.00    +0.252 C 
ATOM      2  O   UNL     1      -4.476  -0.884  24.084  0.00  0.00    -0.471 OA
ENDBRANCH   3   2
ENDBRANCH   9   6
BRANCH  19  21
ATOM     21  C   UNL     1      -2.060   2.052  24.373  0.00  0.00    +0.054 A 
ATOM     22  C   UNL     1      -2.498   2.144  23.681  0.00  0.00    +0.005 A 
ATOM     23  C   UNL     1      -3.295   1.931  23.666  0.00  0.00    +0.000 A 
ATOM     24  C   UNL     1      -3.654   1.626  24.344  0.00  0.00    +0.000 A 
ATOM     25  C   UNL     1      -3.215   1.534  25.037  0.00  0.00    +0.000 A 
ATOM     26  C   UNL     1      -2.417   1.748  25.051  0.00  0.00    +0.005 A 
ENDBRANCH  19  21
TORSDOF 3
ENDMDL
