MODEL 1
REMARK VINA RESULT:     -13.6      0.000      0.000
REMARK  Name = 
REMARK  3 active torsions:
REMARK  status: ('A' for Active; 'I' for Inactive)
REMARK    1  A    between atoms: C_2  and  C_3
REMARK    2  A    between atoms: C_2  and  C_26
REMARK    3  A    between atoms: C_12  and  C_14
REMARK                            x       y       z     vdW  Elec       q    Type
REMARK                         _______ _______ _______ _____ _____    ______ ____
ROOT
ATOM      3  C   UNL     1      -3.891  -0.267  24.996  0.00  0.00    +0.039 C 
ATOM      4  C   UNL     1      -4.587   0.162  24.879  0.00  0.00    +0.003 C 
ATOM      5  C   UNL     1      -4.559   0.983  24.813  0.00  0.00    +0.001 C 
ATOM      6  C   UNL     1      -3.836   1.377  24.864  0.00  0.00    +0.007 C 
ATOM      7  C   UNL     1      -4.531   1.804  24.747  0.00  0.00    +0.000 C 
ATOM      8  C   UNL     1      -3.808   2.199  24.798  0.00  0.00    +0.034 C 
ATOM      9  C   UNL     1      -3.085   2.592  24.849  0.00  0.00    +0.022 A 
ATOM     10  C   UNL     1      -2.389   2.163  24.966  0.00  0.00    +0.061 A 
ATOM     11  N   UNL     1      -1.762   2.699  24.994  0.00  0.00    -0.243 NA
ATOM     12  C   UNL     1      -2.070   3.458  24.894  0.00  0.00    +0.110 A 
ATOM     13  S   UNL     1      -2.887   3.392  24.805  0.00  0.00    -0.071 S 
ATOM     21  C   UNL     1      -2.417   1.342  25.032  0.00  0.00    +0.043 C 
ATOM     22  C   UNL     1      -1.722   0.914  25.149  0.00  0.00    +0.006 C 
ATOM     23  C   UNL     1      -3.140   0.948  24.981  0.00  0.00    +0.036 C 
ATOM     24  C   UNL     1      -3.168   0.127  25.047  0.00  0.00    +0.153 C 
ATOM     25  O   UNL     1      -2.473  -0.302  25.164  0.00  0.00    -0.223 OA
ENDROOT
BRANCH  12  14
ATOM     14  C   UNL     1      -1.636   4.160  24.885  0.00  0.00    +0.024 A 
ATOM     15  C   UNL     1      -0.863   4.163  24.600  0.00  0.00    +0.004 A 
ATOM     16  C   UNL     1      -0.429   4.865  24.591  0.00  0.00    +0.030 A 
ATOM     17  C   UNL     1      -0.769   5.564  24.868  0.00  0.00    +0.140 A 
ATOM     18  F   UNL     1      -0.335   6.265  24.859  0.00  0.00    -0.204 F 
ATOM     19  C   UNL     1      -1.543   5.560  25.154  0.00  0.00    +0.030 A 
ATOM     20  C   UNL     1      -1.977   4.858  25.163  0.00  0.00    +0.004 A 
ENDBRANCH  12  14
BRANCH   3   2
ATOM      1  C   UNL     1      -3.738  -1.453  25.780  0.00  0.00    +0.010 C 
ATOM      2  C   UNL     1      -3.919  -1.089  25.062  0.00  0.00    +0.079 C 
BRANCH   2  26
ATOM     26  C   UNL     1      -4.130  -1.547  24.409  0.00  0.00    +0.225 C 
ATOM     27  O   UNL     1      -4.611  -1.229  23.819  0.00  0.00    -0.275 OA
ATOM     28  N   UNL     1      -3.859  -2.325  24.346  0.00  0.00    -0.280 N 
ATOM     29  C   UNL     1      -4.023  -2.847  23.729  0.00  0.00    +0.093 C 
ATOM     30  C   UNL     1      -3.643  -3.561  23.891  0.00  0.00    +0.023 C 
ATOM     31  C   UNL     1      -3.244  -3.479  24.609  0.00  0.00    +0.023 C 
ATOM     32  C   UNL     1      -3.378  -2.715  24.890  0.00  0.00    +0.093 C 
ENDBRANCH   2  26
ENDBRANCH   3   2
TORSDOF 3
ENDMDL
MODEL 2
REMARK VINA RESULT:     -13.0      2.423      5.914
REMARK  Name = 
REMARK  3 active torsions:
REMARK  status: ('A' for Active; 'I' for Inactive)
REMARK    1  A    between atoms: C_2  and  C_3
REMARK    2  A    between atoms: C_2  and  C_26
REMARK    3  A    between atoms: C_12  and  C_14
REMARK                            x       y       z     vdW  Elec       q    Type
REMARK                         _______ _______ _______ _____ _____    ______ ____
ROOT
ATOM      3  C   UNL     1      -2.356   2.979  25.501  0.00  0.00    +0.039 C 
ATOM      4  C   UNL     1      -3.139   3.176  25.329  0.00  0.00    +0.003 C 
ATOM      5  C   UNL     1      -3.668   2.591  25.089  0.00  0.00    +0.001 C 
ATOM      6  C   UNL     1      -3.416   1.809  25.021  0.00  0.00    +0.007 C 
ATOM      7  C   UNL     1      -4.198   2.006  24.849  0.00  0.00    +0.000 C 
ATOM      8  C   UNL     1      -3.945   1.223  24.781  0.00  0.00    +0.034 C 
ATOM      9  C   UNL     1      -3.693   0.442  24.712  0.00  0.00    +0.022 A 
ATOM     10  C   UNL     1      -2.909   0.244  24.884  0.00  0.00    +0.061 A 
ATOM     11  N   UNL     1      -2.820  -0.567  24.767  0.00  0.00    -0.243 NA
ATOM     12  C   UNL     1      -3.547  -0.872  24.524  0.00  0.00    +0.110 A 
ATOM     13  S   UNL     1      -4.086  -0.249  24.490  0.00  0.00    -0.071 S 
ATOM     21  C   UNL     1      -2.380   0.829  25.124  0.00  0.00    +0.043 C 
ATOM     22  C   UNL     1      -1.598   0.632  25.295  0.00  0.00    +0.006 C 
ATOM     23  C   UNL     1      -2.632   1.612  25.193  0.00  0.00    +0.036 C 
ATOM     24  C   UNL     1      -2.103   2.197  25.432  0.00  0.00    +0.153 C 
ATOM     25  O   UNL     1      -1.321   2.000  25.604  0.00  0.00    -0.223 OA
ENDROOT
BRANCH  12  14
ATOM     14  C   UNL     1      -3.707  -1.662  24.345  0.00  0.00    +0.024 A 
ATOM     15  C   UNL     1      -3.328  -2.263  24.763  0.00  0.00    +0.004 A 
ATOM     16  C   UNL     1      -3.488  -3.053  24.585  0.00  0.00    +0.030 A 
ATOM     17  C   UNL     1      -4.026  -3.241  23.989  0.00  0.00    +0.140 A 
ATOM     18  F   UNL     1      -4.186  -4.030  23.811  0.00  0.00    -0.204 F 
ATOM     19  C   UNL     1      -4.405  -2.638  23.571  0.00  0.00    +0.030 A 
ATOM     20  C   UNL     1      -4.245  -1.849  23.749  0.00  0.00    +0.004 A 
ENDBRANCH  12  14
BRANCH   3   2
ATOM      1  C   UNL     1      -1.111   3.356  26.094  0.00  0.00    +0.010 C 
ATOM      2  C   UNL     1      -1.827   3.564  25.741  0.00  0.00    +0.079 C 
BRANCH   2  26
ATOM     26  C   UNL     1      -2.014   4.360  25.628  0.00  0.00    +0.225 C 
ATOM     27  O   UNL     1      -2.715   4.667  25.936  0.00  0.00    -0.275 OA
ATOM     28  N   UNL     1      -1.499   4.849  25.206  0.00  0.00    -0.280 N 
ATOM     29  C   UNL     1      -1.612   5.651  25.050  0.00  0.00    +0.093 C 
ATOM     30  C   UNL     1      -0.964   5.919  24.615  0.00  0.00    +0.023 C 
ATOM     31  C   UNL     1      -0.452   5.282  24.503  0.00  0.00    +0.023 C 
ATOM     32  C   UNL     1      -0.782   4.621  24.868  0.00  0.00    +0.093 C 
ENDBRANCH   2  26
ENDBRANCH   3   2
TORSDOF 3
ENDMDL
MODEL 3
REMARK VINA RESULT:     -12.8      0.943      1.734
REMARK  Name = 
REMARK  3 active torsions:
REMARK  status: ('A' for Active; 'I' for Inactive)
REMARK    1  A    between atoms: C_2  and  C_3
REMARK    2  A    between atoms: C_2  and  C_26
REMARK    3  A    between atoms: C_12  and  C_14
REMARK                            x       y       z     vdW  Elec       q    Type
REMARK                         _______ _______ _______ _____ _____    ______ ____
ROOT
ATOM      3  C   UNL     1      -2.466  -0.885  25.363  0.00  0.00    +0.039 C 
ATOM      4  C   UNL     1      -1.653  -0.985  25.463  0.00  0.00    +0.003 C 
ATOM      5  C   UNL     1      -1.154  -0.329  25.464  0.00  0.00    +0.001 C 
ATOM      6  C   UNL     1      -1.466   0.427  25.365  0.00  0.00    +0.007 C 
ATOM      7  C   UNL     1      -0.655   0.327  25.466  0.00  0.00    +0.000 C 
ATOM      8  C   UNL     1      -0.967   1.085  25.366  0.00  0.00    +0.034 C 
ATOM      9  C   UNL     1      -1.280   1.841  25.267  0.00  0.00    +0.022 A 
ATOM     10  C   UNL     1      -2.094   1.941  25.167  0.00  0.00    +0.061 A 
ATOM     11  N   UNL     1      -2.242   2.748  25.082  0.00  0.00    -0.243 NA
ATOM     12  C   UNL     1      -1.521   3.147  25.130  0.00  0.00    +0.110 A 
ATOM     13  S   UNL     1      -0.927   2.586  25.245  0.00  0.00    -0.071 S 
ATOM     21  C   UNL     1      -2.593   1.285  25.166  0.00  0.00    +0.043 C 
ATOM     22  C   UNL     1      -3.405   1.385  25.065  0.00  0.00    +0.006 C 
ATOM     23  C   UNL     1      -2.280   0.528  25.265  0.00  0.00    +0.036 C 
ATOM     24  C   UNL     1      -2.779  -0.129  25.264  0.00  0.00    +0.153 C 
ATOM     25  O   UNL     1      -3.592  -0.028  25.163  0.00  0.00    -0.223 OA
ENDROOT
BRANCH  12  14
ATOM     14  C   UNL     1      -1.414   3.963  25.074  0.00  0.00    +0.024 A 
ATOM     15  C   UNL     1      -0.731   4.265  24.725  0.00  0.00    +0.004 A 
ATOM     16  C   UNL     1      -0.623   5.081  24.668  0.00  0.00    +0.030 A 
ATOM     17  C   UNL     1      -1.199   5.595  24.961  0.00  0.00    +0.140 A 
ATOM     18  F   UNL     1      -1.091   6.411  24.904  0.00  0.00    -0.204 F 
ATOM     19  C   UNL     1      -1.883   5.292  25.310  0.00  0.00    +0.030 A 
ATOM     20  C   UNL     1      -1.990   4.476  25.367  0.00  0.00    +0.004 A 
ENDBRANCH  12  14
BRANCH   3   2
ATOM      1  C   UNL     1      -3.625  -1.561  25.857  0.00  0.00    +0.010 C 
ATOM      2  C   UNL     1      -2.965  -1.542  25.362  0.00  0.00    +0.079 C 
BRANCH   2  26
ATOM     26  C   UNL     1      -2.804  -2.181  24.865  0.00  0.00    +0.225 C 
ATOM     27  O   UNL     1      -2.060  -2.539  24.880  0.00  0.00    -0.275 OA
ATOM     28  N   UNL     1      -3.387  -2.462  24.352  0.00  0.00    -0.280 N 
ATOM     29  C   UNL     1      -3.307  -3.092  23.826  0.00  0.00    +0.093 C 
ATOM     30  C   UNL     1      -4.022  -3.182  23.425  0.00  0.00    +0.023 C 
ATOM     31  C   UNL     1      -4.544  -2.607  23.703  0.00  0.00    +0.023 C 
ATOM     32  C   UNL     1      -4.151  -2.162  24.276  0.00  0.00    +0.093 C 
ENDBRANCH   2  26
ENDBRANCH   3   2
TORSDOF 3
ENDMDL
MODEL 4
REMARK VINA RESULT:     -11.3      3.298      4.587
REMARK  Name = 
REMARK  3 active torsions:
REMARK  status: ('A' for Active; 'I' for Inactive)
REMARK    1  A    between atoms: C_2  and  C_3
REMARK    2  A    between atoms: C_2  and  C_26
REMARK    3  A    between atoms: C_12  and  C_14
REMARK                            x       y       z     vdW  Elec       q    Type
REMARK                         _______ _______ _______ _____ _____    ______ ____
ROOT
ATOM      3  C   UNL     1      -3.189   3.103  24.849  0.00  0.00    +0.039 C 
ATOM      4  C   UNL     1      -2.738   3.371  25.487  0.00  0.00    +0.003 C 
ATOM      5  C   UNL     1      -1.945   3.155  25.550  0.00  0.00    +0.001 C 
ATOM      6  C   UNL     1      -1.602   2.673  24.976  0.00  0.00    +0.007 C 
ATOM      7  C   UNL     1      -1.152   2.940  25.613  0.00  0.00    +0.000 C 
ATOM      8  C   UNL     1      -0.808   2.457  25.039  0.00  0.00    +0.034 C 
ATOM      9  C   UNL     1      -0.464   1.974  24.466  0.00  0.00    +0.022 A 
ATOM     10  C   UNL     1      -0.916   1.706  23.828  0.00  0.00    +0.061 A 
ATOM     11  N   UNL     1      -0.430   1.240  23.351  0.00  0.00    -0.243 NA
ATOM     12  C   UNL     1       0.321   1.219  23.693  0.00  0.00    +0.110 A 
ATOM     13  S   UNL     1       0.299   1.673  24.381  0.00  0.00    -0.071 S 
ATOM     21  C   UNL     1      -1.709   1.922  23.765  0.00  0.00    +0.043 C 
ATOM     22  C   UNL     1      -2.159   1.654  23.127  0.00  0.00    +0.006 C 
ATOM     23  C   UNL     1      -2.053   2.405  24.338  0.00  0.00    +0.036 C 
ATOM     24  C   UNL     1      -2.846   2.620  24.275  0.00  0.00    +0.153 C 
ATOM     25  O   UNL     1      -3.296   2.353  23.638  0.00  0.00    -0.223 OA
ENDROOT
BRANCH  12  14
ATOM     14  C   UNL     1       0.977   0.816  23.398  0.00  0.00    +0.024 A 
ATOM     15  C   UNL     1       0.885   0.069  23.062  0.00  0.00    +0.004 A 
ATOM     16  C   UNL     1       1.541  -0.334  22.767  0.00  0.00    +0.030 A 
ATOM     17  C   UNL     1       2.290   0.009  22.808  0.00  0.00    +0.140 A 
ATOM     18  F   UNL     1       2.947  -0.394  22.513  0.00  0.00    -0.204 F 
ATOM     19  C   UNL     1       2.382   0.758  23.145  0.00  0.00    +0.030 A 
ATOM     20  C   UNL     1       1.726   1.161  23.440  0.00  0.00    +0.004 A 
ENDBRANCH  12  14
BRANCH   3   2
ATOM      1  C   UNL     1      -4.290   3.562  24.059  0.00  0.00    +0.010 C 
ATOM      2  C   UNL     1      -3.983   3.319  24.786  0.00  0.00    +0.079 C 
BRANCH   2  26
ATOM     26  C   UNL     1      -4.471   3.293  25.451  0.00  0.00    +0.225 C 
ATOM     27  O   UNL     1      -4.301   3.765  26.107  0.00  0.00    -0.275 OA
ATOM     28  N   UNL     1      -5.129   2.794  25.461  0.00  0.00    -0.280 N 
ATOM     29  C   UNL     1      -5.663   2.709  26.082  0.00  0.00    +0.093 C 
ATOM     30  C   UNL     1      -6.232   2.155  25.856  0.00  0.00    +0.023 C 
ATOM     31  C   UNL     1      -6.048   1.899  25.094  0.00  0.00    +0.023 C 
ATOM     32  C   UNL     1      -5.366   2.293  24.850  0.00  0.00    +0.093 C 
ENDBRANCH   2  26
ENDBRANCH   3   2
TORSDOF 3
ENDMDL
MODEL 5
REMARK VINA RESULT:     -11.0      3.106      4.906
REMARK  Name = 
REMARK  3 active torsions:
REMARK  status: ('A' for Active; 'I' for Inactive)
REMARK    1  A    between atoms: C_2  and  C_3
REMARK    2  A    between atoms: C_2  and  C_26
REMARK    3  A    between atoms: C_12  and  C_14
REMARK                            x       y       z     vdW  Elec       q    Type
REMARK                         _______ _______ _______ _____ _____    ______ ____
ROOT
ATOM      3  C   UNL     1       0.138   0.514  23.856  0.00  0.00    +0.039 C 
ATOM      4  C   UNL     1      -0.023  -0.228  24.183  0.00  0.00    +0.003 C 
ATOM      5  C   UNL     1      -0.774  -0.393  24.481  0.00  0.00    +0.001 C 
ATOM      6  C   UNL     1      -1.364   0.182  24.452  0.00  0.00    +0.007 C 
ATOM      7  C   UNL     1      -1.524  -0.558  24.778  0.00  0.00    +0.000 C 
ATOM      8  C   UNL     1      -2.116   0.017  24.750  0.00  0.00    +0.034 C 
ATOM      9  C   UNL     1      -2.706   0.591  24.722  0.00  0.00    +0.022 A 
ATOM     10  C   UNL     1      -2.546   1.333  24.395  0.00  0.00    +0.061 A 
ATOM     11  N   UNL     1      -3.234   1.786  24.443  0.00  0.00    -0.243 NA
ATOM     12  C   UNL     1      -3.819   1.326  24.798  0.00  0.00    +0.110 A 
ATOM     13  S   UNL     1      -3.493   0.588  24.971  0.00  0.00    -0.071 S 
ATOM     21  C   UNL     1      -1.795   1.498  24.097  0.00  0.00    +0.043 C 
ATOM     22  C   UNL     1      -1.635   2.238  23.771  0.00  0.00    +0.006 C 
ATOM     23  C   UNL     1      -1.204   0.923  24.125  0.00  0.00    +0.036 C 
ATOM     24  C   UNL     1      -0.453   1.088  23.828  0.00  0.00    +0.153 C 
ATOM     25  O   UNL     1      -0.293   1.829  23.501  0.00  0.00    -0.223 OA
ENDROOT
BRANCH  12  14
ATOM     14  C   UNL     1      -4.594   1.562  24.954  0.00  0.00    +0.024 A 
ATOM     15  C   UNL     1      -5.224   1.076  24.740  0.00  0.00    +0.004 A 
ATOM     16  C   UNL     1      -5.999   1.312  24.896  0.00  0.00    +0.030 A 
ATOM     17  C   UNL     1      -6.144   2.035  25.265  0.00  0.00    +0.140 A 
ATOM     18  F   UNL     1      -6.919   2.272  25.421  0.00  0.00    -0.204 F 
ATOM     19  C   UNL     1      -5.512   2.522  25.480  0.00  0.00    +0.030 A 
ATOM     20  C   UNL     1      -4.737   2.286  25.324  0.00  0.00    +0.004 A 
ENDBRANCH  12  14
BRANCH   3   2
ATOM      1  C   UNL     1       1.336   1.294  23.879  0.00  0.00    +0.010 C 
ATOM      2  C   UNL     1       0.889   0.679  23.558  0.00  0.00    +0.079 C 
BRANCH   2  26
ATOM     26  C   UNL     1       1.195   0.228  22.938  0.00  0.00    +0.225 C 
ATOM     27  O   UNL     1       0.699  -0.274  22.509  0.00  0.00    -0.275 OA
ATOM     28  N   UNL     1       1.996   0.278  22.746  0.00  0.00    -0.280 N 
ATOM     29  C   UNL     1       2.378  -0.136  22.145  0.00  0.00    +0.093 C 
ATOM     30  C   UNL     1       3.173   0.081  22.149  0.00  0.00    +0.023 C 
ATOM     31  C   UNL     1       3.283   0.631  22.755  0.00  0.00    +0.023 C 
ATOM     32  C   UNL     1       2.555   0.753  23.124  0.00  0.00    +0.093 C 
ENDBRANCH   2  26
ENDBRANCH   3   2
TORSDOF 3
ENDMDL
