REMARK  Name = 
REMARK  6 active torsions:
REMARK  status: ('A' for Active; 'I' for Inactive)
REMARK    1  A    between atoms: C_5  and  S_8
REMARK    2  A    between atoms: S_8  and  N_11
REMARK    3  A    between atoms: N_11  and  C_12
REMARK    4  A    between atoms: C_16  and  O_20
REMARK    5  A    between atoms: O_20  and  C_21
REMARK    6  A    between atoms: C_21  and  C_22
REMARK                            x       y       z     vdW  Elec       q    Type
REMARK                         _______ _______ _______ _____ _____    ______ ____
ROOT
ATOM     12  C   UNL     1       1.270  -0.922   0.000  0.00  0.00    +0.157 C 
ATOM     13  C   UNL     1       0.785  -0.255   0.000  0.00  0.00    +0.164 C 
ATOM     14  O   UNL     1       1.270   0.412   0.000  0.00  0.00    -0.350 OA
ATOM     15  C   UNL     1       2.054   0.158   0.000  0.00  0.00    +0.173 C 
ATOM     16  C   UNL     1       2.839   0.412   0.000  0.00  0.00    +0.175 C 
ATOM     17  C   UNL     1       3.324  -0.255   0.000  0.00  0.00    +0.174 C 
ATOM     18  O   UNL     1       2.839  -0.922   0.000  0.00  0.00    -0.349 OA
ATOM     19  C   UNL     1       2.054  -0.667   0.000  0.00  0.00    +0.165 C 
ENDROOT
BRANCH  12  11
ATOM     11  N   UNL     1       1.015  -1.707   0.000  0.00  0.00    -0.074 NA
BRANCH  11   8
ATOM      8  S   UNL     1       0.208  -1.879   0.000  0.00  0.00    +0.077 S 
ATOM      9  O   UNL     1       0.379  -2.686   0.000  0.00  0.00    -0.152 OA
ATOM     10  O   UNL     1       0.036  -1.072   0.000  0.00  0.00    -0.152 OA
BRANCH   8   5
ATOM      1  C   UNL     1      -3.020  -2.565   0.000  0.00  0.00    +0.031 C 
ATOM      2  C   UNL     1      -2.213  -2.393   0.000  0.00  0.00    -0.022 A 
ATOM      3  C   UNL     1      -1.958  -1.609   0.000  0.00  0.00    -0.003 A 
ATOM      4  C   UNL     1      -1.151  -1.437   0.000  0.00  0.00    +0.020 A 
ATOM      5  C   UNL     1      -0.599  -2.050   0.000  0.00  0.00    +0.124 A 
ATOM      6  C   UNL     1      -0.854  -2.835   0.000  0.00  0.00    +0.020 A 
ATOM      7  C   UNL     1      -1.661  -3.006   0.000  0.00  0.00    -0.003 A 
ENDBRANCH   8   5
ENDBRANCH  11   8
ENDBRANCH  12  11
BRANCH  16  20
ATOM     20  O   UNL     1       3.094   1.197   0.000  0.00  0.00    -0.342 OA
BRANCH  20  21
ATOM     21  C   UNL     1       2.542   1.810   0.000  0.00  0.00    +0.230 C 
BRANCH  21  22
ATOM     22  C   UNL     1       2.797   2.595   0.000  0.00  0.00    +0.291 C 
ATOM     23  N   UNL     1       2.245   3.208   0.000  0.00  0.00    -0.086 NA
ATOM     24  O   UNL     1       3.604   2.766   0.000  0.00  0.00    -0.269 OA
ENDBRANCH  21  22
ENDBRANCH  20  21
ENDBRANCH  16  20
TORSDOF 6
