MODEL 1
REMARK VINA RESULT:     -11.6      0.000      0.000
REMARK  Name = 
REMARK  9 active torsions:
REMARK  status: ('A' for Active; 'I' for Inactive)
REMARK    1  A    between atoms: O_2  and  C_3
REMARK    2  A    between atoms: C_3  and  C_4
REMARK    3  A    between atoms: C_4  and  N_5
REMARK    4  A    between atoms: N_5  and  C_6
REMARK    5  A    between atoms: C_7  and  C_12
REMARK    6  A    between atoms: C_15  and  C_17
REMARK    7  A    between atoms: N_21  and  C_22
REMARK    8  A    between atoms: C_22  and  C_23
REMARK    9  A    between atoms: C_26  and  C_29
REMARK                            x       y       z     vdW  Elec       q    Type
REMARK                         _______ _______ _______ _____ _____    ______ ____
ROOT
ATOM     12  C   UNL     1      -2.867   3.290  24.556  0.00  0.00    +0.206 A 
ATOM     13  N   UNL     1      -3.230   3.287  23.815  0.00  0.00    -0.056 NA
ATOM     14  O   UNL     1      -3.878   2.776  23.851  0.00  0.00    -0.336 OA
ATOM     15  C   UNL     1      -3.914   2.464  24.614  0.00  0.00    +0.251 A 
ATOM     16  N   UNL     1      -3.289   2.782  25.049  0.00  0.00    -0.190 NA
ENDROOT
BRANCH  12   7
ATOM      6  C   UNL     1      -1.446   3.403  24.657  0.00  0.00    +0.151 A 
ATOM      7  C   UNL     1      -2.198   3.725  24.766  0.00  0.00    +0.072 A 
ATOM      8  C   UNL     1      -2.282   4.481  25.085  0.00  0.00    +0.008 A 
ATOM      9  C   UNL     1      -1.613   4.916  25.295  0.00  0.00    +0.021 A 
ATOM     10  C   UNL     1      -0.861   4.596  25.186  0.00  0.00    +0.100 A 
ATOM     11  N   UNL     1      -0.777   3.839  24.867  0.00  0.00    -0.228 NA
BRANCH   6   5
ATOM      5  N   UNL     1      -1.362   2.648  24.339  0.00  0.00    -0.218 NA
BRANCH   5   4
ATOM      4  C   UNL     1      -0.628   2.271  24.355  0.00  0.00    +0.146 C 
BRANCH   4   3
ATOM      3  C   UNL     1      -0.505   1.586  23.913  0.00  0.00    +0.166 C 
BRANCH   3   2
ATOM      1  C   UNL     1      -0.037   0.239  23.822  0.00  0.00    +0.174 C 
ATOM      2  O   UNL     1      -0.177   0.918  24.269  0.00  0.00    -0.349 OA
ENDBRANCH   3   2
ENDBRANCH   4   3
ENDBRANCH   5   4
ENDBRANCH   6   5
ENDBRANCH  12   7
BRANCH  15  17
ATOM     17  C   UNL     1      -4.476   1.929  24.892  0.00  0.00    +0.138 C 
ATOM     18  C   UNL     1      -5.157   2.119  25.319  0.00  0.00    +0.027 C 
ATOM     19  C   UNL     1      -5.558   1.416  25.484  0.00  0.00    +0.019 C 
ATOM     20  C   UNL     1      -5.126   0.793  25.160  0.00  0.00    +0.073 C 
ATOM     21  N   UNL     1      -4.457   1.110  24.794  0.00  0.00    -0.263 NA
BRANCH  21  22
ATOM     22  C   UNL     1      -3.872   0.682  24.400  0.00  0.00    +0.099 C 
BRANCH  22  23
ATOM     23  C   UNL     1      -3.823  -0.135  24.496  0.00  0.00    -0.006 A 
ATOM     24  C   UNL     1      -3.488  -0.451  25.181  0.00  0.00    -0.003 A 
ATOM     25  C   UNL     1      -3.439  -1.269  25.276  0.00  0.00    +0.006 A 
ATOM     26  C   UNL     1      -3.725  -1.771  24.688  0.00  0.00    +0.080 A 
ATOM     27  C   UNL     1      -4.060  -1.456  24.003  0.00  0.00    +0.006 A 
ATOM     28  C   UNL     1      -4.109  -0.637  23.907  0.00  0.00    -0.003 A 
BRANCH  26  29
ATOM     29  C   UNL     1      -3.676  -2.589  24.784  0.00  0.00    +0.388 C 
ATOM     30  O   UNL     1      -3.917  -3.090  24.174  0.00  0.00    -0.241 OA
ATOM     31  O   UNL     1      -3.387  -2.906  25.489  0.00  0.00    -0.241 OA
ENDBRANCH  26  29
ENDBRANCH  22  23
ENDBRANCH  21  22
ENDBRANCH  15  17
TORSDOF 9
ENDMDL
MODEL 2
REMARK VINA RESULT:     -10.8      1.149      3.025
REMARK  Name = 
REMARK  9 active torsions:
REMARK  status: ('A' for Active; 'I' for Inactive)
REMARK    1  A    between atoms: O_2  and  C_3
REMARK    2  A    between atoms: C_3  and  C_4
REMARK    3  A    between atoms: C_4  and  N_5
REMARK    4  A    between atoms: N_5  and  C_6
REMARK    5  A    between atoms: C_7  and  C_12
REMARK    6  A    between atoms: C_15  and  C_17
REMARK    7  A    between atoms: N_21  and  C_22
REMARK    8  A    between atoms: C_22  and  C_23
REMARK    9  A    between atoms: C_26  and  C_29
REMARK                            x       y       z     vdW  Elec       q    Type
REMARK                         _______ _______ _______ _____ _____    ______ ____
ROOT
ATOM     12  C   UNL     1      -1.098   2.868  25.368  0.00  0.00    +0.206 A 
ATOM     13  N   UNL     1      -0.957   2.490  26.088  0.00  0.00    -0.056 NA
ATOM     14  O   UNL     1      -0.774   1.701  25.930  0.00  0.00    -0.336 OA
ATOM     15  C   UNL     1      -0.802   1.591  25.112  0.00  0.00    +0.251 A 
ATOM     16  N   UNL     1      -1.002   2.313  24.765  0.00  0.00    -0.190 NA
ENDROOT
BRANCH  12   7
ATOM      6  C   UNL     1      -2.090   3.894  25.304  0.00  0.00    +0.151 A 
ATOM      7  C   UNL     1      -1.299   3.662  25.268  0.00  0.00    +0.072 A 
ATOM      8  C   UNL     1      -0.710   4.223  25.134  0.00  0.00    +0.008 A 
ATOM      9  C   UNL     1      -0.911   5.017  25.035  0.00  0.00    +0.021 A 
ATOM     10  C   UNL     1      -1.702   5.250  25.070  0.00  0.00    +0.100 A 
ATOM     11  N   UNL     1      -2.291   4.688  25.204  0.00  0.00    -0.228 NA
BRANCH   6   5
ATOM      5  N   UNL     1      -2.679   3.333  25.438  0.00  0.00    -0.218 NA
BRANCH   5   4
ATOM      4  C   UNL     1      -3.474   3.539  25.350  0.00  0.00    +0.146 C 
BRANCH   4   3
ATOM      3  C   UNL     1      -4.064   3.030  25.617  0.00  0.00    +0.166 C 
BRANCH   3   2
ATOM      1  C   UNL     1      -5.384   2.499  25.480  0.00  0.00    +0.174 C 
ATOM      2  O   UNL     1      -4.744   2.912  25.164  0.00  0.00    -0.349 OA
ENDBRANCH   3   2
ENDBRANCH   4   3
ENDBRANCH   5   4
ENDBRANCH   6   5
ENDBRANCH  12   7
BRANCH  15  17
ATOM     17  C   UNL     1      -0.656   0.885  24.712  0.00  0.00    +0.138 C 
ATOM     18  C   UNL     1       0.005   0.720  24.245  0.00  0.00    +0.027 C 
ATOM     19  C   UNL     1      -0.075  -0.047  23.953  0.00  0.00    +0.019 C 
ATOM     20  C   UNL     1      -0.785  -0.356  24.238  0.00  0.00    +0.073 C 
ATOM     21  N   UNL     1      -1.143   0.220  24.708  0.00  0.00    -0.263 NA
BRANCH  21  22
ATOM     22  C   UNL     1      -1.863   0.144  25.103  0.00  0.00    +0.099 C 
BRANCH  22  23
ATOM     23  C   UNL     1      -2.393  -0.449  24.885  0.00  0.00    -0.006 A 
ATOM     24  C   UNL     1      -2.984  -0.291  24.331  0.00  0.00    -0.003 A 
ATOM     25  C   UNL     1      -3.514  -0.884  24.113  0.00  0.00    +0.006 A 
ATOM     26  C   UNL     1      -3.454  -1.635  24.448  0.00  0.00    +0.080 A 
ATOM     27  C   UNL     1      -2.863  -1.794  25.002  0.00  0.00    +0.006 A 
ATOM     28  C   UNL     1      -2.332  -1.200  25.220  0.00  0.00    -0.003 A 
BRANCH  26  29
ATOM     29  C   UNL     1      -3.984  -2.229  24.230  0.00  0.00    +0.388 C 
ATOM     30  O   UNL     1      -4.675  -2.034  23.823  0.00  0.00    -0.241 OA
ATOM     31  O   UNL     1      -3.823  -3.016  24.419  0.00  0.00    -0.241 OA
ENDBRANCH  26  29
ENDBRANCH  22  23
ENDBRANCH  21  22
ENDBRANCH  15  17
TORSDOF 9
ENDMDL
MODEL 3
REMARK VINA RESULT:     -10.6      1.701      5.594
REMARK  Name = 
REMARK  9 active torsions:
REMARK  status: ('A' for Active; 'I' for Inactive)
REMARK    1  A    between atoms: O_2  and  C_3
REMARK    2  A    between atoms: C_3  and  C_4
REMARK    3  A    between atoms: C_4  and  N_5
REMARK    4  A    between atoms: N_5  and  C_6
REMARK    5  A    between atoms: C_7  and  C_12
REMARK    6  A    between atoms: C_15  and  C_17
REMARK    7  A    between atoms: N_21  and  C_22
REMARK    8  A    between atoms: C_22  and  C_23
REMARK    9  A    between atoms: C_26  and  C_29
REMARK                            x       y       z     vdW  Elec       q    Type
REMARK                         _______ _______ _______ _____ _____    ______ ____
ROOT
ATOM     12  C   UNL     1      -2.292  -0.935  24.858  0.00  0.00    +0.206 A 
ATOM     13  N   UNL     1      -1.986  -0.899  25.624  0.00  0.00    -0.056 NA
ATOM     14  O   UNL     1      -1.334  -0.392  25.614  0.00  0.00    -0.336 OA
ATOM     15  C   UNL     1      -1.238  -0.115  24.843  0.00  0.00    +0.251 A 
ATOM     16  N   UNL     1      -1.830  -0.450  24.376  0.00  0.00    -0.190 NA
ENDROOT
BRANCH  12   7
ATOM      6  C   UNL     1      -3.690  -1.024  24.578  0.00  0.00    +0.151 A 
ATOM      7  C   UNL     1      -2.945  -1.377  24.617  0.00  0.00    +0.072 A 
ATOM      8  C   UNL     1      -2.854  -2.171  24.416  0.00  0.00    +0.008 A 
ATOM      9  C   UNL     1      -3.507  -2.613  24.175  0.00  0.00    +0.021 A 
ATOM     10  C   UNL     1      -4.252  -2.262  24.136  0.00  0.00    +0.100 A 
ATOM     11  N   UNL     1      -4.344  -1.466  24.338  0.00  0.00    -0.228 NA
BRANCH   6   5
ATOM      5  N   UNL     1      -3.782  -0.230  24.780  0.00  0.00    -0.218 NA
BRANCH   5   4
ATOM      4  C   UNL     1      -4.515   0.137  24.691  0.00  0.00    +0.146 C 
BRANCH   4   3
ATOM      3  C   UNL     1      -4.666   0.856  25.066  0.00  0.00    +0.166 C 
BRANCH   3   2
ATOM      1  C   UNL     1      -5.389   2.087  25.119  0.00  0.00    +0.174 C 
ATOM      2  O   UNL     1      -5.142   1.422  24.700  0.00  0.00    -0.349 OA
ENDBRANCH   3   2
ENDBRANCH   4   3
ENDBRANCH   5   4
ENDBRANCH   6   5
ENDBRANCH  12   7
BRANCH  15  17
ATOM     17  C   UNL     1      -0.653   0.406  24.584  0.00  0.00    +0.138 C 
ATOM     18  C   UNL     1      -0.028   0.220  24.078  0.00  0.00    +0.027 C 
ATOM     19  C   UNL     1       0.421   0.903  23.967  0.00  0.00    +0.019 C 
ATOM     20  C   UNL     1       0.075   1.510  24.404  0.00  0.00    +0.073 C 
ATOM     21  N   UNL     1      -0.589   1.203  24.786  0.00  0.00    -0.263 NA
BRANCH  21  22
ATOM     22  C   UNL     1      -1.099   1.620  25.283  0.00  0.00    +0.099 C 
BRANCH  22  23
ATOM     23  C   UNL     1      -1.134   2.442  25.242  0.00  0.00    -0.006 A 
ATOM     24  C   UNL     1      -0.631   2.901  25.709  0.00  0.00    -0.003 A 
ATOM     25  C   UNL     1      -0.666   3.724  25.668  0.00  0.00    +0.006 A 
ATOM     26  C   UNL     1      -1.203   4.089  25.160  0.00  0.00    +0.080 A 
ATOM     27  C   UNL     1      -1.706   3.632  24.692  0.00  0.00    +0.006 A 
ATOM     28  C   UNL     1      -1.671   2.808  24.733  0.00  0.00    -0.003 A 
BRANCH  26  29
ATOM     29  C   UNL     1      -1.238   4.913  25.118  0.00  0.00    +0.388 C 
ATOM     30  O   UNL     1      -1.880   5.315  25.447  0.00  0.00    -0.241 OA
ATOM     31  O   UNL     1      -0.633   5.334  24.748  0.00  0.00    -0.241 OA
ENDBRANCH  26  29
ENDBRANCH  22  23
ENDBRANCH  21  22
ENDBRANCH  15  17
TORSDOF 9
ENDMDL
MODEL 4
REMARK VINA RESULT:     -10.5      1.722      4.873
REMARK  Name = 
REMARK  9 active torsions:
REMARK  status: ('A' for Active; 'I' for Inactive)
REMARK    1  A    between atoms: O_2  and  C_3
REMARK    2  A    between atoms: C_3  and  C_4
REMARK    3  A    between atoms: C_4  and  N_5
REMARK    4  A    between atoms: N_5  and  C_6
REMARK    5  A    between atoms: C_7  and  C_12
REMARK    6  A    between atoms: C_15  and  C_17
REMARK    7  A    between atoms: N_21  and  C_22
REMARK    8  A    between atoms: C_22  and  C_23
REMARK    9  A    between atoms: C_26  and  C_29
REMARK                            x       y       z     vdW  Elec       q    Type
REMARK                         _______ _______ _______ _____ _____    ______ ____
ROOT
ATOM     12  C   UNL     1      -3.906  -0.662  24.882  0.00  0.00    +0.206 A 
ATOM     13  N   UNL     1      -3.955  -0.490  25.688  0.00  0.00    -0.056 NA
ATOM     14  O   UNL     1      -4.136   0.312  25.767  0.00  0.00    -0.336 OA
ATOM     15  C   UNL     1      -4.200   0.634  25.010  0.00  0.00    +0.251 A 
ATOM     16  N   UNL     1      -4.058   0.032  24.464  0.00  0.00    -0.190 NA
ENDROOT
BRANCH  12   7
ATOM      6  C   UNL     1      -2.955  -1.664  24.518  0.00  0.00    +0.151 A 
ATOM      7  C   UNL     1      -3.736  -1.400  24.554  0.00  0.00    +0.072 A 
ATOM      8  C   UNL     1      -4.346  -1.871  24.262  0.00  0.00    +0.008 A 
ATOM      9  C   UNL     1      -4.175  -2.609  23.934  0.00  0.00    +0.021 A 
ATOM     10  C   UNL     1      -3.395  -2.875  23.897  0.00  0.00    +0.100 A 
ATOM     11  N   UNL     1      -2.785  -2.402  24.190  0.00  0.00    -0.228 NA
BRANCH   6   5
ATOM      5  N   UNL     1      -2.345  -1.193  24.810  0.00  0.00    -0.218 NA
BRANCH   5   4
ATOM      4  C   UNL     1      -1.560  -1.382  24.643  0.00  0.00    +0.146 C 
BRANCH   4   3
ATOM      3  C   UNL     1      -0.957  -0.854  24.836  0.00  0.00    +0.166 C 
BRANCH   3   2
ATOM      1  C   UNL     1       0.076  -0.183  24.112  0.00  0.00    +0.174 C 
ATOM      2  O   UNL     1      -0.241  -0.875  24.427  0.00  0.00    -0.349 OA
ENDBRANCH   3   2
ENDBRANCH   4   3
ENDBRANCH   5   4
ENDBRANCH   6   5
ENDBRANCH  12   7
BRANCH  15  17
ATOM     17  C   UNL     1      -4.375   1.419  24.830  0.00  0.00    +0.138 C 
ATOM     18  C   UNL     1      -5.115   1.714  24.611  0.00  0.00    +0.027 C 
ATOM     19  C   UNL     1      -5.038   2.526  24.484  0.00  0.00    +0.019 C 
ATOM     20  C   UNL     1      -4.253   2.733  24.624  0.00  0.00    +0.073 C 
ATOM     21  N   UNL     1      -3.843   2.049  24.839  0.00  0.00    -0.263 NA
BRANCH  21  22
ATOM     22  C   UNL     1      -3.041   2.004  25.028  0.00  0.00    +0.099 C 
BRANCH  22  23
ATOM     23  C   UNL     1      -2.581   2.689  25.042  0.00  0.00    -0.006 A 
ATOM     24  C   UNL     1      -2.113   2.885  24.391  0.00  0.00    -0.003 A 
ATOM     25  C   UNL     1      -1.654   3.569  24.404  0.00  0.00    +0.006 A 
ATOM     26  C   UNL     1      -1.661   4.058  25.068  0.00  0.00    +0.080 A 
ATOM     27  C   UNL     1      -2.129   3.863  25.720  0.00  0.00    +0.006 A 
ATOM     28  C   UNL     1      -2.589   3.178  25.706  0.00  0.00    -0.003 A 
BRANCH  26  29
ATOM     29  C   UNL     1      -1.201   4.743  25.082  0.00  0.00    +0.388 C 
ATOM     30  O   UNL     1      -0.383   4.692  24.986  0.00  0.00    -0.241 OA
ATOM     31  O   UNL     1      -1.559   5.479  25.192  0.00  0.00    -0.241 OA
ENDBRANCH  26  29
ENDBRANCH  22  23
ENDBRANCH  21  22
ENDBRANCH  15  17
TORSDOF 9
ENDMDL
MODEL 5
REMARK VINA RESULT:      -9.7      1.747      4.510
REMARK  Name = 
REMARK  9 active torsions:
REMARK  status: ('A' for Active; 'I' for Inactive)
REMARK    1  A    between atoms: O_2  and  C_3
REMARK    2  A    between atoms: C_3  and  C_4
REMARK    3  A    between atoms: C_4  and  N_5
REMARK    4  A    between atoms: N_5  and  C_6
REMARK    5  A    between atoms: C_7  and  C_12
REMARK    6  A    between atoms: C_15  and  C_17
REMARK    7  A    between atoms: N_21  and  C_22
REMARK    8  A    between atoms: C_22  and  C_23
REMARK    9  A    between atoms: C_26  and  C_29
REMARK                            x       y       z     vdW  Elec       q    Type
REMARK                         _______ _______ _______ _____ _____    ______ ____
ROOT
ATOM     12  C   UNL     1      -0.011   1.857  24.696  0.00  0.00    +0.206 A 
ATOM     13  N   UNL     1       0.216   1.984  25.480  0.00  0.00    -0.056 NA
ATOM     14  O   UNL     1      -0.108   2.702  25.725  0.00  0.00    -0.336 OA
ATOM     15  C   UNL     1      -0.535   3.019  25.094  0.00  0.00    +0.251 A 
ATOM     16  N   UNL     1      -0.474   2.496  24.458  0.00  0.00    -0.190 NA
ENDROOT
BRANCH  12   7
ATOM      6  C   UNL     1      -0.239   0.504  24.298  0.00  0.00    +0.151 A 
ATOM      7  C   UNL     1       0.191   1.205  24.233  0.00  0.00    +0.072 A 
ATOM      8  C   UNL     1       0.823   1.254  23.705  0.00  0.00    +0.008 A 
ATOM      9  C   UNL     1       1.025   0.602  23.242  0.00  0.00    +0.021 A 
ATOM     10  C   UNL     1       0.595  -0.099  23.306  0.00  0.00    +0.100 A 
ATOM     11  N   UNL     1      -0.037  -0.148  23.835  0.00  0.00    -0.228 NA
BRANCH   6   5
ATOM      5  N   UNL     1      -0.870   0.455  24.826  0.00  0.00    -0.218 NA
BRANCH   5   4
ATOM      4  C   UNL     1      -1.376  -0.197  24.806  0.00  0.00    +0.146 C 
BRANCH   4   3
ATOM      3  C   UNL     1      -1.904  -0.329  25.425  0.00  0.00    +0.166 C 
BRANCH   3   2
ATOM      1  C   UNL     1      -3.137  -1.003  25.685  0.00  0.00    +0.174 C 
ATOM      2  O   UNL     1      -2.707  -0.438  25.268  0.00  0.00    -0.349 OA
ENDBRANCH   3   2
ENDBRANCH   4   3
ENDBRANCH   5   4
ENDBRANCH   6   5
ENDBRANCH  12   7
BRANCH  15  17
ATOM     17  C   UNL     1      -0.949   3.732  25.097  0.00  0.00    +0.138 C 
ATOM     18  C   UNL     1      -0.662   4.461  24.836  0.00  0.00    +0.027 C 
ATOM     19  C   UNL     1      -1.259   5.021  24.940  0.00  0.00    +0.019 C 
ATOM     20  C   UNL     1      -1.913   4.640  25.265  0.00  0.00    +0.073 C 
ATOM     21  N   UNL     1      -1.722   3.843  25.362  0.00  0.00    -0.263 NA
BRANCH  21  22
ATOM     22  C   UNL     1      -2.217   3.260  25.670  0.00  0.00    +0.099 C 
BRANCH  22  23
ATOM     23  C   UNL     1      -3.036   3.351  25.631  0.00  0.00    -0.006 A 
ATOM     24  C   UNL     1      -3.452   3.063  24.979  0.00  0.00    -0.003 A 
ATOM     25  C   UNL     1      -4.271   3.153  24.939  0.00  0.00    +0.006 A 
ATOM     26  C   UNL     1      -4.674   3.532  25.551  0.00  0.00    +0.080 A 
ATOM     27  C   UNL     1      -4.259   3.820  26.203  0.00  0.00    +0.006 A 
ATOM     28  C   UNL     1      -3.439   3.729  26.243  0.00  0.00    -0.003 A 
BRANCH  26  29
ATOM     29  C   UNL     1      -5.494   3.623  25.512  0.00  0.00    +0.388 C 
ATOM     30  O   UNL     1      -5.975   2.965  25.384  0.00  0.00    -0.241 OA
ATOM     31  O   UNL     1      -5.831   4.371  25.600  0.00  0.00    -0.241 OA
ENDBRANCH  26  29
ENDBRANCH  22  23
ENDBRANCH  21  22
ENDBRANCH  15  17
TORSDOF 9
ENDMDL
MODEL 6
REMARK VINA RESULT:      -9.3      1.748      3.866
REMARK  Name = 
REMARK  9 active torsions:
REMARK  status: ('A' for Active; 'I' for Inactive)
REMARK    1  A    between atoms: O_2  and  C_3
REMARK    2  A    between atoms: C_3  and  C_4
REMARK    3  A    between atoms: C_4  and  N_5
REMARK    4  A    between atoms: N_5  and  C_6
REMARK    5  A    between atoms: C_7  and  C_12
REMARK    6  A    between atoms: C_15  and  C_17
REMARK    7  A    between atoms: N_21  and  C_22
REMARK    8  A    between atoms: C_22  and  C_23
REMARK    9  A    between atoms: C_26  and  C_29
REMARK                            x       y       z     vdW  Elec       q    Type
REMARK                         _______ _______ _______ _____ _____    ______ ____
ROOT
ATOM     12  C   UNL     1      -0.732  -0.484  24.374  0.00  0.00    +0.206 A 
ATOM     13  N   UNL     1      -0.725  -0.802  25.136  0.00  0.00    -0.056 NA
ATOM     14  O   UNL     1      -1.483  -1.086  25.301  0.00  0.00    -0.336 OA
ATOM     15  C   UNL     1      -1.957  -0.943  24.641  0.00  0.00    +0.251 A 
ATOM     16  N   UNL     1      -1.493  -0.572  24.069  0.00  0.00    -0.190 NA
ENDROOT
BRANCH  12   7
ATOM      6  C   UNL     1       0.110   0.646  24.140  0.00  0.00    +0.151 A 
ATOM      7  C   UNL     1      -0.090  -0.140  23.987  0.00  0.00    +0.072 A 
ATOM      8  C   UNL     1       0.352  -0.581  23.449  0.00  0.00    +0.008 A 
ATOM      9  C   UNL     1       0.994  -0.237  23.062  0.00  0.00    +0.021 A 
ATOM     10  C   UNL     1       1.194   0.549  23.213  0.00  0.00    +0.100 A 
ATOM     11  N   UNL     1       0.752   0.990  23.752  0.00  0.00    -0.228 NA
BRANCH   6   5
ATOM      5  N   UNL     1      -0.331   1.087  24.678  0.00  0.00    -0.218 NA
BRANCH   5   4
ATOM      4  C   UNL     1      -0.202   1.899  24.751  0.00  0.00    +0.146 C 
BRANCH   4   3
ATOM      3  C   UNL     1      -0.546   2.317  25.373  0.00  0.00    +0.166 C 
BRANCH   3   2
ATOM      1  C   UNL     1      -1.360   3.395  25.839  0.00  0.00    +0.174 C 
ATOM      2  O   UNL     1      -0.999   2.989  25.219  0.00  0.00    -0.349 OA
ENDBRANCH   3   2
ENDBRANCH   4   3
ENDBRANCH   5   4
ENDBRANCH   6   5
ENDBRANCH  12   7
BRANCH  15  17
ATOM     17  C   UNL     1      -2.755  -1.138  24.566  0.00  0.00    +0.138 C 
ATOM     18  C   UNL     1      -3.055  -1.850  24.276  0.00  0.00    +0.027 C 
ATOM     19  C   UNL     1      -3.879  -1.807  24.299  0.00  0.00    +0.019 C 
ATOM     20  C   UNL     1      -4.088  -1.069  24.602  0.00  0.00    +0.073 C 
ATOM     21  N   UNL     1      -3.393  -0.655  24.767  0.00  0.00    -0.263 NA
BRANCH  21  22
ATOM     22  C   UNL     1      -3.345   0.107  25.079  0.00  0.00    +0.099 C 
BRANCH  22  23
ATOM     23  C   UNL     1      -4.002   0.605  25.054  0.00  0.00    -0.006 A 
ATOM     24  C   UNL     1      -4.603   0.524  25.615  0.00  0.00    -0.003 A 
ATOM     25  C   UNL     1      -5.259   1.022  25.590  0.00  0.00    +0.006 A 
ATOM     26  C   UNL     1      -5.316   1.601  25.005  0.00  0.00    +0.080 A 
ATOM     27  C   UNL     1      -4.716   1.682  24.444  0.00  0.00    +0.006 A 
ATOM     28  C   UNL     1      -4.059   1.183  24.469  0.00  0.00    -0.003 A 
BRANCH  26  29
ATOM     29  C   UNL     1      -5.974   2.099  24.980  0.00  0.00    +0.388 C 
ATOM     30  O   UNL     1      -6.673   1.841  24.625  0.00  0.00    -0.241 OA
ATOM     31  O   UNL     1      -5.931   2.855  25.309  0.00  0.00    -0.241 OA
ENDBRANCH  26  29
ENDBRANCH  22  23
ENDBRANCH  21  22
ENDBRANCH  15  17
TORSDOF 9
ENDMDL
MODEL 7
REMARK VINA RESULT:      -9.2      1.574      3.553
REMARK  Name = 
REMARK  9 active torsions:
REMARK  status: ('A' for Active; 'I' for Inactive)
REMARK    1  A    between atoms: O_2  and  C_3
REMARK    2  A    between atoms: C_3  and  C_4
REMARK    3  A    between atoms: C_4  and  N_5
REMARK    4  A    between atoms: N_5  and  C_6
REMARK    5  A    between atoms: C_7  and  C_12
REMARK    6  A    between atoms: C_15  and  C_17
REMARK    7  A    between atoms: N_21  and  C_22
REMARK    8  A    between atoms: C_22  and  C_23
REMARK    9  A    between atoms: C_26  and  C_29
REMARK                            x       y       z     vdW  Elec       q    Type
REMARK                         _______ _______ _______ _____ _____    ______ ____
ROOT
ATOM     12  C   UNL     1      -3.344   2.974  24.968  0.00  0.00    +0.206 A 
ATOM     13  N   UNL     1      -3.012   3.189  24.243  0.00  0.00    -0.056 NA
ATOM     14  O   UNL     1      -2.200   3.047  24.282  0.00  0.00    -0.336 OA
ATOM     15  C   UNL     1      -2.030   2.745  25.031  0.00  0.00    +0.251 A 
ATOM     16  N   UNL     1      -2.737   2.700  25.454  0.00  0.00    -0.190 NA
ENDROOT
BRANCH  12   7
ATOM      6  C   UNL     1      -4.637   2.375  25.059  0.00  0.00    +0.151 A 
ATOM      7  C   UNL     1      -4.142   3.026  25.169  0.00  0.00    +0.072 A 
ATOM      8  C   UNL     1      -4.444   3.727  25.481  0.00  0.00    +0.008 A 
ATOM      9  C   UNL     1      -5.242   3.778  25.683  0.00  0.00    +0.021 A 
ATOM     10  C   UNL     1      -5.738   3.128  25.573  0.00  0.00    +0.100 A 
ATOM     11  N   UNL     1      -5.436   2.426  25.261  0.00  0.00    -0.228 NA
BRANCH   6   5
ATOM      5  N   UNL     1      -4.335   1.674  24.747  0.00  0.00    -0.218 NA
BRANCH   5   4
ATOM      4  C   UNL     1      -4.780   0.980  24.783  0.00  0.00    +0.146 C 
BRANCH   4   3
ATOM      3  C   UNL     1      -4.571   0.331  24.320  0.00  0.00    +0.166 C 
BRANCH   3   2
ATOM      1  C   UNL     1      -4.365  -1.077  24.194  0.00  0.00    +0.174 C 
ATOM      2  O   UNL     1      -4.484  -0.413  24.667  0.00  0.00    -0.349 OA
ENDBRANCH   3   2
ENDBRANCH   4   3
ENDBRANCH   5   4
ENDBRANCH   6   5
ENDBRANCH  12   7
BRANCH  15  17
ATOM     17  C   UNL     1      -1.285   2.525  25.307  0.00  0.00    +0.138 C 
ATOM     18  C   UNL     1      -0.816   2.957  25.832  0.00  0.00    +0.027 C 
ATOM     19  C   UNL     1      -0.118   2.534  25.957  0.00  0.00    +0.019 C 
ATOM     20  C   UNL     1      -0.156   1.842  25.511  0.00  0.00    +0.073 C 
ATOM     21  N   UNL     1      -0.877   1.836  25.109  0.00  0.00    -0.263 NA
BRANCH  21  22
ATOM     22  C   UNL     1      -1.143   1.245  24.599  0.00  0.00    +0.099 C 
BRANCH  22  23
ATOM     23  C   UNL     1      -0.971   0.455  24.758  0.00  0.00    -0.006 A 
ATOM     24  C   UNL     1      -0.558   0.002  24.204  0.00  0.00    -0.003 A 
ATOM     25  C   UNL     1      -0.386  -0.788  24.363  0.00  0.00    +0.006 A 
ATOM     26  C   UNL     1      -0.626  -1.128  25.075  0.00  0.00    +0.080 A 
ATOM     27  C   UNL     1      -1.039  -0.676  25.629  0.00  0.00    +0.006 A 
ATOM     28  C   UNL     1      -1.211   0.115  25.470  0.00  0.00    -0.003 A 
BRANCH  26  29
ATOM     29  C   UNL     1      -0.455  -1.919  25.235  0.00  0.00    +0.388 C 
ATOM     30  O   UNL     1       0.213  -2.114  25.679  0.00  0.00    -0.241 OA
ATOM     31  O   UNL     1      -0.950  -2.515  24.950  0.00  0.00    -0.241 OA
ENDBRANCH  26  29
ENDBRANCH  22  23
ENDBRANCH  21  22
ENDBRANCH  15  17
TORSDOF 9
ENDMDL
MODEL 8
REMARK VINA RESULT:      -8.7      1.723      4.303
REMARK  Name = 
REMARK  9 active torsions:
REMARK  status: ('A' for Active; 'I' for Inactive)
REMARK    1  A    between atoms: O_2  and  C_3
REMARK    2  A    between atoms: C_3  and  C_4
REMARK    3  A    between atoms: C_4  and  N_5
REMARK    4  A    between atoms: N_5  and  C_6
REMARK    5  A    between atoms: C_7  and  C_12
REMARK    6  A    between atoms: C_15  and  C_17
REMARK    7  A    between atoms: N_21  and  C_22
REMARK    8  A    between atoms: C_22  and  C_23
REMARK    9  A    between atoms: C_26  and  C_29
REMARK                            x       y       z     vdW  Elec       q    Type
REMARK                         _______ _______ _______ _____ _____    ______ ____
ROOT
ATOM     12  C   UNL     1      -3.814   1.323  24.714  0.00  0.00    +0.206 A 
ATOM     13  N   UNL     1      -3.719   1.086  23.929  0.00  0.00    -0.056 NA
ATOM     14  O   UNL     1      -3.083   0.562  23.897  0.00  0.00    -0.336 OA
ATOM     15  C   UNL     1      -2.785   0.474  24.661  0.00  0.00    +0.251 A 
ATOM     16  N   UNL     1      -3.238   0.944  25.166  0.00  0.00    -0.190 NA
ENDROOT
BRANCH  12   7
ATOM      6  C   UNL     1      -4.194   2.638  25.125  0.00  0.00    +0.151 A 
ATOM      7  C   UNL     1      -4.387   1.845  24.997  0.00  0.00    +0.072 A 
ATOM      8  C   UNL     1      -5.150   1.576  25.151  0.00  0.00    +0.008 A 
ATOM      9  C   UNL     1      -5.723   2.099  25.434  0.00  0.00    +0.021 A 
ATOM     10  C   UNL     1      -5.531   2.891  25.562  0.00  0.00    +0.100 A 
ATOM     11  N   UNL     1      -4.766   3.160  25.408  0.00  0.00    -0.228 NA
BRANCH   6   5
ATOM      5  N   UNL     1      -3.430   2.907  24.971  0.00  0.00    -0.218 NA
BRANCH   5   4
ATOM      4  C   UNL     1      -3.215   3.678  25.172  0.00  0.00    +0.146 C 
BRANCH   4   3
ATOM      3  C   UNL     1      -2.461   3.957  24.988  0.00  0.00    +0.166 C 
BRANCH   3   2
ATOM      1  C   UNL     1      -1.469   4.973  25.145  0.00  0.00    +0.174 C 
ATOM      2  O   UNL     1      -2.129   4.570  25.430  0.00  0.00    -0.349 OA
ENDBRANCH   3   2
ENDBRANCH   4   3
ENDBRANCH   5   4
ENDBRANCH   6   5
ENDBRANCH  12   7
BRANCH  15  17
ATOM     17  C   UNL     1      -2.148  -0.000  24.882  0.00  0.00    +0.138 C 
ATOM     18  C   UNL     1      -2.173  -0.629  25.416  0.00  0.00    +0.027 C 
ATOM     19  C   UNL     1      -1.413  -0.947  25.472  0.00  0.00    +0.019 C 
ATOM     20  C   UNL     1      -0.919  -0.515  24.973  0.00  0.00    +0.073 C 
ATOM     21  N   UNL     1      -1.373   0.070  24.608  0.00  0.00    -0.263 NA
BRANCH  21  22
ATOM     22  C   UNL     1      -1.099   0.627  24.065  0.00  0.00    +0.099 C 
BRANCH  22  23
ATOM     23  C   UNL     1      -0.315   0.605  23.810  0.00  0.00    -0.006 A 
ATOM     24  C   UNL     1      -0.082   0.057  23.238  0.00  0.00    -0.003 A 
ATOM     25  C   UNL     1       0.701   0.035  22.983  0.00  0.00    +0.006 A 
ATOM     26  C   UNL     1       1.253   0.559  23.300  0.00  0.00    +0.080 A 
ATOM     27  C   UNL     1       1.022   1.107  23.872  0.00  0.00    +0.006 A 
ATOM     28  C   UNL     1       0.237   1.129  24.127  0.00  0.00    -0.003 A 
BRANCH  26  29
ATOM     29  C   UNL     1       2.038   0.537  23.045  0.00  0.00    +0.388 C 
ATOM     30  O   UNL     1       2.565   1.127  23.280  0.00  0.00    -0.241 OA
ATOM     31  O   UNL     1       2.296  -0.076  22.555  0.00  0.00    -0.241 OA
ENDBRANCH  26  29
ENDBRANCH  22  23
ENDBRANCH  21  22
ENDBRANCH  15  17
TORSDOF 9
ENDMDL
