MODEL 1
REMARK VINA RESULT:      -9.7      0.000      0.000
REMARK  Name = 
REMARK  8 active torsions:
REMARK  status: ('A' for Active; 'I' for Inactive)
REMARK    1  A    between atoms: C_2  and  N_3
REMARK    2  A    between atoms: N_6  and  C_7
REMARK    3  A    between atoms: C_7  and  C_8
REMARK    4  A    between atoms: C_12  and  C_13
REMARK    5  A    between atoms: C_13  and  C_14
REMARK    6  A    between atoms: N_16  and  C_18
REMARK    7  A    between atoms: C_18  and  C_19
REMARK    8  A    between atoms: C_26  and  C_27
REMARK                            x       y       z     vdW  Elec       q    Type
REMARK                         _______ _______ _______ _____ _____    ______ ____
ROOT
ATOM      8  C   UNL     1      -0.578   1.366  24.302  0.00  0.00    +0.043 C 
ATOM      9  C   UNL     1      -0.375   2.156  24.176  0.00  0.00    -0.033 C 
ATOM     10  C   UNL     1      -0.884   2.757  24.423  0.00  0.00    -0.048 C 
ATOM     11  C   UNL     1      -0.681   3.546  24.298  0.00  0.00    +0.026 C 
ATOM     12  C   UNL     1      -1.596   2.567  24.794  0.00  0.00    +0.027 C 
ATOM     25  C   UNL     1      -1.799   1.777  24.919  0.00  0.00    +0.005 C 
ATOM     26  C   UNL     1      -1.290   1.177  24.673  0.00  0.00    +0.006 C 
ENDROOT
BRANCH  26  27
ATOM     27  C   UNL     1      -1.492   0.387  24.798  0.00  0.00    +0.000 C 
ATOM     28  C   UNL     1      -1.935  -0.020  24.234  0.00  0.00    +0.000 C 
ATOM     29  C   UNL     1      -1.251   0.004  25.487  0.00  0.00    +0.000 C 
ENDBRANCH  26  27
BRANCH   8   7
ATOM      7  C   UNL     1      -0.068   0.765  24.055  0.00  0.00    +0.121 C 
BRANCH   7   6
ATOM      3  N   UNL     1       1.886   0.593  23.098  0.00  0.00    -0.187 NA
ATOM      4  C   UNL     1       1.122   0.408  23.350  0.00  0.00    +0.339 C 
ATOM      5  O   UNL     1       0.786  -0.317  23.149  0.00  0.00    -0.249 OA
ATOM      6  N   UNL     1       0.695   0.950  23.803  0.00  0.00    -0.187 NA
BRANCH   3   2
ATOM      1  C   UNL     1       3.075   0.238  22.390  0.00  0.00    +0.025 C 
ATOM      2  C   UNL     1       2.313   0.051  22.645  0.00  0.00    +0.117 C 
ENDBRANCH   3   2
ENDBRANCH   7   6
ENDBRANCH   8   7
BRANCH  12  13
ATOM     13  C   UNL     1      -2.105   3.168  25.040  0.00  0.00    +0.089 C 
BRANCH  13  14
ATOM     14  C   UNL     1      -2.859   3.232  24.710  0.00  0.00    +0.226 C 
ATOM     15  O   UNL     1      -2.960   3.146  23.896  0.00  0.00    -0.275 OA
ATOM     16  N   UNL     1      -3.510   3.382  25.193  0.00  0.00    -0.274 N 
ATOM     17  C   UNL     1      -3.408   3.469  26.007  0.00  0.00    +0.115 C 
BRANCH  16  18
ATOM     18  C   UNL     1      -4.262   3.447  24.863  0.00  0.00    +0.120 C 
BRANCH  18  19
ATOM     19  C   UNL     1      -4.873   2.959  25.128  0.00  0.00    -0.002 A 
ATOM     20  C   UNL     1      -5.236   3.108  25.854  0.00  0.00    -0.003 A 
ATOM     21  C   UNL     1      -5.846   2.621  26.118  0.00  0.00    -0.000 A 
ATOM     22  C   UNL     1      -6.094   1.984  25.657  0.00  0.00    -0.000 A 
ATOM     23  C   UNL     1      -5.732   1.834  24.931  0.00  0.00    -0.000 A 
ATOM     24  C   UNL     1      -5.121   2.322  24.666  0.00  0.00    -0.003 A 
ENDBRANCH  18  19
ENDBRANCH  16  18
ENDBRANCH  13  14
ENDBRANCH  12  13
TORSDOF 8
ENDMDL
MODEL 2
REMARK VINA RESULT:      -9.5      2.561      4.228
REMARK  Name = 
REMARK  8 active torsions:
REMARK  status: ('A' for Active; 'I' for Inactive)
REMARK    1  A    between atoms: C_2  and  N_3
REMARK    2  A    between atoms: N_6  and  C_7
REMARK    3  A    between atoms: C_7  and  C_8
REMARK    4  A    between atoms: C_12  and  C_13
REMARK    5  A    between atoms: C_13  and  C_14
REMARK    6  A    between atoms: N_16  and  C_18
REMARK    7  A    between atoms: C_18  and  C_19
REMARK    8  A    between atoms: C_26  and  C_27
REMARK                            x       y       z     vdW  Elec       q    Type
REMARK                         _______ _______ _______ _____ _____    ______ ____
ROOT
ATOM      8  C   UNL     1      -3.987   0.724  24.220  0.00  0.00    +0.043 C 
ATOM      9  C   UNL     1      -4.623   0.888  24.719  0.00  0.00    -0.033 C 
ATOM     10  C   UNL     1      -4.729   1.652  25.013  0.00  0.00    -0.048 C 
ATOM     11  C   UNL     1      -5.366   1.816  25.512  0.00  0.00    +0.026 C 
ATOM     12  C   UNL     1      -4.199   2.251  24.810  0.00  0.00    +0.027 C 
ATOM     25  C   UNL     1      -3.563   2.085  24.311  0.00  0.00    +0.005 C 
ATOM     26  C   UNL     1      -3.456   1.323  24.016  0.00  0.00    +0.006 C 
ENDROOT
BRANCH  26  27
ATOM     27  C   UNL     1      -2.820   1.157  23.518  0.00  0.00    +0.000 C 
ATOM     28  C   UNL     1      -2.897   1.258  22.703  0.00  0.00    +0.000 C 
ATOM     29  C   UNL     1      -2.107   0.891  23.835  0.00  0.00    +0.000 C 
ENDBRANCH  26  27
BRANCH   8   7
ATOM      7  C   UNL     1      -3.880  -0.040  23.925  0.00  0.00    +0.121 C 
BRANCH   7   6
ATOM      3  N   UNL     1      -3.871  -2.092  24.668  0.00  0.00    -0.187 NA
ATOM      4  C   UNL     1      -3.901  -1.451  24.150  0.00  0.00    +0.339 C 
ATOM      5  O   UNL     1      -3.979  -1.579  23.340  0.00  0.00    -0.249 OA
ATOM      6  N   UNL     1      -3.851  -0.681  24.444  0.00  0.00    -0.187 NA
BRANCH   3   2
ATOM      1  C   UNL     1      -3.470  -3.462  24.716  0.00  0.00    +0.025 C 
ATOM      2  C   UNL     1      -3.921  -2.862  24.374  0.00  0.00    +0.117 C 
ENDBRANCH   3   2
ENDBRANCH   7   6
ENDBRANCH   8   7
BRANCH  12  13
ATOM     13  C   UNL     1      -4.305   3.013  25.104  0.00  0.00    +0.089 C 
BRANCH  13  14
ATOM     14  C   UNL     1      -3.722   3.360  25.574  0.00  0.00    +0.226 C 
ATOM     15  O   UNL     1      -3.484   2.993  26.273  0.00  0.00    -0.275 OA
ATOM     16  N   UNL     1      -3.378   4.073  25.345  0.00  0.00    -0.274 N 
ATOM     17  C   UNL     1      -3.616   4.440  24.645  0.00  0.00    +0.115 C 
BRANCH  16  18
ATOM     18  C   UNL     1      -2.795   4.419  25.814  0.00  0.00    +0.120 C 
BRANCH  18  19
ATOM     19  C   UNL     1      -2.069   4.630  25.483  0.00  0.00    -0.002 A 
ATOM     20  C   UNL     1      -1.965   5.382  25.159  0.00  0.00    -0.003 A 
ATOM     21  C   UNL     1      -1.240   5.593  24.829  0.00  0.00    -0.000 A 
ATOM     22  C   UNL     1      -0.617   5.051  24.822  0.00  0.00    -0.000 A 
ATOM     23  C   UNL     1      -0.720   4.299  25.145  0.00  0.00    -0.000 A 
ATOM     24  C   UNL     1      -1.447   4.089  25.476  0.00  0.00    -0.003 A 
ENDBRANCH  18  19
ENDBRANCH  16  18
ENDBRANCH  13  14
ENDBRANCH  12  13
TORSDOF 8
ENDMDL
MODEL 3
REMARK VINA RESULT:      -8.8      1.206      2.125
REMARK  Name = 
REMARK  8 active torsions:
REMARK  status: ('A' for Active; 'I' for Inactive)
REMARK    1  A    between atoms: C_2  and  N_3
REMARK    2  A    between atoms: N_6  and  C_7
REMARK    3  A    between atoms: C_7  and  C_8
REMARK    4  A    between atoms: C_12  and  C_13
REMARK    5  A    between atoms: C_13  and  C_14
REMARK    6  A    between atoms: N_16  and  C_18
REMARK    7  A    between atoms: C_18  and  C_19
REMARK    8  A    between atoms: C_26  and  C_27
REMARK                            x       y       z     vdW  Elec       q    Type
REMARK                         _______ _______ _______ _____ _____    ______ ____
ROOT
ATOM      8  C   UNL     1      -0.576   0.647  24.204  0.00  0.00    +0.043 C 
ATOM      9  C   UNL     1      -0.784  -0.150  24.158  0.00  0.00    -0.033 C 
ATOM     10  C   UNL     1      -1.548  -0.389  24.361  0.00  0.00    -0.048 C 
ATOM     11  C   UNL     1      -1.755  -1.186  24.315  0.00  0.00    +0.026 C 
ATOM     12  C   UNL     1      -2.102   0.169  24.609  0.00  0.00    +0.027 C 
ATOM     25  C   UNL     1      -1.893   0.966  24.654  0.00  0.00    +0.005 C 
ATOM     26  C   UNL     1      -1.131   1.205  24.452  0.00  0.00    +0.006 C 
ENDROOT
BRANCH  26  27
ATOM     27  C   UNL     1      -0.921   2.002  24.497  0.00  0.00    +0.000 C 
ATOM     28  C   UNL     1      -1.023   2.494  23.843  0.00  0.00    +0.000 C 
ATOM     29  C   UNL     1      -0.611   2.307  25.198  0.00  0.00    +0.000 C 
ENDBRANCH  26  27
BRANCH   8   7
ATOM      7  C   UNL     1       0.188   0.886  24.002  0.00  0.00    +0.121 C 
BRANCH   7   6
ATOM      3  N   UNL     1       1.885   0.159  22.838  0.00  0.00    -0.187 NA
ATOM      4  C   UNL     1       1.432   0.620  23.350  0.00  0.00    +0.339 C 
ATOM      5  O   UNL     1       1.767   1.274  23.722  0.00  0.00    -0.249 OA
ATOM      6  N   UNL     1       0.642   0.425  23.490  0.00  0.00    -0.187 NA
BRANCH   3   2
ATOM      1  C   UNL     1       3.070   0.034  22.048  0.00  0.00    +0.025 C 
ATOM      2  C   UNL     1       2.676   0.354  22.699  0.00  0.00    +0.117 C 
ENDBRANCH   3   2
ENDBRANCH   7   6
ENDBRANCH   8   7
BRANCH  12  13
ATOM     13  C   UNL     1      -2.865  -0.070  24.811  0.00  0.00    +0.089 C 
BRANCH  13  14
ATOM     14  C   UNL     1      -3.518   0.303  24.471  0.00  0.00    +0.226 C 
ATOM     15  O   UNL     1      -3.529   0.458  23.661  0.00  0.00    -0.275 OA
ATOM     16  N   UNL     1      -4.160   0.520  24.941  0.00  0.00    -0.274 N 
ATOM     17  C   UNL     1      -4.149   0.365  25.751  0.00  0.00    +0.115 C 
BRANCH  16  18
ATOM     18  C   UNL     1      -4.813   0.892  24.601  0.00  0.00    +0.120 C 
BRANCH  18  19
ATOM     19  C   UNL     1      -5.144   1.556  24.961  0.00  0.00    -0.002 A 
ATOM     20  C   UNL     1      -4.864   2.310  24.776  0.00  0.00    -0.003 A 
ATOM     21  C   UNL     1      -5.195   2.974  25.137  0.00  0.00    -0.000 A 
ATOM     22  C   UNL     1      -5.807   2.884  25.683  0.00  0.00    -0.000 A 
ATOM     23  C   UNL     1      -6.087   2.131  25.869  0.00  0.00    -0.000 A 
ATOM     24  C   UNL     1      -5.756   1.467  25.508  0.00  0.00    -0.003 A 
ENDBRANCH  18  19
ENDBRANCH  16  18
ENDBRANCH  13  14
ENDBRANCH  12  13
TORSDOF 8
ENDMDL
MODEL 4
REMARK VINA RESULT:      -8.8      2.343      4.533
REMARK  Name = 
REMARK  8 active torsions:
REMARK  status: ('A' for Active; 'I' for Inactive)
REMARK    1  A    between atoms: C_2  and  N_3
REMARK    2  A    between atoms: N_6  and  C_7
REMARK    3  A    between atoms: C_7  and  C_8
REMARK    4  A    between atoms: C_12  and  C_13
REMARK    5  A    between atoms: C_13  and  C_14
REMARK    6  A    between atoms: N_16  and  C_18
REMARK    7  A    between atoms: C_18  and  C_19
REMARK    8  A    between atoms: C_26  and  C_27
REMARK                            x       y       z     vdW  Elec       q    Type
REMARK                         _______ _______ _______ _____ _____    ______ ____
ROOT
ATOM      8  C   UNL     1      -2.391   2.225  24.764  0.00  0.00    +0.043 C 
ATOM      9  C   UNL     1      -3.179   2.465  24.744  0.00  0.00    -0.033 C 
ATOM     10  C   UNL     1      -3.779   1.903  24.664  0.00  0.00    -0.048 C 
ATOM     11  C   UNL     1      -4.568   2.143  24.644  0.00  0.00    +0.026 C 
ATOM     12  C   UNL     1      -3.589   1.103  24.603  0.00  0.00    +0.027 C 
ATOM     25  C   UNL     1      -2.800   0.864  24.622  0.00  0.00    +0.005 C 
ATOM     26  C   UNL     1      -2.201   1.425  24.703  0.00  0.00    +0.006 C 
ENDROOT
BRANCH  26  27
ATOM     27  C   UNL     1      -1.411   1.186  24.722  0.00  0.00    +0.000 C 
ATOM     28  C   UNL     1      -1.036   1.059  25.445  0.00  0.00    +0.000 C 
ATOM     29  C   UNL     1      -0.997   1.074  24.017  0.00  0.00    +0.000 C 
ENDBRANCH  26  27
BRANCH   8   7
ATOM      7  C   UNL     1      -1.791   2.787  24.844  0.00  0.00    +0.121 C 
BRANCH   7   6
ATOM      3  N   UNL     1      -1.612   4.946  25.110  0.00  0.00    -0.187 NA
ATOM      4  C   UNL     1      -1.422   4.165  24.921  0.00  0.00    +0.339 C 
ATOM      5  O   UNL     1      -0.677   3.983  24.620  0.00  0.00    -0.249 OA
ATOM      6  N   UNL     1      -1.980   3.567  25.033  0.00  0.00    -0.187 NA
BRANCH   3   2
ATOM      1  C   UNL     1      -1.300   6.327  24.919  0.00  0.00    +0.025 C 
ATOM      2  C   UNL     1      -1.054   5.544  24.997  0.00  0.00    +0.117 C 
ENDBRANCH   3   2
ENDBRANCH   7   6
ENDBRANCH   8   7
BRANCH  12  13
ATOM     13  C   UNL     1      -4.188   0.542  24.522  0.00  0.00    +0.089 C 
BRANCH  13  14
ATOM     14  C   UNL     1      -4.150  -0.167  24.942  0.00  0.00    +0.226 C 
ATOM     15  O   UNL     1      -4.083  -0.155  25.765  0.00  0.00    -0.275 OA
ATOM     16  N   UNL     1      -4.179  -0.886  24.542  0.00  0.00    -0.274 N 
ATOM     17  C   UNL     1      -4.246  -0.898  23.720  0.00  0.00    +0.115 C 
BRANCH  16  18
ATOM     18  C   UNL     1      -4.141  -1.595  24.962  0.00  0.00    +0.120 C 
BRANCH  18  19
ATOM     19  C   UNL     1      -3.662  -2.210  24.693  0.00  0.00    -0.002 A 
ATOM     20  C   UNL     1      -3.956  -2.756  24.148  0.00  0.00    -0.003 A 
ATOM     21  C   UNL     1      -3.477  -3.370  23.879  0.00  0.00    -0.000 A 
ATOM     22  C   UNL     1      -2.702  -3.440  24.155  0.00  0.00    -0.000 A 
ATOM     23  C   UNL     1      -2.407  -2.895  24.700  0.00  0.00    -0.000 A 
ATOM     24  C   UNL     1      -2.887  -2.280  24.969  0.00  0.00    -0.003 A 
ENDBRANCH  18  19
ENDBRANCH  16  18
ENDBRANCH  13  14
ENDBRANCH  12  13
TORSDOF 8
ENDMDL
MODEL 5
REMARK VINA RESULT:      -8.6      2.453      4.273
REMARK  Name = 
REMARK  8 active torsions:
REMARK  status: ('A' for Active; 'I' for Inactive)
REMARK    1  A    between atoms: C_2  and  N_3
REMARK    2  A    between atoms: N_6  and  C_7
REMARK    3  A    between atoms: C_7  and  C_8
REMARK    4  A    between atoms: C_12  and  C_13
REMARK    5  A    between atoms: C_13  and  C_14
REMARK    6  A    between atoms: N_16  and  C_18
REMARK    7  A    between atoms: C_18  and  C_19
REMARK    8  A    between atoms: C_26  and  C_27
REMARK                            x       y       z     vdW  Elec       q    Type
REMARK                         _______ _______ _______ _____ _____    ______ ____
ROOT
ATOM      8  C   UNL     1      -2.588  -0.060  24.479  0.00  0.00    +0.043 C 
ATOM      9  C   UNL     1      -1.835  -0.384  24.569  0.00  0.00    -0.033 C 
ATOM     10  C   UNL     1      -1.179   0.113  24.645  0.00  0.00    -0.048 C 
ATOM     11  C   UNL     1      -0.426  -0.212  24.735  0.00  0.00    +0.026 C 
ATOM     12  C   UNL     1      -1.278   0.931  24.633  0.00  0.00    +0.027 C 
ATOM     25  C   UNL     1      -2.032   1.254  24.543  0.00  0.00    +0.005 C 
ATOM     26  C   UNL     1      -2.687   0.759  24.467  0.00  0.00    +0.006 C 
ENDROOT
BRANCH  26  27
ATOM     27  C   UNL     1      -3.441   1.082  24.377  0.00  0.00    +0.000 C 
ATOM     28  C   UNL     1      -3.951   1.126  25.024  0.00  0.00    +0.000 C 
ATOM     29  C   UNL     1      -3.684   1.362  23.640  0.00  0.00    +0.000 C 
ENDBRANCH  26  27
BRANCH   8   7
ATOM      7  C   UNL     1      -3.244  -0.556  24.403  0.00  0.00    +0.121 C 
BRANCH   7   6
ATOM      3  N   UNL     1      -3.648  -2.697  24.291  0.00  0.00    -0.187 NA
ATOM      4  C   UNL     1      -3.736  -1.882  24.202  0.00  0.00    +0.339 C 
ATOM      5  O   UNL     1      -4.402  -1.578  23.824  0.00  0.00    -0.249 OA
ATOM      6  N   UNL     1      -3.156  -1.371  24.492  0.00  0.00    -0.187 NA
BRANCH   3   2
ATOM      1  C   UNL     1      -4.027  -3.979  23.784  0.00  0.00    +0.025 C 
ATOM      2  C   UNL     1      -4.228  -3.209  24.002  0.00  0.00    +0.117 C 
ENDBRANCH   3   2
ENDBRANCH   7   6
ENDBRANCH   8   7
BRANCH  12  13
ATOM     13  C   UNL     1      -0.623   1.426  24.709  0.00  0.00    +0.089 C 
BRANCH  13  14
ATOM     14  C   UNL     1      -0.637   2.049  25.251  0.00  0.00    +0.226 C 
ATOM     15  O   UNL     1      -0.804   1.901  26.045  0.00  0.00    -0.275 OA
ATOM     16  N   UNL     1      -0.483   2.819  24.999  0.00  0.00    -0.274 N 
ATOM     17  C   UNL     1      -0.316   2.967  24.205  0.00  0.00    +0.115 C 
BRANCH  16  18
ATOM     18  C   UNL     1      -0.497   3.441  25.540  0.00  0.00    +0.120 C 
BRANCH  18  19
ATOM     19  C   UNL     1      -0.899   4.138  25.358  0.00  0.00    -0.002 A 
ATOM     20  C   UNL     1      -1.673   4.250  25.622  0.00  0.00    -0.003 A 
ATOM     21  C   UNL     1      -2.075   4.946  25.440  0.00  0.00    -0.000 A 
ATOM     22  C   UNL     1      -1.703   5.533  24.995  0.00  0.00    -0.000 A 
ATOM     23  C   UNL     1      -0.929   5.422  24.731  0.00  0.00    -0.000 A 
ATOM     24  C   UNL     1      -0.527   4.724  24.913  0.00  0.00    -0.003 A 
ENDBRANCH  18  19
ENDBRANCH  16  18
ENDBRANCH  13  14
ENDBRANCH  12  13
TORSDOF 8
ENDMDL
