MODEL 1
REMARK VINA RESULT:      -9.9      0.000      0.000
REMARK  Name = 
REMARK  6 active torsions:
REMARK  status: ('A' for Active; 'I' for Inactive)
REMARK    1  A    between atoms: C_4  and  C_5
REMARK    2  A    between atoms: C_5  and  C_6
REMARK    3  A    between atoms: C_9  and  C_10
REMARK    4  A    between atoms: C_10  and  N_11
REMARK    5  A    between atoms: C_19  and  N_20
REMARK    6  A    between atoms: N_20  and  S_21
REMARK                            x       y       z     vdW  Elec       q    Type
REMARK                         _______ _______ _______ _____ _____    ______ ____
ROOT
ATOM      5  C   UNL     1      -4.327  -0.533  24.371  0.00  0.00    +0.049 C 
ENDROOT
BRANCH   5   4
ATOM      1  C   UNL     1      -4.123  -1.938  24.207  0.00  0.00    +0.001 C 
ATOM      2  C   UNL     1      -3.362  -1.712  24.434  0.00  0.00    +0.017 C 
ATOM      3  C   UNL     1      -3.113  -2.496  24.376  0.00  0.00    +0.001 C 
ATOM      4  C   UNL     1      -3.612  -0.928  24.491  0.00  0.00    +0.009 C 
ATOM     18  C   UNL     1      -2.852  -0.702  24.717  0.00  0.00    +0.020 C 
ATOM     19  C   UNL     1      -2.602  -1.486  24.660  0.00  0.00    +0.097 C 
BRANCH  19  20
ATOM     20  N   UNL     1      -1.888  -1.881  24.779  0.00  0.00    -0.083 NA
BRANCH  20  21
ATOM     21  S   UNL     1      -1.197  -1.451  24.919  0.00  0.00    +0.059 S 
ATOM     22  C   UNL     1      -0.507  -1.021  25.058  0.00  0.00    +0.197 C 
ATOM     23  O   UNL     1      -1.374  -1.429  25.724  0.00  0.00    -0.156 OA
ATOM     24  O   UNL     1      -1.021  -1.473  24.113  0.00  0.00    -0.156 OA
ENDBRANCH  20  21
ENDBRANCH  19  20
ENDBRANCH   5   4
BRANCH   5   6
ATOM      6  C   UNL     1      -4.415   0.247  24.627  0.00  0.00    +0.100 A 
ATOM      7  N   UNL     1      -4.636   0.487  25.384  0.00  0.00    -0.082 NA
ATOM      8  O   UNL     1      -4.656   1.311  25.395  0.00  0.00    -0.357 OA
ATOM      9  C   UNL     1      -4.447   1.580  24.643  0.00  0.00    +0.170 A 
ATOM     17  C   UNL     1      -4.298   0.922  24.169  0.00  0.00    +0.055 A 
BRANCH   9  10
ATOM     10  C   UNL     1      -4.396   2.370  24.408  0.00  0.00    +0.141 C 
BRANCH  10  11
ATOM     11  N   UNL     1      -3.847   2.872  24.765  0.00  0.00    -0.262 NA
ATOM     12  C   UNL     1      -3.081   2.924  24.464  0.00  0.00    +0.105 C 
ATOM     13  C   UNL     1      -2.531   3.427  24.821  0.00  0.00    +0.159 C 
ATOM     14  O   UNL     1      -2.748   3.876  25.478  0.00  0.00    -0.351 OA
ATOM     15  C   UNL     1      -3.515   3.823  25.778  0.00  0.00    +0.159 C 
ATOM     16  C   UNL     1      -4.065   3.321  25.421  0.00  0.00    +0.105 C 
ENDBRANCH  10  11
ENDBRANCH   9  10
ENDBRANCH   5   6
TORSDOF 6
ENDMDL
MODEL 2
REMARK VINA RESULT:      -9.9      1.581      4.424
REMARK  Name = 
REMARK  6 active torsions:
REMARK  status: ('A' for Active; 'I' for Inactive)
REMARK    1  A    between atoms: C_4  and  C_5
REMARK    2  A    between atoms: C_5  and  C_6
REMARK    3  A    between atoms: C_9  and  C_10
REMARK    4  A    between atoms: C_10  and  N_11
REMARK    5  A    between atoms: C_19  and  N_20
REMARK    6  A    between atoms: N_20  and  S_21
REMARK                            x       y       z     vdW  Elec       q    Type
REMARK                         _______ _______ _______ _____ _____    ______ ____
ROOT
ATOM      5  C   UNL     1      -4.965   0.890  24.957  0.00  0.00    +0.049 C 
ENDROOT
BRANCH   5   4
ATOM      1  C   UNL     1      -5.829   1.961  25.343  0.00  0.00    +0.001 C 
ATOM      2  C   UNL     1      -5.123   2.377  25.248  0.00  0.00    +0.017 C 
ATOM      3  C   UNL     1      -5.508   3.076  25.458  0.00  0.00    +0.001 C 
ATOM      4  C   UNL     1      -4.738   1.678  25.039  0.00  0.00    +0.009 C 
ATOM     18  C   UNL     1      -4.033   2.095  24.945  0.00  0.00    +0.020 C 
ATOM     19  C   UNL     1      -4.417   2.793  25.154  0.00  0.00    +0.097 C 
BRANCH  19  20
ATOM     20  N   UNL     1      -4.190   3.582  25.236  0.00  0.00    -0.083 NA
BRANCH  20  21
ATOM     21  S   UNL     1      -3.401   3.799  25.125  0.00  0.00    +0.059 S 
ATOM     22  C   UNL     1      -2.614   4.015  25.014  0.00  0.00    +0.197 C 
ATOM     23  O   UNL     1      -3.261   3.697  25.932  0.00  0.00    -0.156 OA
ATOM     24  O   UNL     1      -3.543   3.900  24.319  0.00  0.00    -0.156 OA
ENDBRANCH  20  21
ENDBRANCH  19  20
ENDBRANCH   5   4
BRANCH   5   6
ATOM      6  C   UNL     1      -4.402   0.315  24.771  0.00  0.00    +0.100 A 
ATOM      7  N   UNL     1      -4.074   0.180  24.027  0.00  0.00    -0.082 NA
ATOM      8  O   UNL     1      -3.538  -0.444  24.094  0.00  0.00    -0.357 OA
ATOM      9  C   UNL     1      -3.535  -0.693  24.880  0.00  0.00    +0.170 A 
ATOM     17  C   UNL     1      -4.070  -0.225  25.299  0.00  0.00    +0.055 A 
BRANCH   9  10
ATOM     10  C   UNL     1      -3.078  -1.306  25.193  0.00  0.00    +0.141 C 
BRANCH  10  11
ATOM     11  N   UNL     1      -2.255  -1.246  25.194  0.00  0.00    -0.262 NA
ATOM     12  C   UNL     1      -1.875  -0.805  25.778  0.00  0.00    +0.105 C 
ATOM     13  C   UNL     1      -1.051  -0.745  25.780  0.00  0.00    +0.159 C 
ATOM     14  O   UNL     1      -0.609  -1.128  25.197  0.00  0.00    -0.351 OA
ATOM     15  C   UNL     1      -0.990  -1.570  24.614  0.00  0.00    +0.159 C 
ATOM     16  C   UNL     1      -1.813  -1.629  24.612  0.00  0.00    +0.105 C 
ENDBRANCH  10  11
ENDBRANCH   9  10
ENDBRANCH   5   6
TORSDOF 6
ENDMDL
MODEL 3
REMARK VINA RESULT:      -9.5      1.759      4.313
REMARK  Name = 
REMARK  6 active torsions:
REMARK  status: ('A' for Active; 'I' for Inactive)
REMARK    1  A    between atoms: C_4  and  C_5
REMARK    2  A    between atoms: C_5  and  C_6
REMARK    3  A    between atoms: C_9  and  C_10
REMARK    4  A    between atoms: C_10  and  N_11
REMARK    5  A    between atoms: C_19  and  N_20
REMARK    6  A    between atoms: N_20  and  S_21
REMARK                            x       y       z     vdW  Elec       q    Type
REMARK                         _______ _______ _______ _____ _____    ______ ____
ROOT
ATOM      5  C   UNL     1      -3.614   2.617  24.681  0.00  0.00    +0.049 C 
ENDROOT
BRANCH   5   4
ATOM      1  C   UNL     1      -3.302   3.903  25.221  0.00  0.00    +0.001 C 
ATOM      2  C   UNL     1      -2.572   3.531  25.315  0.00  0.00    +0.017 C 
ATOM      3  C   UNL     1      -2.264   4.220  25.648  0.00  0.00    +0.001 C 
ATOM      4  C   UNL     1      -2.879   2.842  24.983  0.00  0.00    +0.009 C 
ATOM     18  C   UNL     1      -2.149   2.470  25.077  0.00  0.00    +0.020 C 
ATOM     19  C   UNL     1      -1.842   3.159  25.410  0.00  0.00    +0.097 C 
BRANCH  19  20
ATOM     20  N   UNL     1      -1.108   3.384  25.712  0.00  0.00    -0.083 NA
BRANCH  20  21
ATOM     21  S   UNL     1      -0.478   2.850  25.706  0.00  0.00    +0.059 S 
ATOM     22  C   UNL     1       0.151   2.317  25.699  0.00  0.00    +0.197 C 
ATOM     23  O   UNL     1      -0.682   2.601  26.465  0.00  0.00    -0.156 OA
ATOM     24  O   UNL     1      -0.274   3.100  24.946  0.00  0.00    -0.156 OA
ENDBRANCH  20  21
ENDBRANCH  19  20
ENDBRANCH   5   4
BRANCH   5   6
ATOM      6  C   UNL     1      -3.743   1.835  24.450  0.00  0.00    +0.100 A 
ATOM      7  N   UNL     1      -3.437   1.472  23.776  0.00  0.00    -0.082 NA
ATOM      8  O   UNL     1      -3.706   0.692  23.761  0.00  0.00    -0.357 OA
ATOM      9  C   UNL     1      -4.179   0.574  24.427  0.00  0.00    +0.170 A 
ATOM     17  C   UNL     1      -4.202   1.281  24.853  0.00  0.00    +0.055 A 
BRANCH   9  10
ATOM     10  C   UNL     1      -4.562  -0.128  24.631  0.00  0.00    +0.141 C 
BRANCH  10  11
ATOM     11  N   UNL     1      -4.125  -0.819  24.746  0.00  0.00    -0.262 NA
ATOM     12  C   UNL     1      -3.733  -0.945  25.460  0.00  0.00    +0.105 C 
ATOM     13  C   UNL     1      -3.296  -1.635  25.574  0.00  0.00    +0.159 C 
ATOM     14  O   UNL     1      -3.251  -2.199  24.973  0.00  0.00    -0.351 OA
ATOM     15  C   UNL     1      -3.643  -2.072  24.259  0.00  0.00    +0.159 C 
ATOM     16  C   UNL     1      -4.081  -1.381  24.145  0.00  0.00    +0.105 C 
ENDBRANCH  10  11
ENDBRANCH   9  10
ENDBRANCH   5   6
TORSDOF 6
ENDMDL
MODEL 4
REMARK VINA RESULT:      -9.2      1.948      5.069
REMARK  Name = 
REMARK  6 active torsions:
REMARK  status: ('A' for Active; 'I' for Inactive)
REMARK    1  A    between atoms: C_4  and  C_5
REMARK    2  A    between atoms: C_5  and  C_6
REMARK    3  A    between atoms: C_9  and  C_10
REMARK    4  A    between atoms: C_10  and  N_11
REMARK    5  A    between atoms: C_19  and  N_20
REMARK    6  A    between atoms: N_20  and  S_21
REMARK                            x       y       z     vdW  Elec       q    Type
REMARK                         _______ _______ _______ _____ _____    ______ ____
ROOT
ATOM      5  C   UNL     1      -0.908   2.170  25.213  0.00  0.00    +0.049 C 
ENDROOT
BRANCH   5   4
ATOM      1  C   UNL     1      -0.816   3.584  25.401  0.00  0.00    +0.001 C 
ATOM      2  C   UNL     1      -1.633   3.507  25.315  0.00  0.00    +0.017 C 
ATOM      3  C   UNL     1      -1.719   4.322  25.410  0.00  0.00    +0.001 C 
ATOM      4  C   UNL     1      -1.547   2.692  25.220  0.00  0.00    +0.009 C 
ATOM     18  C   UNL     1      -2.363   2.616  25.134  0.00  0.00    +0.020 C 
ATOM     19  C   UNL     1      -2.450   3.430  25.230  0.00  0.00    +0.097 C 
BRANCH  19  20
ATOM     20  N   UNL     1      -3.088   3.952  25.237  0.00  0.00    -0.083 NA
BRANCH  20  21
ATOM     21  S   UNL     1      -3.859   3.663  25.176  0.00  0.00    +0.059 S 
ATOM     22  C   UNL     1      -4.629   3.374  25.115  0.00  0.00    +0.197 C 
ATOM     23  O   UNL     1      -3.904   3.611  25.998  0.00  0.00    -0.156 OA
ATOM     24  O   UNL     1      -3.813   3.714  24.354  0.00  0.00    -0.156 OA
ENDBRANCH  20  21
ENDBRANCH  19  20
ENDBRANCH   5   4
BRANCH   5   6
ATOM      6  C   UNL     1      -1.026   1.376  25.019  0.00  0.00    +0.100 A 
ATOM      7  N   UNL     1      -1.082   1.066  24.257  0.00  0.00    -0.082 NA
ATOM      8  O   UNL     1      -1.199   0.251  24.321  0.00  0.00    -0.357 OA
ATOM      9  C   UNL     1      -1.215   0.059  25.124  0.00  0.00    +0.170 A 
ATOM     17  C   UNL     1      -1.108   0.754  25.555  0.00  0.00    +0.055 A 
BRANCH   9  10
ATOM     10  C   UNL     1      -1.320  -0.696  25.439  0.00  0.00    +0.141 C 
BRANCH  10  11
ATOM     11  N   UNL     1      -2.023  -1.107  25.301  0.00  0.00    -0.262 NA
ATOM     12  C   UNL     1      -2.690  -0.947  25.758  0.00  0.00    +0.105 C 
ATOM     13  C   UNL     1      -3.392  -1.358  25.620  0.00  0.00    +0.159 C 
ATOM     14  O   UNL     1      -3.427  -1.929  25.024  0.00  0.00    -0.351 OA
ATOM     15  C   UNL     1      -2.758  -2.088  24.568  0.00  0.00    +0.159 C 
ATOM     16  C   UNL     1      -2.056  -1.677  24.706  0.00  0.00    +0.105 C 
ENDBRANCH  10  11
ENDBRANCH   9  10
ENDBRANCH   5   6
TORSDOF 6
ENDMDL
