MODEL 1
REMARK VINA RESULT:     -11.3      0.000      0.000
REMARK  Name = 
REMARK  6 active torsions:
REMARK  status: ('A' for Active; 'I' for Inactive)
REMARK    1  A    between atoms: C_2  and  C_4
REMARK    2  A    between atoms: C_8  and  N_9
REMARK    3  A    between atoms: C_10  and  O_12
REMARK    4  A    between atoms: O_12  and  C_13
REMARK    5  A    between atoms: C_17  and  N_21
REMARK    6  A    between atoms: N_24  and  C_25
REMARK                            x       y       z     vdW  Elec       q    Type
REMARK                         _______ _______ _______ _____ _____    ______ ____
ROOT
ATOM     13  C   UNL     1       0.054   1.405  24.507  0.00  0.00    +0.229 C 
ATOM     14  C   UNL     1       0.145   1.148  23.729  0.00  0.00    +0.188 C 
ATOM     15  O   UNL     1      -0.148   0.378  23.680  0.00  0.00    -0.348 OA
ATOM     16  C   UNL     1      -0.419   0.159  24.427  0.00  0.00    +0.168 C 
ATOM     17  C   UNL     1      -0.767  -0.451  24.859  0.00  0.00    +0.156 C 
ATOM     18  C   UNL     1      -0.858  -0.194  25.637  0.00  0.00    +0.166 C 
ATOM     19  O   UNL     1      -0.565   0.576  25.687  0.00  0.00    -0.348 OA
ATOM     20  C   UNL     1      -0.294   0.794  24.938  0.00  0.00    +0.186 C 
ENDROOT
BRANCH  17  21
ATOM     21  N   UNL     1      -0.987  -1.190  24.564  0.00  0.00    -0.184 NA
ATOM     22  C   UNL     1      -1.782  -1.410  24.553  0.00  0.00    +0.344 C 
ATOM     23  O   UNL     1      -2.357  -0.892  24.837  0.00  0.00    -0.249 OA
ATOM     24  N   UNL     1      -2.002  -2.148  24.258  0.00  0.00    -0.161 NA
BRANCH  24  25
ATOM     25  C   UNL     1      -2.797  -2.369  24.247  0.00  0.00    +0.075 A 
ATOM     26  C   UNL     1      -3.335  -1.949  23.786  0.00  0.00    +0.017 A 
ATOM     27  C   UNL     1      -4.130  -2.169  23.775  0.00  0.00    +0.001 A 
ATOM     28  C   UNL     1      -4.386  -2.811  24.226  0.00  0.00    +0.000 A 
ATOM     29  C   UNL     1      -3.847  -3.231  24.688  0.00  0.00    +0.001 A 
ATOM     30  C   UNL     1      -3.053  -3.010  24.699  0.00  0.00    +0.017 A 
ENDBRANCH  24  25
ENDBRANCH  17  21
BRANCH  13  12
ATOM     12  O   UNL     1       0.274   2.143  24.803  0.00  0.00    -0.432 OA
BRANCH  12  10
ATOM      9  N   UNL     1      -0.469   3.194  25.425  0.00  0.00    -0.142 NA
ATOM     10  C   UNL     1      -0.246   2.782  24.746  0.00  0.00    +0.425 C 
ATOM     11  O   UNL     1      -0.543   3.008  24.010  0.00  0.00    -0.224 OA
BRANCH   9   8
ATOM      4  C   UNL     1      -2.290   4.390  25.561  0.00  0.00    +0.036 A 
ATOM      5  C   UNL     1      -2.027   5.109  25.255  0.00  0.00    +0.003 A 
ATOM      6  C   UNL     1      -1.245   5.190  25.005  0.00  0.00    +0.001 A 
ATOM      7  C   UNL     1      -0.726   4.552  25.062  0.00  0.00    +0.017 A 
ATOM      8  C   UNL     1      -0.989   3.832  25.368  0.00  0.00    +0.077 A 
ATOM     31  C   UNL     1      -1.770   3.751  25.618  0.00  0.00    +0.020 A 
BRANCH   4   2
ATOM      1  C   UNL     1      -3.669   4.168  25.259  0.00  0.00    +0.077 C 
ATOM      2  C   UNL     1      -3.072   4.309  25.810  0.00  0.00    +0.174 C 
ATOM      3  O   UNL     1      -3.258   4.369  26.613  0.00  0.00    -0.291 OA
ENDBRANCH   4   2
ENDBRANCH   9   8
ENDBRANCH  12  10
ENDBRANCH  13  12
TORSDOF 6
ENDMDL
MODEL 2
REMARK VINA RESULT:     -10.5      2.024      6.449
REMARK  Name = 
REMARK  6 active torsions:
REMARK  status: ('A' for Active; 'I' for Inactive)
REMARK    1  A    between atoms: C_2  and  C_4
REMARK    2  A    between atoms: C_8  and  N_9
REMARK    3  A    between atoms: C_10  and  O_12
REMARK    4  A    between atoms: O_12  and  C_13
REMARK    5  A    between atoms: C_17  and  N_21
REMARK    6  A    between atoms: N_24  and  C_25
REMARK                            x       y       z     vdW  Elec       q    Type
REMARK                         _______ _______ _______ _____ _____    ______ ____
ROOT
ATOM     13  C   UNL     1      -4.683   0.805  24.708  0.00  0.00    +0.229 C 
ATOM     14  C   UNL     1      -4.813   1.009  25.497  0.00  0.00    +0.188 C 
ATOM     15  O   UNL     1      -4.530   1.775  25.611  0.00  0.00    -0.348 OA
ATOM     16  C   UNL     1      -4.225   2.044  24.894  0.00  0.00    +0.168 C 
ATOM     17  C   UNL     1      -3.861   2.684  24.520  0.00  0.00    +0.156 C 
ATOM     18  C   UNL     1      -3.731   2.479  23.732  0.00  0.00    +0.166 C 
ATOM     19  O   UNL     1      -4.014   1.713  23.618  0.00  0.00    -0.348 OA
ATOM     20  C   UNL     1      -4.319   1.444  24.336  0.00  0.00    +0.186 C 
ENDROOT
BRANCH  17  21
ATOM     21  N   UNL     1      -3.662   3.402  24.874  0.00  0.00    -0.184 NA
ATOM     22  C   UNL     1      -2.897   3.701  24.801  0.00  0.00    +0.344 C 
ATOM     23  O   UNL     1      -2.330   3.280  24.374  0.00  0.00    -0.249 OA
ATOM     24  N   UNL     1      -2.698   4.419  25.154  0.00  0.00    -0.161 NA
BRANCH  24  25
ATOM     25  C   UNL     1      -1.932   4.717  25.081  0.00  0.00    +0.075 A 
ATOM     26  C   UNL     1      -1.286   4.252  25.296  0.00  0.00    +0.017 A 
ATOM     27  C   UNL     1      -0.521   4.550  25.223  0.00  0.00    +0.001 A 
ATOM     28  C   UNL     1      -0.401   5.315  24.934  0.00  0.00    +0.000 A 
ATOM     29  C   UNL     1      -1.048   5.780  24.719  0.00  0.00    +0.001 A 
ATOM     30  C   UNL     1      -1.813   5.481  24.793  0.00  0.00    +0.017 A 
ENDBRANCH  24  25
ENDBRANCH  17  21
BRANCH  13  12
ATOM     12  O   UNL     1      -4.882   0.086  24.354  0.00  0.00    -0.432 OA
BRANCH  12  10
ATOM      9  N   UNL     1      -4.116  -1.049  23.943  0.00  0.00    -0.142 NA
ATOM     10  C   UNL     1      -4.459  -0.598  24.542  0.00  0.00    +0.425 C 
ATOM     11  O   UNL     1      -4.380  -0.829  25.331  0.00  0.00    -0.224 OA
BRANCH   9   8
ATOM      4  C   UNL     1      -2.453  -2.382  24.414  0.00  0.00    +0.036 A 
ATOM      5  C   UNL     1      -2.850  -3.099  24.506  0.00  0.00    +0.003 A 
ATOM      6  C   UNL     1      -3.669  -3.133  24.411  0.00  0.00    +0.001 A 
ATOM      7  C   UNL     1      -4.090  -2.449  24.224  0.00  0.00    +0.017 A 
ATOM      8  C   UNL     1      -3.694  -1.732  24.131  0.00  0.00    +0.077 A 
ATOM     31  C   UNL     1      -2.876  -1.699  24.226  0.00  0.00    +0.020 A 
BRANCH   4   2
ATOM      1  C   UNL     1      -1.310  -2.244  25.261  0.00  0.00    +0.077 C 
ATOM      2  C   UNL     1      -1.635  -2.348  24.509  0.00  0.00    +0.174 C 
ATOM      3  O   UNL     1      -1.139  -2.420  23.853  0.00  0.00    -0.291 OA
ENDBRANCH   4   2
ENDBRANCH   9   8
ENDBRANCH  12  10
ENDBRANCH  13  12
TORSDOF 6
ENDMDL
MODEL 3
REMARK VINA RESULT:     -10.3      1.889      3.286
REMARK  Name = 
REMARK  6 active torsions:
REMARK  status: ('A' for Active; 'I' for Inactive)
REMARK    1  A    between atoms: C_2  and  C_4
REMARK    2  A    between atoms: C_8  and  N_9
REMARK    3  A    between atoms: C_10  and  O_12
REMARK    4  A    between atoms: O_12  and  C_13
REMARK    5  A    between atoms: C_17  and  N_21
REMARK    6  A    between atoms: N_24  and  C_25
REMARK                            x       y       z     vdW  Elec       q    Type
REMARK                         _______ _______ _______ _____ _____    ______ ____
ROOT
ATOM     13  C   UNL     1      -4.518   2.978  25.152  0.00  0.00    +0.229 C 
ATOM     14  C   UNL     1      -4.931   2.720  25.817  0.00  0.00    +0.188 C 
ATOM     15  O   UNL     1      -5.072   1.912  25.730  0.00  0.00    -0.348 OA
ATOM     16  C   UNL     1      -4.746   1.670  25.013  0.00  0.00    +0.168 C 
ATOM     17  C   UNL     1      -4.631   1.022  24.515  0.00  0.00    +0.156 C 
ATOM     18  C   UNL     1      -4.217   1.281  23.850  0.00  0.00    +0.166 C 
ATOM     19  O   UNL     1      -4.076   2.089  23.937  0.00  0.00    -0.348 OA
ATOM     20  C   UNL     1      -4.403   2.330  24.655  0.00  0.00    +0.186 C 
ENDROOT
BRANCH  17  21
ATOM     21  N   UNL     1      -4.885   0.250  24.659  0.00  0.00    -0.184 NA
ATOM     22  C   UNL     1      -4.360  -0.380  24.573  0.00  0.00    +0.344 C 
ATOM     23  O   UNL     1      -3.580  -0.239  24.344  0.00  0.00    -0.249 OA
ATOM     24  N   UNL     1      -4.614  -1.151  24.716  0.00  0.00    -0.161 NA
BRANCH  24  25
ATOM     25  C   UNL     1      -4.089  -1.782  24.630  0.00  0.00    +0.075 A 
ATOM     26  C   UNL     1      -3.534  -1.940  25.219  0.00  0.00    +0.017 A 
ATOM     27  C   UNL     1      -3.009  -2.570  25.133  0.00  0.00    +0.001 A 
ATOM     28  C   UNL     1      -3.039  -3.043  24.458  0.00  0.00    +0.000 A 
ATOM     29  C   UNL     1      -3.594  -2.885  23.868  0.00  0.00    +0.001 A 
ATOM     30  C   UNL     1      -4.119  -2.254  23.954  0.00  0.00    +0.017 A 
ENDBRANCH  24  25
ENDBRANCH  17  21
BRANCH  13  12
ATOM     12  O   UNL     1      -4.263   3.750  25.008  0.00  0.00    -0.432 OA
BRANCH  12  10
ATOM      9  N   UNL     1      -2.941   4.110  24.604  0.00  0.00    -0.142 NA
ATOM     10  C   UNL     1      -3.493   3.973  25.201  0.00  0.00    +0.425 C 
ATOM     11  O   UNL     1      -3.274   4.059  25.993  0.00  0.00    -0.224 OA
BRANCH   9   8
ATOM      4  C   UNL     1      -0.803   3.988  25.031  0.00  0.00    +0.036 A 
ATOM      5  C   UNL     1      -0.629   4.780  25.182  0.00  0.00    +0.003 A 
ATOM      6  C   UNL     1      -1.226   5.349  25.141  0.00  0.00    +0.001 A 
ATOM      7  C   UNL     1      -1.996   5.125  24.948  0.00  0.00    +0.017 A 
ATOM      8  C   UNL     1      -2.170   4.333  24.797  0.00  0.00    +0.077 A 
ATOM     31  C   UNL     1      -1.574   3.765  24.838  0.00  0.00    +0.020 A 
BRANCH   4   2
ATOM      1  C   UNL     1       0.012   3.103  25.801  0.00  0.00    +0.077 C 
ATOM      2  C   UNL     1      -0.207   3.420  25.072  0.00  0.00    +0.174 C 
ATOM      3  O   UNL     1       0.171   3.168  24.382  0.00  0.00    -0.291 OA
ENDBRANCH   4   2
ENDBRANCH   9   8
ENDBRANCH  12  10
ENDBRANCH  13  12
TORSDOF 6
ENDMDL
MODEL 4
REMARK VINA RESULT:      -9.9      3.050      5.277
REMARK  Name = 
REMARK  6 active torsions:
REMARK  status: ('A' for Active; 'I' for Inactive)
REMARK    1  A    between atoms: C_2  and  C_4
REMARK    2  A    between atoms: C_8  and  N_9
REMARK    3  A    between atoms: C_10  and  O_12
REMARK    4  A    between atoms: O_12  and  C_13
REMARK    5  A    between atoms: C_17  and  N_21
REMARK    6  A    between atoms: N_24  and  C_25
REMARK                            x       y       z     vdW  Elec       q    Type
REMARK                         _______ _______ _______ _____ _____    ______ ____
ROOT
ATOM     13  C   UNL     1       0.482   0.701  23.582  0.00  0.00    +0.229 C 
ATOM     14  C   UNL     1       0.569   1.466  23.877  0.00  0.00    +0.188 C 
ATOM     15  O   UNL     1      -0.093   1.637  24.339  0.00  0.00    -0.348 OA
ATOM     16  C   UNL     1      -0.588   0.978  24.330  0.00  0.00    +0.168 C 
ATOM     17  C   UNL     1      -1.302   0.675  24.610  0.00  0.00    +0.156 C 
ATOM     18  C   UNL     1      -1.389  -0.090  24.315  0.00  0.00    +0.166 C 
ATOM     19  O   UNL     1      -0.728  -0.261  23.852  0.00  0.00    -0.348 OA
ATOM     20  C   UNL     1      -0.232   0.399  23.862  0.00  0.00    +0.186 C 
ENDROOT
BRANCH  17  21
ATOM     21  N   UNL     1      -1.837   1.069  25.100  0.00  0.00    -0.184 NA
ATOM     22  C   UNL     1      -2.613   1.194  24.849  0.00  0.00    +0.344 C 
ATOM     23  O   UNL     1      -2.854   0.924  24.107  0.00  0.00    -0.249 OA
ATOM     24  N   UNL     1      -3.147   1.587  25.338  0.00  0.00    -0.161 NA
BRANCH  24  25
ATOM     25  C   UNL     1      -3.923   1.712  25.086  0.00  0.00    +0.075 A 
ATOM     26  C   UNL     1      -4.127   2.415  24.708  0.00  0.00    +0.017 A 
ATOM     27  C   UNL     1      -4.902   2.540  24.457  0.00  0.00    +0.001 A 
ATOM     28  C   UNL     1      -5.475   1.959  24.584  0.00  0.00    +0.000 A 
ATOM     29  C   UNL     1      -5.272   1.255  24.963  0.00  0.00    +0.001 A 
ATOM     30  C   UNL     1      -4.496   1.131  25.213  0.00  0.00    +0.017 A 
ENDBRANCH  24  25
ENDBRANCH  17  21
BRANCH  13  12
ATOM     12  O   UNL     1       1.016   0.307  23.092  0.00  0.00    -0.432 OA
BRANCH  12  10
ATOM      9  N   UNL     1       2.373  -0.031  22.796  0.00  0.00    -0.142 NA
ATOM     10  C   UNL     1       1.822   0.479  23.136  0.00  0.00    +0.425 C 
ATOM     11  O   UNL     1       2.076   1.164  23.522  0.00  0.00    -0.224 OA
BRANCH   9   8
ATOM      4  C   UNL     1       4.477  -0.138  23.368  0.00  0.00    +0.036 A 
ATOM      5  C   UNL     1       4.790   0.487  22.930  0.00  0.00    +0.003 A 
ATOM      6  C   UNL     1       4.297   0.939  22.446  0.00  0.00    +0.001 A 
ATOM      7  C   UNL     1       3.491   0.766  22.402  0.00  0.00    +0.017 A 
ATOM      8  C   UNL     1       3.179   0.141  22.841  0.00  0.00    +0.077 A 
ATOM     31  C   UNL     1       3.671  -0.310  23.324  0.00  0.00    +0.020 A 
BRANCH   4   2
ATOM      1  C   UNL     1       5.569  -0.225  24.286  0.00  0.00    +0.077 C 
ATOM      2  C   UNL     1       4.970  -0.589  23.851  0.00  0.00    +0.174 C 
ATOM      3  O   UNL     1       4.864  -1.407  23.900  0.00  0.00    -0.291 OA
ENDBRANCH   4   2
ENDBRANCH   9   8
ENDBRANCH  12  10
ENDBRANCH  13  12
TORSDOF 6
ENDMDL
MODEL 5
REMARK VINA RESULT:      -9.9      2.621      4.598
REMARK  Name = 
REMARK  6 active torsions:
REMARK  status: ('A' for Active; 'I' for Inactive)
REMARK    1  A    between atoms: C_2  and  C_4
REMARK    2  A    between atoms: C_8  and  N_9
REMARK    3  A    between atoms: C_10  and  O_12
REMARK    4  A    between atoms: O_12  and  C_13
REMARK    5  A    between atoms: C_17  and  N_21
REMARK    6  A    between atoms: N_24  and  C_25
REMARK                            x       y       z     vdW  Elec       q    Type
REMARK                         _______ _______ _______ _____ _____    ______ ____
ROOT
ATOM     13  C   UNL     1      -1.110   0.817  24.676  0.00  0.00    +0.229 C 
ATOM     14  C   UNL     1      -1.199   0.049  24.390  0.00  0.00    +0.188 C 
ATOM     15  O   UNL     1      -0.551  -0.118  23.907  0.00  0.00    -0.348 OA
ATOM     16  C   UNL     1      -0.063   0.545  23.895  0.00  0.00    +0.168 C 
ATOM     17  C   UNL     1       0.639   0.853  23.590  0.00  0.00    +0.156 C 
ATOM     18  C   UNL     1       0.727   1.621  23.876  0.00  0.00    +0.166 C 
ATOM     19  O   UNL     1       0.080   1.789  24.359  0.00  0.00    -0.348 OA
ATOM     20  C   UNL     1      -0.409   1.124  24.371  0.00  0.00    +0.186 C 
ENDROOT
BRANCH  17  21
ATOM     21  N   UNL     1       1.161   0.461  23.085  0.00  0.00    -0.184 NA
ATOM     22  C   UNL     1       1.975   0.523  23.204  0.00  0.00    +0.344 C 
ATOM     23  O   UNL     1       2.267   0.977  23.828  0.00  0.00    -0.249 OA
ATOM     24  N   UNL     1       2.497   0.130  22.701  0.00  0.00    -0.161 NA
BRANCH  24  25
ATOM     25  C   UNL     1       3.311   0.192  22.820  0.00  0.00    +0.075 A 
ATOM     26  C   UNL     1       3.721   0.848  22.535  0.00  0.00    +0.017 A 
ATOM     27  C   UNL     1       4.534   0.910  22.654  0.00  0.00    +0.001 A 
ATOM     28  C   UNL     1       4.939   0.315  23.058  0.00  0.00    +0.000 A 
ATOM     29  C   UNL     1       4.529  -0.342  23.343  0.00  0.00    +0.001 A 
ATOM     30  C   UNL     1       3.715  -0.403  23.224  0.00  0.00    +0.017 A 
ENDBRANCH  24  25
ENDBRANCH  17  21
BRANCH  13  12
ATOM     12  O   UNL     1      -1.632   1.210  25.181  0.00  0.00    -0.432 OA
BRANCH  12  10
ATOM      9  N   UNL     1      -2.685   2.172  25.093  0.00  0.00    -0.142 NA
ATOM     10  C   UNL     1      -2.381   1.427  24.912  0.00  0.00    +0.425 C 
ATOM     11  O   UNL     1      -2.826   0.898  24.461  0.00  0.00    -0.224 OA
BRANCH   9   8
ATOM      4  C   UNL     1      -4.838   2.532  25.051  0.00  0.00    +0.036 A 
ATOM      5  C   UNL     1      -4.932   2.824  24.285  0.00  0.00    +0.003 A 
ATOM      6  C   UNL     1      -4.277   2.899  23.789  0.00  0.00    +0.001 A 
ATOM      7  C   UNL     1      -3.528   2.682  24.059  0.00  0.00    +0.017 A 
ATOM      8  C   UNL     1      -3.434   2.389  24.824  0.00  0.00    +0.077 A 
ATOM     31  C   UNL     1      -4.089   2.315  25.320  0.00  0.00    +0.020 A 
BRANCH   4   2
ATOM      1  C   UNL     1      -6.044   1.858  25.415  0.00  0.00    +0.077 C 
ATOM      2  C   UNL     1      -5.492   2.457  25.547  0.00  0.00    +0.174 C 
ATOM      3  O   UNL     1      -5.596   2.982  26.176  0.00  0.00    -0.291 OA
ENDBRANCH   4   2
ENDBRANCH   9   8
ENDBRANCH  12  10
ENDBRANCH  13  12
TORSDOF 6
ENDMDL
MODEL 6
REMARK VINA RESULT:      -9.9      1.029      5.703
REMARK  Name = 
REMARK  6 active torsions:
REMARK  status: ('A' for Active; 'I' for Inactive)
REMARK    1  A    between atoms: C_2  and  C_4
REMARK    2  A    between atoms: C_8  and  N_9
REMARK    3  A    between atoms: C_10  and  O_12
REMARK    4  A    between atoms: O_12  and  C_13
REMARK    5  A    between atoms: C_17  and  N_21
REMARK    6  A    between atoms: N_24  and  C_25
REMARK                            x       y       z     vdW  Elec       q    Type
REMARK                         _______ _______ _______ _____ _____    ______ ____
ROOT
ATOM     13  C   UNL     1      -0.333  -0.404  24.555  0.00  0.00    +0.229 C 
ATOM     14  C   UNL     1      -0.124  -0.209  23.781  0.00  0.00    +0.188 C 
ATOM     15  O   UNL     1      -0.048   0.612  23.738  0.00  0.00    -0.348 OA
ATOM     16  C   UNL     1      -0.210   0.923  24.484  0.00  0.00    +0.168 C 
ATOM     17  C   UNL     1      -0.263   1.622  24.919  0.00  0.00    +0.156 C 
ATOM     18  C   UNL     1      -0.472   1.427  25.692  0.00  0.00    +0.166 C 
ATOM     19  O   UNL     1      -0.548   0.607  25.736  0.00  0.00    -0.348 OA
ATOM     20  C   UNL     1      -0.386   0.295  24.989  0.00  0.00    +0.186 C 
ENDROOT
BRANCH  17  21
ATOM     21  N   UNL     1      -0.131   2.384  24.630  0.00  0.00    -0.184 NA
ATOM     22  C   UNL     1      -0.630   3.002  24.852  0.00  0.00    +0.344 C 
ATOM     23  O   UNL     1      -1.261   2.859  25.363  0.00  0.00    -0.249 OA
ATOM     24  N   UNL     1      -0.497   3.763  24.564  0.00  0.00    -0.161 NA
BRANCH  24  25
ATOM     25  C   UNL     1      -0.996   4.382  24.786  0.00  0.00    +0.075 A 
ATOM     26  C   UNL     1      -0.714   5.156  24.799  0.00  0.00    +0.017 A 
ATOM     27  C   UNL     1      -1.212   5.774  25.021  0.00  0.00    +0.001 A 
ATOM     28  C   UNL     1      -1.995   5.618  25.230  0.00  0.00    +0.000 A 
ATOM     29  C   UNL     1      -2.279   4.843  25.217  0.00  0.00    +0.001 A 
ATOM     30  C   UNL     1      -1.779   4.225  24.994  0.00  0.00    +0.017 A 
ENDBRANCH  24  25
ENDBRANCH  17  21
BRANCH  13  12
ATOM     12  O   UNL     1      -0.465  -1.166  24.844  0.00  0.00    -0.432 OA
BRANCH  12  10
ATOM      9  N   UNL     1      -1.780  -1.668  25.092  0.00  0.00    -0.142 NA
ATOM     10  C   UNL     1      -1.126  -1.592  24.595  0.00  0.00    +0.425 C 
ATOM     11  O   UNL     1      -1.132  -1.944  23.848  0.00  0.00    -0.224 OA
BRANCH   9   8
ATOM      4  C   UNL     1      -3.749  -2.128  24.269  0.00  0.00    +0.036 A 
ATOM      5  C   UNL     1      -3.762  -2.949  24.345  0.00  0.00    +0.003 A 
ATOM      6  C   UNL     1      -3.114  -3.344  24.670  0.00  0.00    +0.001 A 
ATOM      7  C   UNL     1      -2.454  -2.916  24.919  0.00  0.00    +0.017 A 
ATOM      8  C   UNL     1      -2.441  -2.095  24.843  0.00  0.00    +0.077 A 
ATOM     31  C   UNL     1      -3.088  -1.701  24.518  0.00  0.00    +0.020 A 
BRANCH   4   2
ATOM      1  C   UNL     1      -4.506  -0.929  24.089  0.00  0.00    +0.077 C 
ATOM      2  C   UNL     1      -4.396  -1.734  23.944  0.00  0.00    +0.174 C 
ATOM      3  O   UNL     1      -4.936  -2.145  23.473  0.00  0.00    -0.291 OA
ENDBRANCH   4   2
ENDBRANCH   9   8
ENDBRANCH  12  10
ENDBRANCH  13  12
TORSDOF 6
ENDMDL
MODEL 7
REMARK VINA RESULT:      -9.5      2.859      5.706
REMARK  Name = 
REMARK  6 active torsions:
REMARK  status: ('A' for Active; 'I' for Inactive)
REMARK    1  A    between atoms: C_2  and  C_4
REMARK    2  A    between atoms: C_8  and  N_9
REMARK    3  A    between atoms: C_10  and  O_12
REMARK    4  A    between atoms: O_12  and  C_13
REMARK    5  A    between atoms: C_17  and  N_21
REMARK    6  A    between atoms: N_24  and  C_25
REMARK                            x       y       z     vdW  Elec       q    Type
REMARK                         _______ _______ _______ _____ _____    ______ ____
ROOT
ATOM     13  C   UNL     1      -0.435   0.344  24.117  0.00  0.00    +0.229 C 
ATOM     14  C   UNL     1      -0.357  -0.443  23.882  0.00  0.00    +0.188 C 
ATOM     15  O   UNL     1       0.363  -0.520  23.487  0.00  0.00    -0.348 OA
ATOM     16  C   UNL     1       0.729   0.218  23.477  0.00  0.00    +0.168 C 
ATOM     17  C   UNL     1       1.401   0.627  23.227  0.00  0.00    +0.156 C 
ATOM     18  C   UNL     1       1.323   1.414  23.462  0.00  0.00    +0.166 C 
ATOM     19  O   UNL     1       0.603   1.491  23.857  0.00  0.00    -0.348 OA
ATOM     20  C   UNL     1       0.236   0.752  23.867  0.00  0.00    +0.186 C 
ENDROOT
BRANCH  17  21
ATOM     21  N   UNL     1       2.039   0.305  22.814  0.00  0.00    -0.184 NA
ATOM     22  C   UNL     1       2.794   0.321  23.144  0.00  0.00    +0.344 C 
ATOM     23  O   UNL     1       2.912   0.658  23.888  0.00  0.00    -0.249 OA
ATOM     24  N   UNL     1       3.432  -0.001  22.732  0.00  0.00    -0.161 NA
BRANCH  24  25
ATOM     25  C   UNL     1       4.188   0.015  23.062  0.00  0.00    +0.075 A 
ATOM     26  C   UNL     1       4.659   0.687  22.984  0.00  0.00    +0.017 A 
ATOM     27  C   UNL     1       5.414   0.702  23.314  0.00  0.00    +0.001 A 
ATOM     28  C   UNL     1       5.699   0.045  23.724  0.00  0.00    +0.000 A 
ATOM     29  C   UNL     1       5.228  -0.628  23.802  0.00  0.00    +0.001 A 
ATOM     30  C   UNL     1       4.472  -0.643  23.472  0.00  0.00    +0.017 A 
ENDBRANCH  24  25
ENDBRANCH  17  21
BRANCH  13  12
ATOM     12  O   UNL     1      -1.073   0.666  24.530  0.00  0.00    -0.432 OA
BRANCH  12  10
ATOM      9  N   UNL     1      -2.245  -0.028  24.960  0.00  0.00    -0.142 NA
ATOM     10  C   UNL     1      -1.839   0.397  24.382  0.00  0.00    +0.425 C 
ATOM     11  O   UNL     1      -2.197   0.553  23.655  0.00  0.00    -0.224 OA
BRANCH   9   8
ATOM      4  C   UNL     1      -3.902  -1.346  24.425  0.00  0.00    +0.036 A 
ATOM      5  C   UNL     1      -4.543  -0.835  24.517  0.00  0.00    +0.003 A 
ATOM      6  C   UNL     1      -4.419  -0.055  24.756  0.00  0.00    +0.001 A 
ATOM      7  C   UNL     1      -3.653   0.213  24.904  0.00  0.00    +0.017 A 
ATOM      8  C   UNL     1      -3.011  -0.298  24.812  0.00  0.00    +0.077 A 
ATOM     31  C   UNL     1      -3.136  -1.077  24.573  0.00  0.00    +0.020 A 
BRANCH   4   2
ATOM      1  C   UNL     1      -3.689  -2.747  24.611  0.00  0.00    +0.077 C 
ATOM      2  C   UNL     1      -4.026  -2.125  24.186  0.00  0.00    +0.174 C 
ATOM      3  O   UNL     1      -4.490  -2.284  23.521  0.00  0.00    -0.291 OA
ENDBRANCH   4   2
ENDBRANCH   9   8
ENDBRANCH  12  10
ENDBRANCH  13  12
TORSDOF 6
ENDMDL
MODEL 8
REMARK VINA RESULT:      -7.6     17.051     18.755
REMARK  Name = 
REMARK  6 active torsions:
REMARK  status: ('A' for Active; 'I' for Inactive)
REMARK    1  A    between atoms: C_2  and  C_4
REMARK    2  A    between atoms: C_8  and  N_9
REMARK    3  A    between atoms: C_10  and  O_12
REMARK    4  A    between atoms: O_12  and  C_13
REMARK    5  A    between atoms: C_17  and  N_21
REMARK    6  A    between atoms: N_24  and  C_25
REMARK                            x       y       z     vdW  Elec       q    Type
REMARK                         _______ _______ _______ _____ _____    ______ ____
ROOT
ATOM     13  C   UNL     1      -6.565  -8.514   9.108  0.00  0.00    +0.229 C 
ATOM     14  C   UNL     1      -7.051  -9.071   9.472  0.00  0.00    +0.188 C 
ATOM     15  O   UNL     1      -6.568  -9.614   9.862  0.00  0.00    -0.348 OA
ATOM     16  C   UNL     1      -5.784  -9.392   9.739  0.00  0.00    +0.168 C 
ATOM     17  C   UNL     1      -5.000  -9.590   9.903  0.00  0.00    +0.156 C 
ATOM     18  C   UNL     1      -4.513  -9.033   9.539  0.00  0.00    +0.166 C 
ATOM     19  O   UNL     1      -4.996  -8.490   9.149  0.00  0.00    -0.348 OA
ATOM     20  C   UNL     1      -5.782  -8.712   9.272  0.00  0.00    +0.186 C 
ENDROOT
BRANCH  17  21
ATOM     21  N   UNL     1      -4.747 -10.234  10.354  0.00  0.00    -0.184 NA
ATOM     22  C   UNL     1      -4.143 -10.138  10.908  0.00  0.00    +0.344 C 
ATOM     23  O   UNL     1      -3.791  -9.399  11.011  0.00  0.00    -0.249 OA
ATOM     24  N   UNL     1      -3.890 -10.780  11.358  0.00  0.00    -0.161 NA
BRANCH  24  25
ATOM     25  C   UNL     1      -3.286 -10.685  11.912  0.00  0.00    +0.075 A 
ATOM     26  C   UNL     1      -2.497 -10.734  11.676  0.00  0.00    +0.017 A 
ATOM     27  C   UNL     1      -1.894 -10.639  12.228  0.00  0.00    +0.001 A 
ATOM     28  C   UNL     1      -2.078 -10.493  13.020  0.00  0.00    +0.000 A 
ATOM     29  C   UNL     1      -2.867 -10.443  13.257  0.00  0.00    +0.001 A 
ATOM     30  C   UNL     1      -3.470 -10.539  12.703  0.00  0.00    +0.017 A 
ENDBRANCH  24  25
ENDBRANCH  17  21
BRANCH  13  12
ATOM     12  O   UNL     1      -6.818  -7.870   8.657  0.00  0.00    -0.432 OA
BRANCH  12  10
ATOM      9  N   UNL     1      -7.917  -7.112   8.149  0.00  0.00    -0.142 NA
ATOM     10  C   UNL     1      -7.588  -7.587   8.737  0.00  0.00    +0.425 C 
ATOM     11  O   UNL     1      -8.030  -7.780   9.407  0.00  0.00    -0.224 OA
BRANCH   9   8
ATOM      4  C   UNL     1      -9.590  -5.753   8.496  0.00  0.00    +0.036 A 
ATOM      5  C   UNL     1     -10.230  -6.263   8.390  0.00  0.00    +0.003 A 
ATOM      6  C   UNL     1     -10.098  -7.057   8.204  0.00  0.00    +0.001 A 
ATOM      7  C   UNL     1      -9.327  -7.339   8.124  0.00  0.00    +0.017 A 
ATOM      8  C   UNL     1      -8.688  -6.829   8.230  0.00  0.00    +0.077 A 
ATOM     31  C   UNL     1      -8.819  -6.036   8.415  0.00  0.00    +0.020 A 
BRANCH   4   2
ATOM      1  C   UNL     1     -10.468  -4.714   8.934  0.00  0.00    +0.077 C 
ATOM      2  C   UNL     1      -9.722  -4.961   8.682  0.00  0.00    +0.174 C 
ATOM      3  O   UNL     1      -9.107  -4.414   8.616  0.00  0.00    -0.291 OA
ENDBRANCH   4   2
ENDBRANCH   9   8
ENDBRANCH  12  10
ENDBRANCH  13  12
TORSDOF 6
ENDMDL
MODEL 9
REMARK VINA RESULT:      -7.6     14.832     16.784
REMARK  Name = 
REMARK  6 active torsions:
REMARK  status: ('A' for Active; 'I' for Inactive)
REMARK    1  A    between atoms: C_2  and  C_4
REMARK    2  A    between atoms: C_8  and  N_9
REMARK    3  A    between atoms: C_10  and  O_12
REMARK    4  A    between atoms: O_12  and  C_13
REMARK    5  A    between atoms: C_17  and  N_21
REMARK    6  A    between atoms: N_24  and  C_25
REMARK                            x       y       z     vdW  Elec       q    Type
REMARK                         _______ _______ _______ _____ _____    ______ ____
ROOT
ATOM     13  C   UNL     1      -5.960 -10.292  13.416  0.00  0.00    +0.229 C 
ATOM     14  C   UNL     1      -5.382 -10.011  13.932  0.00  0.00    +0.188 C 
ATOM     15  O   UNL     1      -5.739  -9.873  14.663  0.00  0.00    -0.348 OA
ATOM     16  C   UNL     1      -6.537 -10.068  14.598  0.00  0.00    +0.168 C 
ATOM     17  C   UNL     1      -7.252 -10.104  15.009  0.00  0.00    +0.156 C 
ATOM     18  C   UNL     1      -7.830 -10.385  14.493  0.00  0.00    +0.166 C 
ATOM     19  O   UNL     1      -7.473 -10.523  13.762  0.00  0.00    -0.348 OA
ATOM     20  C   UNL     1      -6.674 -10.327  13.827  0.00  0.00    +0.186 C 
ENDROOT
BRANCH  17  21
ATOM     21  N   UNL     1      -7.367  -9.895  15.799  0.00  0.00    -0.184 NA
ATOM     22  C   UNL     1      -8.091  -9.580  16.041  0.00  0.00    +0.344 C 
ATOM     23  O   UNL     1      -8.698  -9.474  15.493  0.00  0.00    -0.249 OA
ATOM     24  N   UNL     1      -8.206  -9.371  16.830  0.00  0.00    -0.161 NA
BRANCH  24  25
ATOM     25  C   UNL     1      -8.929  -9.056  17.072  0.00  0.00    +0.075 A 
ATOM     26  C   UNL     1      -9.072  -8.247  17.001  0.00  0.00    +0.017 A 
ATOM     27  C   UNL     1      -9.794  -7.932  17.243  0.00  0.00    +0.001 A 
ATOM     28  C   UNL     1     -10.376  -8.426  17.557  0.00  0.00    +0.000 A 
ATOM     29  C   UNL     1     -10.233  -9.236  17.629  0.00  0.00    +0.001 A 
ATOM     30  C   UNL     1      -9.510  -9.550  17.386  0.00  0.00    +0.017 A 
ENDBRANCH  24  25
ENDBRANCH  17  21
BRANCH  13  12
ATOM     12  O   UNL     1      -5.845 -10.501  12.626  0.00  0.00    -0.432 OA
BRANCH  12  10
ATOM      9  N   UNL     1      -4.735 -10.578  11.729  0.00  0.00    -0.142 NA
ATOM     10  C   UNL     1      -5.257 -10.129  12.182  0.00  0.00    +0.425 C 
ATOM     11  O   UNL     1      -5.193  -9.306  12.192  0.00  0.00    -0.224 OA
BRANCH   9   8
ATOM      4  C   UNL     1      -2.775  -9.861  11.089  0.00  0.00    +0.036 A 
ATOM      5  C   UNL     1      -2.974  -9.460  10.396  0.00  0.00    +0.003 A 
ATOM      6  C   UNL     1      -3.761  -9.431  10.147  0.00  0.00    +0.001 A 
ATOM      7  C   UNL     1      -4.347  -9.804  10.592  0.00  0.00    +0.017 A 
ATOM      8  C   UNL     1      -4.148 -10.205  11.285  0.00  0.00    +0.077 A 
ATOM     31  C   UNL     1      -3.362 -10.234  11.533  0.00  0.00    +0.020 A 
BRANCH   4   2
ATOM      1  C   UNL     1      -1.466  -9.290  11.120  0.00  0.00    +0.077 C 
ATOM      2  C   UNL     1      -1.989  -9.890  11.337  0.00  0.00    +0.174 C 
ATOM      3  O   UNL     1      -1.726 -10.519  11.802  0.00  0.00    -0.291 OA
ENDBRANCH   4   2
ENDBRANCH   9   8
ENDBRANCH  12  10
ENDBRANCH  13  12
TORSDOF 6
ENDMDL
