REMARK  Name = 
REMARK  5 active torsions:
REMARK  status: ('A' for Active; 'I' for Inactive)
REMARK    1  A    between atoms: C_2  and  N_4
REMARK    2  A    between atoms: N_4  and  C_5
REMARK    3  A    between atoms: C_8  and  C_9
REMARK    4  A    between atoms: C_9  and  N_10
REMARK    5  A    between atoms: N_13  and  C_14
REMARK                            x       y       z     vdW  Elec       q    Type
REMARK                         _______ _______ _______ _____ _____    ______ ____
ROOT
ATOM      9  C   UNL     1       0.715  -2.888   0.000  0.00  0.00    +0.149 C 
ENDROOT
BRANCH   9   8
ATOM      5  C   UNL     1      -1.306  -2.197   0.000  0.00  0.00    +0.135 C 
ATOM      6  C   UNL     1      -0.893  -1.483   0.000  0.00  0.00    +0.162 C 
ATOM      7  O   UNL     1      -0.086  -1.655   0.000  0.00  0.00    -0.350 OA
ATOM      8  C   UNL     1       0.000  -2.475   0.000  0.00  0.00    +0.169 C 
ATOM     20  C   UNL     1      -0.754  -2.811   0.000  0.00  0.00    +0.199 C 
ATOM     21  O   UNL     1      -0.925  -3.618   0.000  0.00  0.00    -0.219 OA
BRANCH   5   4
ATOM      4  N   UNL     1      -2.126  -2.284   0.000  0.00  0.00    -0.216 NA
BRANCH   4   2
ATOM      1  C   UNL     1      -3.432  -1.702   0.000  0.00  0.00    +0.019 C 
ATOM      2  C   UNL     1      -2.611  -1.616   0.000  0.00  0.00    +0.073 C 
ATOM      3  C   UNL     1      -2.276  -0.863   0.000  0.00  0.00    +0.019 C 
ENDBRANCH   4   2
ENDBRANCH   5   4
ENDBRANCH   9   8
BRANCH   9  10
ATOM     10  N   UNL     1       1.429  -2.475   0.000  0.00  0.00    -0.184 NA
ATOM     11  C   UNL     1       2.143  -2.888   0.000  0.00  0.00    +0.344 C 
ATOM     12  O   UNL     1       2.143  -3.712   0.000  0.00  0.00    -0.249 OA
ATOM     13  N   UNL     1       2.858  -2.475   0.000  0.00  0.00    -0.161 NA
BRANCH  13  14
ATOM     14  C   UNL     1       3.572  -2.888   0.000  0.00  0.00    +0.075 A 
ATOM     15  C   UNL     1       4.287  -2.475   0.000  0.00  0.00    +0.017 A 
ATOM     16  C   UNL     1       5.001  -2.888   0.000  0.00  0.00    +0.001 A 
ATOM     17  C   UNL     1       5.001  -3.712   0.000  0.00  0.00    +0.000 A 
ATOM     18  C   UNL     1       4.287  -4.125   0.000  0.00  0.00    +0.001 A 
ATOM     19  C   UNL     1       3.572  -3.712   0.000  0.00  0.00    +0.017 A 
ENDBRANCH  13  14
ENDBRANCH   9  10
TORSDOF 5
