MODEL 1
REMARK VINA RESULT:      -8.5      0.000      0.000
REMARK  Name = 
REMARK  11 active torsions:
REMARK  status: ('A' for Active; 'I' for Inactive)
REMARK    1  A    between atoms: O_2  and  C_3
REMARK    2  A    between atoms: C_3  and  C_4
REMARK    3  A    between atoms: C_4  and  C_5
REMARK    4  A    between atoms: N_7  and  C_8
REMARK    5  A    between atoms: C_8  and  C_9
REMARK    6  A    between atoms: C_13  and  C_14
REMARK    7  A    between atoms: C_14  and  C_15
REMARK    8  A    between atoms: N_17  and  C_18
REMARK    9  A    between atoms: C_18  and  C_19
REMARK   10  A    between atoms: C_22  and  C_25
REMARK   11  A    between atoms: C_28  and  C_29
REMARK                            x       y       z     vdW  Elec       q    Type
REMARK                         _______ _______ _______ _____ _____    ______ ____
ROOT
ATOM      9  C   UNL     1      -0.355   0.540  24.153  0.00  0.00    +0.043 C 
ATOM     10  C   UNL     1      -0.448  -0.279  24.185  0.00  0.00    -0.033 C 
ATOM     11  C   UNL     1      -1.160  -0.603  24.451  0.00  0.00    -0.048 C 
ATOM     12  C   UNL     1      -1.254  -1.421  24.483  0.00  0.00    +0.026 C 
ATOM     13  C   UNL     1      -1.777  -0.107  24.685  0.00  0.00    +0.027 C 
ATOM     27  C   UNL     1      -1.681   0.712  24.653  0.00  0.00    +0.005 C 
ATOM     28  C   UNL     1      -0.971   1.035  24.387  0.00  0.00    +0.006 C 
ENDROOT
BRANCH  28  29
ATOM     29  C   UNL     1      -0.876   1.854  24.355  0.00  0.00    +0.000 C 
ATOM     30  C   UNL     1      -1.056   2.264  23.662  0.00  0.00    +0.000 C 
ATOM     31  C   UNL     1      -0.600   2.264  25.016  0.00  0.00    +0.000 C 
ENDBRANCH  28  29
BRANCH   9   8
ATOM      8  C   UNL     1       0.357   0.863  23.887  0.00  0.00    +0.119 C 
BRANCH   8   7
ATOM      5  C   UNL     1       1.653   0.678  23.314  0.00  0.00    +0.244 C 
ATOM      6  O   UNL     1       1.867   1.437  23.554  0.00  0.00    -0.273 OA
ATOM      7  N   UNL     1       0.897   0.390  23.480  0.00  0.00    -0.205 NA
BRANCH   5   4
ATOM      4  C   UNL     1       2.194   0.206  22.908  0.00  0.00    +0.119 C 
BRANCH   4   3
ATOM      3  C   UNL     1       2.953   0.489  22.751  0.00  0.00    +0.152 C 
BRANCH   3   2
ATOM      1  C   UNL     1       4.359   0.237  22.701  0.00  0.00    +0.174 C 
ATOM      2  O   UNL     1       3.581  -0.039  22.669  0.00  0.00    -0.351 OA
ENDBRANCH   3   2
ENDBRANCH   4   3
ENDBRANCH   5   4
ENDBRANCH   8   7
ENDBRANCH   9   8
BRANCH  13  14
ATOM     14  C   UNL     1      -2.487  -0.430  24.951  0.00  0.00    +0.091 C 
BRANCH  14  15
ATOM     15  C   UNL     1      -3.201  -0.189  24.615  0.00  0.00    +0.242 C 
ATOM     16  O   UNL     1      -3.446  -0.509  23.895  0.00  0.00    -0.273 OA
ATOM     17  N   UNL     1      -3.670   0.369  24.999  0.00  0.00    -0.201 NA
BRANCH  17  18
ATOM     18  C   UNL     1      -4.384   0.609  24.664  0.00  0.00    +0.141 C 
BRANCH  18  19
ATOM     19  C   UNL     1      -4.725   1.327  24.887  0.00  0.00    -0.001 A 
ATOM     20  C   UNL     1      -5.258   1.353  25.516  0.00  0.00    -0.002 A 
ATOM     21  C   UNL     1      -5.599   2.070  25.739  0.00  0.00    +0.010 A 
ATOM     22  C   UNL     1      -5.407   2.762  25.332  0.00  0.00    +0.068 A 
ATOM     23  C   UNL     1      -4.874   2.737  24.703  0.00  0.00    +0.010 A 
ATOM     24  C   UNL     1      -4.533   2.018  24.480  0.00  0.00    -0.002 A 
BRANCH  22  25
ATOM     25  C   UNL     1      -5.747   3.480  25.554  0.00  0.00    +0.100 C 
ATOM     26  N   UNL     1      -6.089   4.198  25.776  0.00  0.00    -0.191 NA
ENDBRANCH  22  25
ENDBRANCH  18  19
ENDBRANCH  17  18
ENDBRANCH  14  15
ENDBRANCH  13  14
TORSDOF 11
ENDMDL
MODEL 2
REMARK VINA RESULT:      -8.5      1.685      3.017
REMARK  Name = 
REMARK  11 active torsions:
REMARK  status: ('A' for Active; 'I' for Inactive)
REMARK    1  A    between atoms: O_2  and  C_3
REMARK    2  A    between atoms: C_3  and  C_4
REMARK    3  A    between atoms: C_4  and  C_5
REMARK    4  A    between atoms: N_7  and  C_8
REMARK    5  A    between atoms: C_8  and  C_9
REMARK    6  A    between atoms: C_13  and  C_14
REMARK    7  A    between atoms: C_14  and  C_15
REMARK    8  A    between atoms: N_17  and  C_18
REMARK    9  A    between atoms: C_18  and  C_19
REMARK   10  A    between atoms: C_22  and  C_25
REMARK   11  A    between atoms: C_28  and  C_29
REMARK                            x       y       z     vdW  Elec       q    Type
REMARK                         _______ _______ _______ _____ _____    ______ ____
ROOT
ATOM      9  C   UNL     1      -0.824   2.012  24.240  0.00  0.00    +0.043 C 
ATOM     10  C   UNL     1      -1.216   2.011  23.514  0.00  0.00    -0.033 C 
ATOM     11  C   UNL     1      -2.036   2.101  23.489  0.00  0.00    -0.048 C 
ATOM     12  C   UNL     1      -2.428   2.100  22.763  0.00  0.00    +0.026 C 
ATOM     13  C   UNL     1      -2.463   2.191  24.189  0.00  0.00    +0.027 C 
ATOM     27  C   UNL     1      -2.070   2.191  24.914  0.00  0.00    +0.005 C 
ATOM     28  C   UNL     1      -1.251   2.102  24.940  0.00  0.00    +0.006 C 
ENDROOT
BRANCH  28  29
ATOM     29  C   UNL     1      -0.858   2.102  25.666  0.00  0.00    +0.000 C 
ATOM     30  C   UNL     1      -0.710   1.391  26.056  0.00  0.00    +0.000 C 
ATOM     31  C   UNL     1      -0.613   2.815  26.001  0.00  0.00    +0.000 C 
ENDBRANCH  28  29
BRANCH   9   8
ATOM      8  C   UNL     1      -0.003   1.923  24.266  0.00  0.00    +0.119 C 
BRANCH   8   7
ATOM      5  C   UNL     1       1.177   1.389  23.663  0.00  0.00    +0.244 C 
ATOM      6  O   UNL     1       1.623   1.996  23.999  0.00  0.00    -0.273 OA
ATOM      7  N   UNL     1       0.363   1.352  23.797  0.00  0.00    -0.205 NA
BRANCH   5   4
ATOM      4  C   UNL     1       1.544   0.818  23.194  0.00  0.00    +0.119 C 
BRANCH   4   3
ATOM      3  C   UNL     1       2.365   0.823  23.106  0.00  0.00    +0.152 C 
BRANCH   3   2
ATOM      1  C   UNL     1       3.535   0.353  22.433  0.00  0.00    +0.174 C 
ATOM      2  O   UNL     1       2.727   0.290  22.591  0.00  0.00    -0.351 OA
ENDBRANCH   3   2
ENDBRANCH   4   3
ENDBRANCH   5   4
ENDBRANCH   8   7
ENDBRANCH   9   8
BRANCH  13  14
ATOM     14  C   UNL     1      -3.283   2.280  24.163  0.00  0.00    +0.091 C 
BRANCH  14  15
ATOM     15  C   UNL     1      -3.769   1.748  24.564  0.00  0.00    +0.242 C 
ATOM     16  O   UNL     1      -4.216   2.005  25.209  0.00  0.00    -0.273 OA
ATOM     17  N   UNL     1      -3.809   0.961  24.322  0.00  0.00    -0.201 NA
BRANCH  17  18
ATOM     18  C   UNL     1      -4.296   0.431  24.724  0.00  0.00    +0.141 C 
BRANCH  18  19
ATOM     19  C   UNL     1      -4.149  -0.380  24.679  0.00  0.00    -0.001 A 
ATOM     20  C   UNL     1      -4.350  -0.800  23.997  0.00  0.00    -0.002 A 
ATOM     21  C   UNL     1      -4.203  -1.610  23.953  0.00  0.00    +0.010 A 
ATOM     22  C   UNL     1      -3.855  -2.001  24.590  0.00  0.00    +0.068 A 
ATOM     23  C   UNL     1      -3.654  -1.583  25.272  0.00  0.00    +0.010 A 
ATOM     24  C   UNL     1      -3.801  -0.772  25.316  0.00  0.00    -0.002 A 
BRANCH  22  25
ATOM     25  C   UNL     1      -3.708  -2.812  24.546  0.00  0.00    +0.100 C 
ATOM     26  N   UNL     1      -3.560  -3.623  24.502  0.00  0.00    -0.191 NA
ENDBRANCH  22  25
ENDBRANCH  18  19
ENDBRANCH  17  18
ENDBRANCH  14  15
ENDBRANCH  13  14
TORSDOF 11
ENDMDL
MODEL 3
REMARK VINA RESULT:      -8.4      1.510      2.429
REMARK  Name = 
REMARK  11 active torsions:
REMARK  status: ('A' for Active; 'I' for Inactive)
REMARK    1  A    between atoms: O_2  and  C_3
REMARK    2  A    between atoms: C_3  and  C_4
REMARK    3  A    between atoms: C_4  and  C_5
REMARK    4  A    between atoms: N_7  and  C_8
REMARK    5  A    between atoms: C_8  and  C_9
REMARK    6  A    between atoms: C_13  and  C_14
REMARK    7  A    between atoms: C_14  and  C_15
REMARK    8  A    between atoms: N_17  and  C_18
REMARK    9  A    between atoms: C_18  and  C_19
REMARK   10  A    between atoms: C_22  and  C_25
REMARK   11  A    between atoms: C_28  and  C_29
REMARK                            x       y       z     vdW  Elec       q    Type
REMARK                         _______ _______ _______ _____ _____    ______ ____
ROOT
ATOM      9  C   UNL     1      -0.359   1.263  24.545  0.00  0.00    +0.043 C 
ATOM     10  C   UNL     1       0.018   1.995  24.496  0.00  0.00    -0.033 C 
ATOM     11  C   UNL     1      -0.299   2.649  24.887  0.00  0.00    -0.048 C 
ATOM     12  C   UNL     1       0.077   3.381  24.838  0.00  0.00    +0.026 C 
ATOM     13  C   UNL     1      -0.993   2.570  25.327  0.00  0.00    +0.027 C 
ATOM     27  C   UNL     1      -1.369   1.837  25.376  0.00  0.00    +0.005 C 
ATOM     28  C   UNL     1      -1.052   1.184  24.985  0.00  0.00    +0.006 C 
ENDROOT
BRANCH  28  29
ATOM     29  C   UNL     1      -1.428   0.451  25.034  0.00  0.00    +0.000 C 
ATOM     30  C   UNL     1      -1.966   0.223  24.452  0.00  0.00    +0.000 C 
ATOM     31  C   UNL     1      -1.265  -0.054  25.665  0.00  0.00    +0.000 C 
ENDBRANCH  28  29
BRANCH   9   8
ATOM      8  C   UNL     1      -0.041   0.609  24.154  0.00  0.00    +0.119 C 
BRANCH   8   7
ATOM      5  C   UNL     1       0.925   0.069  23.250  0.00  0.00    +0.244 C 
ATOM      6  O   UNL     1       0.780  -0.686  23.546  0.00  0.00    -0.273 OA
ATOM      7  N   UNL     1       0.514   0.718  23.554  0.00  0.00    -0.205 NA
BRANCH   5   4
ATOM      4  C   UNL     1       1.481   0.178  22.650  0.00  0.00    +0.119 C 
BRANCH   4   3
ATOM      3  C   UNL     1       2.283   0.059  22.805  0.00  0.00    +0.152 C 
BRANCH   3   2
ATOM      1  C   UNL     1       3.629   0.458  22.539  0.00  0.00    +0.174 C 
ATOM      2  O   UNL     1       2.851   0.353  22.284  0.00  0.00    -0.351 OA
ENDBRANCH   3   2
ENDBRANCH   4   3
ENDBRANCH   5   4
ENDBRANCH   8   7
ENDBRANCH   9   8
BRANCH  13  14
ATOM     14  C   UNL     1      -1.309   3.223  25.718  0.00  0.00    +0.091 C 
BRANCH  14  15
ATOM     15  C   UNL     1      -1.979   3.600  25.418  0.00  0.00    +0.242 C 
ATOM     16  O   UNL     1      -1.896   4.246  24.911  0.00  0.00    -0.273 OA
ATOM     17  N   UNL     1      -2.731   3.332  25.623  0.00  0.00    -0.201 NA
BRANCH  17  18
ATOM     18  C   UNL     1      -3.400   3.709  25.322  0.00  0.00    +0.141 C 
BRANCH  18  19
ATOM     19  C   UNL     1      -4.111   3.296  25.252  0.00  0.00    -0.001 A 
ATOM     20  C   UNL     1      -4.312   2.938  24.536  0.00  0.00    -0.002 A 
ATOM     21  C   UNL     1      -5.022   2.525  24.466  0.00  0.00    +0.010 A 
ATOM     22  C   UNL     1      -5.532   2.470  25.112  0.00  0.00    +0.068 A 
ATOM     23  C   UNL     1      -5.332   2.827  25.828  0.00  0.00    +0.010 A 
ATOM     24  C   UNL     1      -4.620   3.240  25.898  0.00  0.00    -0.002 A 
BRANCH  22  25
ATOM     25  C   UNL     1      -6.243   2.057  25.043  0.00  0.00    +0.100 C 
ATOM     26  N   UNL     1      -6.955   1.644  24.974  0.00  0.00    -0.191 NA
ENDBRANCH  22  25
ENDBRANCH  18  19
ENDBRANCH  17  18
ENDBRANCH  14  15
ENDBRANCH  13  14
TORSDOF 11
ENDMDL
MODEL 4
REMARK VINA RESULT:      -8.2      2.268      4.183
REMARK  Name = 
REMARK  11 active torsions:
REMARK  status: ('A' for Active; 'I' for Inactive)
REMARK    1  A    between atoms: O_2  and  C_3
REMARK    2  A    between atoms: C_3  and  C_4
REMARK    3  A    between atoms: C_4  and  C_5
REMARK    4  A    between atoms: N_7  and  C_8
REMARK    5  A    between atoms: C_8  and  C_9
REMARK    6  A    between atoms: C_13  and  C_14
REMARK    7  A    between atoms: C_14  and  C_15
REMARK    8  A    between atoms: N_17  and  C_18
REMARK    9  A    between atoms: C_18  and  C_19
REMARK   10  A    between atoms: C_22  and  C_25
REMARK   11  A    between atoms: C_28  and  C_29
REMARK                            x       y       z     vdW  Elec       q    Type
REMARK                         _______ _______ _______ _____ _____    ______ ____
ROOT
ATOM      9  C   UNL     1      -2.885   3.692  24.852  0.00  0.00    +0.043 C 
ATOM     10  C   UNL     1      -3.051   3.391  24.102  0.00  0.00    -0.033 C 
ATOM     11  C   UNL     1      -3.757   2.984  23.968  0.00  0.00    -0.048 C 
ATOM     12  C   UNL     1      -3.923   2.684  23.218  0.00  0.00    +0.026 C 
ATOM     13  C   UNL     1      -4.295   2.879  24.584  0.00  0.00    +0.027 C 
ATOM     27  C   UNL     1      -4.128   3.180  25.334  0.00  0.00    +0.005 C 
ATOM     28  C   UNL     1      -3.423   3.586  25.468  0.00  0.00    +0.006 C 
ENDROOT
BRANCH  28  29
ATOM     29  C   UNL     1      -3.256   3.887  26.218  0.00  0.00    +0.000 C 
ATOM     30  C   UNL     1      -3.497   4.649  26.420  0.00  0.00    +0.000 C 
ATOM     31  C   UNL     1      -2.848   3.424  26.765  0.00  0.00    +0.000 C 
ENDBRANCH  28  29
BRANCH   9   8
ATOM      8  C   UNL     1      -2.179   4.098  24.986  0.00  0.00    +0.119 C 
BRANCH   8   7
ATOM      5  C   UNL     1      -0.788   4.250  24.697  0.00  0.00    +0.244 C 
ATOM      6  O   UNL     1      -0.828   5.043  24.917  0.00  0.00    -0.273 OA
ATOM      7  N   UNL     1      -1.463   3.777  24.731  0.00  0.00    -0.205 NA
BRANCH   5   4
ATOM      4  C   UNL     1      -0.072   3.928  24.442  0.00  0.00    +0.119 C 
BRANCH   4   3
ATOM      3  C   UNL     1       0.125   3.152  24.642  0.00  0.00    +0.152 C 
BRANCH   3   2
ATOM      1  C   UNL     1       0.675   1.894  24.246  0.00  0.00    +0.174 C 
ATOM      2  O   UNL     1       0.619   2.712  24.149  0.00  0.00    -0.351 OA
ENDBRANCH   3   2
ENDBRANCH   4   3
ENDBRANCH   5   4
ENDBRANCH   8   7
ENDBRANCH   9   8
BRANCH  13  14
ATOM     14  C   UNL     1      -5.000   2.472  24.449  0.00  0.00    +0.091 C 
BRANCH  14  15
ATOM     15  C   UNL     1      -5.160   1.775  24.861  0.00  0.00    +0.242 C 
ATOM     16  O   UNL     1      -5.715   1.775  25.471  0.00  0.00    -0.273 OA
ATOM     17  N   UNL     1      -4.766   1.079  24.662  0.00  0.00    -0.201 NA
BRANCH  17  18
ATOM     18  C   UNL     1      -4.926   0.383  25.074  0.00  0.00    +0.141 C 
BRANCH  18  19
ATOM     19  C   UNL     1      -4.458  -0.286  24.953  0.00  0.00    -0.001 A 
ATOM     20  C   UNL     1      -4.512  -0.706  24.245  0.00  0.00    -0.002 A 
ATOM     21  C   UNL     1      -4.044  -1.374  24.124  0.00  0.00    +0.010 A 
ATOM     22  C   UNL     1      -3.521  -1.623  24.712  0.00  0.00    +0.068 A 
ATOM     23  C   UNL     1      -3.466  -1.203  25.420  0.00  0.00    +0.010 A 
ATOM     24  C   UNL     1      -3.935  -0.534  25.540  0.00  0.00    -0.002 A 
BRANCH  22  25
ATOM     25  C   UNL     1      -3.052  -2.291  24.592  0.00  0.00    +0.100 C 
ATOM     26  N   UNL     1      -2.583  -2.960  24.473  0.00  0.00    -0.191 NA
ENDBRANCH  22  25
ENDBRANCH  18  19
ENDBRANCH  17  18
ENDBRANCH  14  15
ENDBRANCH  13  14
TORSDOF 11
ENDMDL
MODEL 5
REMARK VINA RESULT:      -8.1      2.000      5.476
REMARK  Name = 
REMARK  11 active torsions:
REMARK  status: ('A' for Active; 'I' for Inactive)
REMARK    1  A    between atoms: O_2  and  C_3
REMARK    2  A    between atoms: C_3  and  C_4
REMARK    3  A    between atoms: C_4  and  C_5
REMARK    4  A    between atoms: N_7  and  C_8
REMARK    5  A    between atoms: C_8  and  C_9
REMARK    6  A    between atoms: C_13  and  C_14
REMARK    7  A    between atoms: C_14  and  C_15
REMARK    8  A    between atoms: N_17  and  C_18
REMARK    9  A    between atoms: C_18  and  C_19
REMARK   10  A    between atoms: C_22  and  C_25
REMARK   11  A    between atoms: C_28  and  C_29
REMARK                            x       y       z     vdW  Elec       q    Type
REMARK                         _______ _______ _______ _____ _____    ______ ____
ROOT
ATOM      9  C   UNL     1      -2.314   2.609  24.321  0.00  0.00    +0.043 C 
ATOM     10  C   UNL     1      -1.833   2.730  24.980  0.00  0.00    -0.033 C 
ATOM     11  C   UNL     1      -1.116   2.327  25.046  0.00  0.00    -0.048 C 
ATOM     12  C   UNL     1      -0.634   2.448  25.705  0.00  0.00    +0.026 C 
ATOM     13  C   UNL     1      -0.881   1.803  24.453  0.00  0.00    +0.027 C 
ATOM     27  C   UNL     1      -1.363   1.683  23.794  0.00  0.00    +0.005 C 
ATOM     28  C   UNL     1      -2.079   2.086  23.728  0.00  0.00    +0.006 C 
ENDROOT
BRANCH  28  29
ATOM     29  C   UNL     1      -2.562   1.965  23.070  0.00  0.00    +0.000 C 
ATOM     30  C   UNL     1      -2.468   2.434  22.398  0.00  0.00    +0.000 C 
ATOM     31  C   UNL     1      -3.139   1.376  23.084  0.00  0.00    +0.000 C 
ENDBRANCH  28  29
BRANCH   9   8
ATOM      8  C   UNL     1      -3.032   3.012  24.255  0.00  0.00    +0.119 C 
BRANCH   8   7
ATOM      5  C   UNL     1      -4.151   3.601  24.920  0.00  0.00    +0.244 C 
ATOM      6  O   UNL     1      -4.227   4.148  24.309  0.00  0.00    -0.273 OA
ATOM      7  N   UNL     1      -3.553   3.032  24.894  0.00  0.00    -0.205 NA
BRANCH   5   4
ATOM      4  C   UNL     1      -4.673   3.621  25.559  0.00  0.00    +0.119 C 
BRANCH   4   3
ATOM      3  C   UNL     1      -5.380   3.196  25.527  0.00  0.00    +0.152 C 
BRANCH   3   2
ATOM      1  C   UNL     1      -6.198   2.286  26.266  0.00  0.00    +0.174 C 
ATOM      2  O   UNL     1      -5.769   2.991  26.225  0.00  0.00    -0.351 OA
ENDBRANCH   3   2
ENDBRANCH   4   3
ENDBRANCH   5   4
ENDBRANCH   8   7
ENDBRANCH   9   8
BRANCH  13  14
ATOM     14  C   UNL     1      -0.164   1.401  24.519  0.00  0.00    +0.091 C 
BRANCH  14  15
ATOM     15  C   UNL     1      -0.113   0.608  24.296  0.00  0.00    +0.242 C 
ATOM     16  O   UNL     1       0.290   0.399  23.607  0.00  0.00    -0.273 OA
ATOM     17  N   UNL     1      -0.465   0.025  24.761  0.00  0.00    -0.201 NA
BRANCH  17  18
ATOM     18  C   UNL     1      -0.414  -0.767  24.537  0.00  0.00    +0.141 C 
BRANCH  18  19
ATOM     19  C   UNL     1      -1.064  -1.266  24.631  0.00  0.00    -0.001 A 
ATOM     20  C   UNL     1      -1.526  -1.219  25.313  0.00  0.00    -0.002 A 
ATOM     21  C   UNL     1      -2.176  -1.718  25.407  0.00  0.00    +0.010 A 
ATOM     22  C   UNL     1      -2.365  -2.264  24.818  0.00  0.00    +0.068 A 
ATOM     23  C   UNL     1      -1.904  -2.311  24.136  0.00  0.00    +0.010 A 
ATOM     24  C   UNL     1      -1.253  -1.812  24.042  0.00  0.00    -0.002 A 
BRANCH  22  25
ATOM     25  C   UNL     1      -3.015  -2.763  24.910  0.00  0.00    +0.100 C 
ATOM     26  N   UNL     1      -3.666  -3.263  25.004  0.00  0.00    -0.191 NA
ENDBRANCH  22  25
ENDBRANCH  18  19
ENDBRANCH  17  18
ENDBRANCH  14  15
ENDBRANCH  13  14
TORSDOF 11
ENDMDL
MODEL 6
REMARK VINA RESULT:      -7.8      2.092      3.753
REMARK  Name = 
REMARK  11 active torsions:
REMARK  status: ('A' for Active; 'I' for Inactive)
REMARK    1  A    between atoms: O_2  and  C_3
REMARK    2  A    between atoms: C_3  and  C_4
REMARK    3  A    between atoms: C_4  and  C_5
REMARK    4  A    between atoms: N_7  and  C_8
REMARK    5  A    between atoms: C_8  and  C_9
REMARK    6  A    between atoms: C_13  and  C_14
REMARK    7  A    between atoms: C_14  and  C_15
REMARK    8  A    between atoms: N_17  and  C_18
REMARK    9  A    between atoms: C_18  and  C_19
REMARK   10  A    between atoms: C_22  and  C_25
REMARK   11  A    between atoms: C_28  and  C_29
REMARK                            x       y       z     vdW  Elec       q    Type
REMARK                         _______ _______ _______ _____ _____    ______ ____
ROOT
ATOM      9  C   UNL     1      -0.530   0.738  24.891  0.00  0.00    +0.043 C 
ATOM     10  C   UNL     1      -0.492   0.947  25.688  0.00  0.00    -0.033 C 
ATOM     11  C   UNL     1      -0.408   1.740  25.902  0.00  0.00    -0.048 C 
ATOM     12  C   UNL     1      -0.370   1.949  26.699  0.00  0.00    +0.026 C 
ATOM     13  C   UNL     1      -0.362   2.323  25.320  0.00  0.00    +0.027 C 
ATOM     27  C   UNL     1      -0.399   2.112  24.523  0.00  0.00    +0.005 C 
ATOM     28  C   UNL     1      -0.484   1.320  24.308  0.00  0.00    +0.006 C 
ENDROOT
BRANCH  28  29
ATOM     29  C   UNL     1      -0.521   1.110  23.511  0.00  0.00    +0.000 C 
ATOM     30  C   UNL     1       0.154   0.839  23.123  0.00  0.00    +0.000 C 
ATOM     31  C   UNL     1      -1.236   1.170  23.103  0.00  0.00    +0.000 C 
ENDBRANCH  28  29
BRANCH   9   8
ATOM      8  C   UNL     1      -0.614  -0.055  24.676  0.00  0.00    +0.119 C 
BRANCH   8   7
ATOM      5  C   UNL     1      -1.216  -1.327  24.925  0.00  0.00    +0.244 C 
ATOM      6  O   UNL     1      -0.590  -1.698  24.538  0.00  0.00    -0.273 OA
ATOM      7  N   UNL     1      -1.228  -0.504  24.994  0.00  0.00    -0.205 NA
BRANCH   5   4
ATOM      4  C   UNL     1      -1.830  -1.776  25.243  0.00  0.00    +0.119 C 
BRANCH   4   3
ATOM      3  C   UNL     1      -2.355  -2.170  24.741  0.00  0.00    +0.152 C 
BRANCH   3   2
ATOM      1  C   UNL     1      -3.596  -2.848  24.535  0.00  0.00    +0.174 C 
ATOM      2  O   UNL     1      -3.064  -2.468  25.039  0.00  0.00    -0.351 OA
ENDBRANCH   3   2
ENDBRANCH   4   3
ENDBRANCH   5   4
ENDBRANCH   8   7
ENDBRANCH   9   8
BRANCH  13  14
ATOM     14  C   UNL     1      -0.278   3.114  25.534  0.00  0.00    +0.091 C 
BRANCH  14  15
ATOM     15  C   UNL     1      -0.827   3.673  25.277  0.00  0.00    +0.242 C 
ATOM     16  O   UNL     1      -0.602   4.252  24.734  0.00  0.00    -0.273 OA
ATOM     17  N   UNL     1      -1.601   3.652  25.560  0.00  0.00    -0.201 NA
BRANCH  17  18
ATOM     18  C   UNL     1      -2.150   4.211  25.303  0.00  0.00    +0.141 C 
BRANCH  18  19
ATOM     19  C   UNL     1      -2.958   4.062  25.379  0.00  0.00    -0.001 A 
ATOM     20  C   UNL     1      -3.411   3.885  24.713  0.00  0.00    -0.002 A 
ATOM     21  C   UNL     1      -4.218   3.737  24.790  0.00  0.00    +0.010 A 
ATOM     22  C   UNL     1      -4.574   3.765  25.534  0.00  0.00    +0.068 A 
ATOM     23  C   UNL     1      -4.122   3.941  26.201  0.00  0.00    +0.010 A 
ATOM     24  C   UNL     1      -3.313   4.090  26.123  0.00  0.00    -0.002 A 
BRANCH  22  25
ATOM     25  C   UNL     1      -5.381   3.616  25.611  0.00  0.00    +0.100 C 
ATOM     26  N   UNL     1      -6.190   3.468  25.690  0.00  0.00    -0.191 NA
ENDBRANCH  22  25
ENDBRANCH  18  19
ENDBRANCH  17  18
ENDBRANCH  14  15
ENDBRANCH  13  14
TORSDOF 11
ENDMDL
MODEL 7
REMARK VINA RESULT:      -7.8      1.649      6.632
REMARK  Name = 
REMARK  11 active torsions:
REMARK  status: ('A' for Active; 'I' for Inactive)
REMARK    1  A    between atoms: O_2  and  C_3
REMARK    2  A    between atoms: C_3  and  C_4
REMARK    3  A    between atoms: C_4  and  C_5
REMARK    4  A    between atoms: N_7  and  C_8
REMARK    5  A    between atoms: C_8  and  C_9
REMARK    6  A    between atoms: C_13  and  C_14
REMARK    7  A    between atoms: C_14  and  C_15
REMARK    8  A    between atoms: N_17  and  C_18
REMARK    9  A    between atoms: C_18  and  C_19
REMARK   10  A    between atoms: C_22  and  C_25
REMARK   11  A    between atoms: C_28  and  C_29
REMARK                            x       y       z     vdW  Elec       q    Type
REMARK                         _______ _______ _______ _____ _____    ______ ____
ROOT
ATOM      9  C   UNL     1      -1.550   1.692  24.661  0.00  0.00    +0.043 C 
ATOM     10  C   UNL     1      -1.829   0.932  24.502  0.00  0.00    -0.033 C 
ATOM     11  C   UNL     1      -1.303   0.340  24.268  0.00  0.00    -0.048 C 
ATOM     12  C   UNL     1      -1.582  -0.419  24.109  0.00  0.00    +0.026 C 
ATOM     13  C   UNL     1      -0.499   0.509  24.193  0.00  0.00    +0.027 C 
ATOM     27  C   UNL     1      -0.221   1.269  24.352  0.00  0.00    +0.005 C 
ATOM     28  C   UNL     1      -0.746   1.860  24.586  0.00  0.00    +0.006 C 
ENDROOT
BRANCH  28  29
ATOM     29  C   UNL     1      -0.467   2.621  24.745  0.00  0.00    +0.000 C 
ATOM     30  C   UNL     1      -0.450   3.188  24.147  0.00  0.00    +0.000 C 
ATOM     31  C   UNL     1      -0.207   2.814  25.504  0.00  0.00    +0.000 C 
ENDBRANCH  28  29
BRANCH   9   8
ATOM      8  C   UNL     1      -2.076   2.284  24.895  0.00  0.00    +0.119 C 
BRANCH   8   7
ATOM      5  C   UNL     1      -3.422   2.738  25.052  0.00  0.00    +0.244 C 
ATOM      6  O   UNL     1      -3.164   3.320  25.575  0.00  0.00    -0.273 OA
ATOM      7  N   UNL     1      -2.877   2.219  24.711  0.00  0.00    -0.205 NA
BRANCH   5   4
ATOM      4  C   UNL     1      -4.223   2.673  24.868  0.00  0.00    +0.119 C 
BRANCH   4   3
ATOM      3  C   UNL     1      -4.787   2.695  25.470  0.00  0.00    +0.152 C 
BRANCH   3   2
ATOM      1  C   UNL     1      -6.089   2.231  25.833  0.00  0.00    +0.174 C 
ATOM      2  O   UNL     1      -5.586   2.597  25.290  0.00  0.00    -0.351 OA
ENDBRANCH   3   2
ENDBRANCH   4   3
ENDBRANCH   5   4
ENDBRANCH   8   7
ENDBRANCH   9   8
BRANCH  13  14
ATOM     14  C   UNL     1       0.026  -0.082  23.959  0.00  0.00    +0.091 C 
BRANCH  14  15
ATOM     15  C   UNL     1       0.526   0.040  23.314  0.00  0.00    +0.242 C 
ATOM     16  O   UNL     1       0.207   0.151  22.561  0.00  0.00    -0.273 OA
ATOM     17  N   UNL     1       1.343   0.052  23.422  0.00  0.00    -0.201 NA
BRANCH  17  18
ATOM     18  C   UNL     1       1.842   0.175  22.777  0.00  0.00    +0.141 C 
BRANCH  18  19
ATOM     19  C   UNL     1       2.661   0.179  22.883  0.00  0.00    -0.001 A 
ATOM     20  C   UNL     1       3.087   0.878  22.779  0.00  0.00    -0.002 A 
ATOM     21  C   UNL     1       3.905   0.882  22.885  0.00  0.00    +0.010 A 
ATOM     22  C   UNL     1       4.297   0.187  23.096  0.00  0.00    +0.068 A 
ATOM     23  C   UNL     1       3.871  -0.512  23.200  0.00  0.00    +0.010 A 
ATOM     24  C   UNL     1       3.053  -0.515  23.094  0.00  0.00    -0.002 A 
BRANCH  22  25
ATOM     25  C   UNL     1       5.115   0.191  23.202  0.00  0.00    +0.100 C 
ATOM     26  N   UNL     1       5.934   0.194  23.308  0.00  0.00    -0.191 NA
ENDBRANCH  22  25
ENDBRANCH  18  19
ENDBRANCH  17  18
ENDBRANCH  14  15
ENDBRANCH  13  14
TORSDOF 11
ENDMDL
MODEL 8
REMARK VINA RESULT:      -7.7      1.971      3.274
REMARK  Name = 
REMARK  11 active torsions:
REMARK  status: ('A' for Active; 'I' for Inactive)
REMARK    1  A    between atoms: O_2  and  C_3
REMARK    2  A    between atoms: C_3  and  C_4
REMARK    3  A    between atoms: C_4  and  C_5
REMARK    4  A    between atoms: N_7  and  C_8
REMARK    5  A    between atoms: C_8  and  C_9
REMARK    6  A    between atoms: C_13  and  C_14
REMARK    7  A    between atoms: C_14  and  C_15
REMARK    8  A    between atoms: N_17  and  C_18
REMARK    9  A    between atoms: C_18  and  C_19
REMARK   10  A    between atoms: C_22  and  C_25
REMARK   11  A    between atoms: C_28  and  C_29
REMARK                            x       y       z     vdW  Elec       q    Type
REMARK                         _______ _______ _______ _____ _____    ______ ____
ROOT
ATOM      9  C   UNL     1      -2.865  -0.701  24.603  0.00  0.00    +0.043 C 
ATOM     10  C   UNL     1      -2.960  -0.194  23.960  0.00  0.00    -0.033 C 
ATOM     11  C   UNL     1      -3.609   0.316  23.930  0.00  0.00    -0.048 C 
ATOM     12  C   UNL     1      -3.705   0.823  23.286  0.00  0.00    +0.026 C 
ATOM     13  C   UNL     1      -4.162   0.317  24.542  0.00  0.00    +0.027 C 
ATOM     27  C   UNL     1      -4.065  -0.191  25.185  0.00  0.00    +0.005 C 
ATOM     28  C   UNL     1      -3.417  -0.700  25.216  0.00  0.00    +0.006 C 
ENDROOT
BRANCH  28  29
ATOM     29  C   UNL     1      -3.320  -1.208  25.859  0.00  0.00    +0.000 C 
ATOM     30  C   UNL     1      -3.595  -1.984  25.817  0.00  0.00    +0.000 C 
ATOM     31  C   UNL     1      -2.948  -0.939  26.544  0.00  0.00    +0.000 C 
ENDBRANCH  28  29
BRANCH   9   8
ATOM      8  C   UNL     1      -2.215  -1.210  24.633  0.00  0.00    +0.119 C 
BRANCH   8   7
ATOM      5  C   UNL     1      -0.841  -1.391  24.286  0.00  0.00    +0.244 C 
ATOM      6  O   UNL     1      -0.996  -2.175  24.082  0.00  0.00    -0.273 OA
ATOM      7  N   UNL     1      -1.451  -0.908  24.562  0.00  0.00    -0.205 NA
BRANCH   5   4
ATOM      4  C   UNL     1      -0.077  -1.089  24.214  0.00  0.00    +0.119 C 
BRANCH   4   3
ATOM      3  C   UNL     1       0.155  -0.717  23.515  0.00  0.00    +0.152 C 
BRANCH   3   2
ATOM      1  C   UNL     1       1.220  -0.132  22.762  0.00  0.00    +0.174 C 
ATOM      2  O   UNL     1       0.862  -0.293  23.489  0.00  0.00    -0.351 OA
ENDBRANCH   3   2
ENDBRANCH   4   3
ENDBRANCH   5   4
ENDBRANCH   8   7
ENDBRANCH   9   8
BRANCH  13  14
ATOM     14  C   UNL     1      -4.810   0.826  24.512  0.00  0.00    +0.091 C 
BRANCH  14  15
ATOM     15  C   UNL     1      -4.835   1.492  24.998  0.00  0.00    +0.242 C 
ATOM     16  O   UNL     1      -5.333   1.504  25.655  0.00  0.00    -0.273 OA
ATOM     17  N   UNL     1      -4.363   2.146  24.827  0.00  0.00    -0.201 NA
BRANCH  17  18
ATOM     18  C   UNL     1      -4.389   2.812  25.312  0.00  0.00    +0.141 C 
BRANCH  18  19
ATOM     19  C   UNL     1      -3.774   3.361  25.294  0.00  0.00    -0.001 A 
ATOM     20  C   UNL     1      -3.273   3.444  25.944  0.00  0.00    -0.002 A 
ATOM     21  C   UNL     1      -2.658   3.992  25.926  0.00  0.00    +0.010 A 
ATOM     22  C   UNL     1      -2.543   4.460  25.256  0.00  0.00    +0.068 A 
ATOM     23  C   UNL     1      -3.043   4.378  24.604  0.00  0.00    +0.010 A 
ATOM     24  C   UNL     1      -3.659   3.828  24.624  0.00  0.00    -0.002 A 
BRANCH  22  25
ATOM     25  C   UNL     1      -1.928   5.009  25.236  0.00  0.00    +0.100 C 
ATOM     26  N   UNL     1      -1.313   5.560  25.216  0.00  0.00    -0.191 NA
ENDBRANCH  22  25
ENDBRANCH  18  19
ENDBRANCH  17  18
ENDBRANCH  14  15
ENDBRANCH  13  14
TORSDOF 11
ENDMDL
MODEL 9
REMARK VINA RESULT:      -7.7      1.356      6.870
REMARK  Name = 
REMARK  11 active torsions:
REMARK  status: ('A' for Active; 'I' for Inactive)
REMARK    1  A    between atoms: O_2  and  C_3
REMARK    2  A    between atoms: C_3  and  C_4
REMARK    3  A    between atoms: C_4  and  C_5
REMARK    4  A    between atoms: N_7  and  C_8
REMARK    5  A    between atoms: C_8  and  C_9
REMARK    6  A    between atoms: C_13  and  C_14
REMARK    7  A    between atoms: C_14  and  C_15
REMARK    8  A    between atoms: N_17  and  C_18
REMARK    9  A    between atoms: C_18  and  C_19
REMARK   10  A    between atoms: C_22  and  C_25
REMARK   11  A    between atoms: C_28  and  C_29
REMARK                            x       y       z     vdW  Elec       q    Type
REMARK                         _______ _______ _______ _____ _____    ______ ____
ROOT
ATOM      9  C   UNL     1      -1.816   0.157  24.508  0.00  0.00    +0.043 C 
ATOM     10  C   UNL     1      -1.785   0.906  24.164  0.00  0.00    -0.033 C 
ATOM     11  C   UNL     1      -1.064   1.206  23.894  0.00  0.00    -0.048 C 
ATOM     12  C   UNL     1      -1.033   1.955  23.549  0.00  0.00    +0.026 C 
ATOM     13  C   UNL     1      -0.376   0.757  23.969  0.00  0.00    +0.027 C 
ATOM     27  C   UNL     1      -0.409   0.008  24.314  0.00  0.00    +0.005 C 
ATOM     28  C   UNL     1      -1.128  -0.292  24.584  0.00  0.00    +0.006 C 
ENDROOT
BRANCH  28  29
ATOM     29  C   UNL     1      -1.161  -1.041  24.929  0.00  0.00    +0.000 C 
ATOM     30  C   UNL     1      -1.368  -1.696  24.474  0.00  0.00    +0.000 C 
ATOM     31  C   UNL     1      -0.986  -1.133  25.730  0.00  0.00    +0.000 C 
ENDBRANCH  28  29
BRANCH   9   8
ATOM      8  C   UNL     1      -2.537  -0.143  24.778  0.00  0.00    +0.119 C 
BRANCH   8   7
ATOM      5  C   UNL     1      -3.936   0.074  24.971  0.00  0.00    +0.244 C 
ATOM      6  O   UNL     1      -3.920  -0.416  25.634  0.00  0.00    -0.273 OA
ATOM      7  N   UNL     1      -3.244   0.211  24.543  0.00  0.00    -0.205 NA
BRANCH   5   4
ATOM      4  C   UNL     1      -4.643   0.427  24.736  0.00  0.00    +0.119 C 
BRANCH   4   3
ATOM      3  C   UNL     1      -5.001   0.994  25.218  0.00  0.00    +0.152 C 
BRANCH   3   2
ATOM      1  C   UNL     1      -5.831   2.154  25.303  0.00  0.00    +0.174 C 
ATOM      2  O   UNL     1      -5.623   1.450  24.926  0.00  0.00    -0.351 OA
ENDBRANCH   3   2
ENDBRANCH   4   3
ENDBRANCH   5   4
ENDBRANCH   8   7
ENDBRANCH   9   8
BRANCH  13  14
ATOM     14  C   UNL     1       0.343   1.056  23.700  0.00  0.00    +0.091 C 
BRANCH  14  15
ATOM     15  C   UNL     1       0.823   0.600  23.208  0.00  0.00    +0.242 C 
ATOM     16  O   UNL     1       0.481   0.114  22.635  0.00  0.00    -0.273 OA
ATOM     17  N   UNL     1       1.642   0.628  23.288  0.00  0.00    -0.201 NA
BRANCH  17  18
ATOM     18  C   UNL     1       2.121   0.172  22.795  0.00  0.00    +0.141 C 
BRANCH  18  19
ATOM     19  C   UNL     1       2.937   0.149  22.918  0.00  0.00    -0.001 A 
ATOM     20  C   UNL     1       3.404   0.800  22.719  0.00  0.00    -0.002 A 
ATOM     21  C   UNL     1       4.219   0.776  22.842  0.00  0.00    +0.010 A 
ATOM     22  C   UNL     1       4.568   0.102  23.163  0.00  0.00    +0.068 A 
ATOM     23  C   UNL     1       4.102  -0.550  23.362  0.00  0.00    +0.010 A 
ATOM     24  C   UNL     1       3.286  -0.526  23.239  0.00  0.00    -0.002 A 
BRANCH  22  25
ATOM     25  C   UNL     1       5.383   0.077  23.286  0.00  0.00    +0.100 C 
ATOM     26  N   UNL     1       6.199   0.053  23.409  0.00  0.00    -0.191 NA
ENDBRANCH  22  25
ENDBRANCH  18  19
ENDBRANCH  17  18
ENDBRANCH  14  15
ENDBRANCH  13  14
TORSDOF 11
ENDMDL
MODEL 10
REMARK VINA RESULT:      -7.6      2.529      4.097
REMARK  Name = 
REMARK  11 active torsions:
REMARK  status: ('A' for Active; 'I' for Inactive)
REMARK    1  A    between atoms: O_2  and  C_3
REMARK    2  A    between atoms: C_3  and  C_4
REMARK    3  A    between atoms: C_4  and  C_5
REMARK    4  A    between atoms: N_7  and  C_8
REMARK    5  A    between atoms: C_8  and  C_9
REMARK    6  A    between atoms: C_13  and  C_14
REMARK    7  A    between atoms: C_14  and  C_15
REMARK    8  A    between atoms: N_17  and  C_18
REMARK    9  A    between atoms: C_18  and  C_19
REMARK   10  A    between atoms: C_22  and  C_25
REMARK   11  A    between atoms: C_28  and  C_29
REMARK                            x       y       z     vdW  Elec       q    Type
REMARK                         _______ _______ _______ _____ _____    ______ ____
ROOT
ATOM      9  C   UNL     1      -0.875   2.785  25.707  0.00  0.00    +0.043 C 
ATOM     10  C   UNL     1      -1.487   3.182  26.092  0.00  0.00    -0.033 C 
ATOM     11  C   UNL     1      -2.208   3.299  25.707  0.00  0.00    -0.048 C 
ATOM     12  C   UNL     1      -2.820   3.696  26.092  0.00  0.00    +0.026 C 
ATOM     13  C   UNL     1      -2.316   3.019  24.939  0.00  0.00    +0.027 C 
ATOM     27  C   UNL     1      -1.703   2.622  24.555  0.00  0.00    +0.005 C 
ATOM     28  C   UNL     1      -0.983   2.505  24.938  0.00  0.00    +0.006 C 
ENDROOT
BRANCH  28  29
ATOM     29  C   UNL     1      -0.370   2.109  24.554  0.00  0.00    +0.000 C 
ATOM     30  C   UNL     1       0.171   2.529  24.096  0.00  0.00    +0.000 C 
ATOM     31  C   UNL     1      -0.298   1.290  24.629  0.00  0.00    +0.000 C 
ENDBRANCH  28  29
BRANCH   9   8
ATOM      8  C   UNL     1      -0.154   2.668  26.091  0.00  0.00    +0.119 C 
BRANCH   8   7
ATOM      5  C   UNL     1       0.559   2.573  27.326  0.00  0.00    +0.244 C 
ATOM      6  O   UNL     1       1.243   2.838  26.952  0.00  0.00    -0.273 OA
ATOM      7  N   UNL     1      -0.141   2.488  26.896  0.00  0.00    -0.205 NA
BRANCH   5   4
ATOM      4  C   UNL     1       0.572   2.393  28.131  0.00  0.00    +0.119 C 
BRANCH   4   3
ATOM      3  C   UNL     1       1.266   2.496  28.566  0.00  0.00    +0.152 C 
BRANCH   3   2
ATOM      1  C   UNL     1       1.970   2.356  29.802  0.00  0.00    +0.174 C 
ATOM      2  O   UNL     1       1.259   2.398  29.385  0.00  0.00    -0.351 OA
ENDBRANCH   3   2
ENDBRANCH   4   3
ENDBRANCH   5   4
ENDBRANCH   8   7
ENDBRANCH   9   8
BRANCH  13  14
ATOM     14  C   UNL     1      -3.036   3.136  24.555  0.00  0.00    +0.091 C 
BRANCH  14  15
ATOM     15  C   UNL     1      -3.366   2.532  24.100  0.00  0.00    +0.242 C 
ATOM     16  O   UNL     1      -3.386   2.598  23.278  0.00  0.00    -0.273 OA
ATOM     17  N   UNL     1      -3.675   1.861  24.467  0.00  0.00    -0.201 NA
BRANCH  17  18
ATOM     18  C   UNL     1      -4.004   1.257  24.013  0.00  0.00    +0.141 C 
BRANCH  18  19
ATOM     19  C   UNL     1      -3.926   0.471  24.252  0.00  0.00    -0.001 A 
ATOM     20  C   UNL     1      -4.158   0.245  25.011  0.00  0.00    -0.002 A 
ATOM     21  C   UNL     1      -4.080  -0.541  25.249  0.00  0.00    +0.010 A 
ATOM     22  C   UNL     1      -3.772  -1.101  24.729  0.00  0.00    +0.068 A 
ATOM     23  C   UNL     1      -3.540  -0.876  23.969  0.00  0.00    +0.010 A 
ATOM     24  C   UNL     1      -3.618  -0.090  23.731  0.00  0.00    -0.002 A 
BRANCH  22  25
ATOM     25  C   UNL     1      -3.694  -1.887  24.966  0.00  0.00    +0.100 C 
ATOM     26  N   UNL     1      -3.617  -2.674  25.205  0.00  0.00    -0.191 NA
ENDBRANCH  22  25
ENDBRANCH  18  19
ENDBRANCH  17  18
ENDBRANCH  14  15
ENDBRANCH  13  14
TORSDOF 11
ENDMDL
