MODEL 1
REMARK VINA RESULT:     -12.8      0.000      0.000
REMARK  Name = 
REMARK  6 active torsions:
REMARK  status: ('A' for Active; 'I' for Inactive)
REMARK    1  A    between atoms: C_2  and  C_3
REMARK    2  A    between atoms: C_2  and  C_25
REMARK    3  A    between atoms: C_10  and  N_11
REMARK    4  A    between atoms: C_12  and  C_14
REMARK    5  A    between atoms: N_27  and  C_28
REMARK    6  A    between atoms: C_28  and  C_29
REMARK                            x       y       z     vdW  Elec       q    Type
REMARK                         _______ _______ _______ _____ _____    ______ ____
ROOT
ATOM      3  C   UNL     1      -4.432   2.926  24.643  0.00  0.00    +0.039 C 
ATOM      4  C   UNL     1      -5.082   2.909  25.152  0.00  0.00    +0.003 C 
ATOM      5  C   UNL     1      -5.387   2.186  25.406  0.00  0.00    +0.000 C 
ATOM      6  C   UNL     1      -5.044   1.481  25.152  0.00  0.00    +0.002 C 
ATOM      7  C   UNL     1      -5.692   1.464  25.660  0.00  0.00    +0.000 C 
ATOM      8  C   UNL     1      -5.349   0.758  25.406  0.00  0.00    +0.002 C 
ATOM      9  C   UNL     1      -5.005   0.053  25.153  0.00  0.00    +0.022 C 
ATOM     10  C   UNL     1      -4.355   0.070  24.644  0.00  0.00    +0.095 C 
ATOM     20  C   UNL     1      -4.050   0.793  24.390  0.00  0.00    +0.022 C 
ATOM     21  C   UNL     1      -3.400   0.810  23.881  0.00  0.00    +0.002 C 
ATOM     22  C   UNL     1      -4.393   1.499  24.643  0.00  0.00    +0.032 C 
ATOM     23  C   UNL     1      -4.088   2.221  24.389  0.00  0.00    +0.152 C 
ATOM     24  O   UNL     1      -3.439   2.238  23.881  0.00  0.00    -0.223 OA
ENDROOT
BRANCH  10  11
ATOM     11  N   UNL     1      -4.011  -0.636  24.390  0.00  0.00    -0.207 NA
ATOM     12  C   UNL     1      -3.758  -1.194  24.942  0.00  0.00    +0.241 C 
ATOM     13  O   UNL     1      -3.849  -1.046  25.750  0.00  0.00    -0.273 OA
BRANCH  12  14
ATOM     14  C   UNL     1      -3.415  -1.900  24.689  0.00  0.00    +0.078 C 
ATOM     15  C   UNL     1      -3.877  -2.477  24.325  0.00  0.00    +0.009 C 
ATOM     16  C   UNL     1      -3.534  -3.183  24.071  0.00  0.00    +0.000 C 
ATOM     17  C   UNL     1      -2.726  -3.311  24.182  0.00  0.00    +0.000 C 
ATOM     18  C   UNL     1      -2.262  -2.733  24.546  0.00  0.00    +0.000 C 
ATOM     19  C   UNL     1      -2.607  -2.028  24.799  0.00  0.00    +0.009 C 
ENDBRANCH  12  14
ENDBRANCH  10  11
BRANCH   3   2
ATOM      1  C   UNL     1      -4.289   3.923  23.627  0.00  0.00    +0.010 C 
ATOM      2  C   UNL     1      -4.127   3.650  24.389  0.00  0.00    +0.081 C 
BRANCH   2  25
ATOM     25  C   UNL     1      -3.658   4.100  24.897  0.00  0.00    +0.241 C 
ATOM     26  O   UNL     1      -3.999   4.476  25.548  0.00  0.00    -0.273 OA
ATOM     27  N   UNL     1      -2.849   4.176  24.754  0.00  0.00    -0.197 NA
BRANCH  27  28
ATOM     28  C   UNL     1      -2.381   4.626  25.261  0.00  0.00    +0.179 C 
BRANCH  28  29
ATOM     29  C   UNL     1      -1.565   4.665  25.145  0.00  0.00    +0.145 A 
ATOM     30  C   UNL     1      -1.141   5.327  24.894  0.00  0.00    +0.038 A 
ATOM     31  C   UNL     1      -0.344   5.118  24.854  0.00  0.00    +0.043 A 
ATOM     32  C   UNL     1      -0.275   4.328  25.081  0.00  0.00    +0.179 A 
ATOM     33  O   UNL     1      -1.030   4.047  25.261  0.00  0.00    -0.453 OA
ENDBRANCH  28  29
ENDBRANCH  27  28
ENDBRANCH   2  25
ENDBRANCH   3   2
TORSDOF 6
ENDMDL
MODEL 2
REMARK VINA RESULT:     -11.8      1.095      5.235
REMARK  Name = 
REMARK  6 active torsions:
REMARK  status: ('A' for Active; 'I' for Inactive)
REMARK    1  A    between atoms: C_2  and  C_3
REMARK    2  A    between atoms: C_2  and  C_25
REMARK    3  A    between atoms: C_10  and  N_11
REMARK    4  A    between atoms: C_12  and  C_14
REMARK    5  A    between atoms: N_27  and  C_28
REMARK    6  A    between atoms: C_28  and  C_29
REMARK                            x       y       z     vdW  Elec       q    Type
REMARK                         _______ _______ _______ _____ _____    ______ ____
ROOT
ATOM      3  C   UNL     1      -4.162   0.100  24.416  0.00  0.00    +0.039 C 
ATOM      4  C   UNL     1      -4.856   0.251  24.836  0.00  0.00    +0.003 C 
ATOM      5  C   UNL     1      -5.005   1.007  25.128  0.00  0.00    +0.000 C 
ATOM      6  C   UNL     1      -4.461   1.613  25.001  0.00  0.00    +0.002 C 
ATOM      7  C   UNL     1      -5.154   1.763  25.420  0.00  0.00    +0.000 C 
ATOM      8  C   UNL     1      -4.610   2.370  25.293  0.00  0.00    +0.002 C 
ATOM      9  C   UNL     1      -4.066   2.976  25.166  0.00  0.00    +0.022 C 
ATOM     10  C   UNL     1      -3.371   2.825  24.745  0.00  0.00    +0.095 C 
ATOM     20  C   UNL     1      -3.222   2.069  24.453  0.00  0.00    +0.022 C 
ATOM     21  C   UNL     1      -2.528   1.919  24.034  0.00  0.00    +0.002 C 
ATOM     22  C   UNL     1      -3.766   1.462  24.581  0.00  0.00    +0.032 C 
ATOM     23  C   UNL     1      -3.617   0.706  24.288  0.00  0.00    +0.152 C 
ATOM     24  O   UNL     1      -2.923   0.555  23.869  0.00  0.00    -0.223 OA
ENDROOT
BRANCH  10  11
ATOM     11  N   UNL     1      -2.826   3.432  24.618  0.00  0.00    -0.207 NA
ATOM     12  C   UNL     1      -2.485   3.822  25.260  0.00  0.00    +0.241 C 
ATOM     13  O   UNL     1      -2.689   3.605  26.030  0.00  0.00    -0.273 OA
BRANCH  12  14
ATOM     14  C   UNL     1      -1.941   4.429  25.132  0.00  0.00    +0.078 C 
ATOM     15  C   UNL     1      -2.189   5.215  25.144  0.00  0.00    +0.009 C 
ATOM     16  C   UNL     1      -1.644   5.822  25.017  0.00  0.00    +0.000 C 
ATOM     17  C   UNL     1      -0.851   5.642  24.878  0.00  0.00    +0.000 C 
ATOM     18  C   UNL     1      -0.603   4.854  24.867  0.00  0.00    +0.000 C 
ATOM     19  C   UNL     1      -1.148   4.249  24.994  0.00  0.00    +0.009 C 
ENDBRANCH  12  14
ENDBRANCH  10  11
BRANCH   3   2
ATOM      1  C   UNL     1      -4.227  -0.852  23.351  0.00  0.00    +0.010 C 
ATOM      2  C   UNL     1      -4.013  -0.657  24.124  0.00  0.00    +0.081 C 
BRANCH   2  25
ATOM     25  C   UNL     1      -3.650  -1.221  24.605  0.00  0.00    +0.241 C 
ATOM     26  O   UNL     1      -4.080  -1.591  25.204  0.00  0.00    -0.273 OA
ATOM     27  N   UNL     1      -2.856  -1.414  24.488  0.00  0.00    -0.197 NA
BRANCH  27  28
ATOM     28  C   UNL     1      -2.493  -1.976  24.968  0.00  0.00    +0.179 C 
BRANCH  28  29
ATOM     29  C   UNL     1      -1.671  -1.993  25.037  0.00  0.00    +0.145 A 
ATOM     30  C   UNL     1      -1.157  -2.463  24.594  0.00  0.00    +0.038 A 
ATOM     31  C   UNL     1      -0.387  -2.303  24.845  0.00  0.00    +0.043 A 
ATOM     32  C   UNL     1      -0.426  -1.734  25.442  0.00  0.00    +0.179 A 
ATOM     33  O   UNL     1      -1.219  -1.542  25.560  0.00  0.00    -0.453 OA
ENDBRANCH  28  29
ENDBRANCH  27  28
ENDBRANCH   2  25
ENDBRANCH   3   2
TORSDOF 6
ENDMDL
MODEL 3
REMARK VINA RESULT:     -11.1      3.528      5.326
REMARK  Name = 
REMARK  6 active torsions:
REMARK  status: ('A' for Active; 'I' for Inactive)
REMARK    1  A    between atoms: C_2  and  C_3
REMARK    2  A    between atoms: C_2  and  C_25
REMARK    3  A    between atoms: C_10  and  N_11
REMARK    4  A    between atoms: C_12  and  C_14
REMARK    5  A    between atoms: N_27  and  C_28
REMARK    6  A    between atoms: C_28  and  C_29
REMARK                            x       y       z     vdW  Elec       q    Type
REMARK                         _______ _______ _______ _____ _____    ______ ____
ROOT
ATOM      3  C   UNL     1      -0.027   0.650  23.980  0.00  0.00    +0.039 C 
ATOM      4  C   UNL     1       0.373   1.369  24.058  0.00  0.00    +0.003 C 
ATOM      5  C   UNL     1      -0.029   2.038  24.323  0.00  0.00    +0.000 C 
ATOM      6  C   UNL     1      -0.830   1.990  24.510  0.00  0.00    +0.002 C 
ATOM      7  C   UNL     1      -0.431   2.707  24.588  0.00  0.00    +0.000 C 
ATOM      8  C   UNL     1      -1.233   2.659  24.776  0.00  0.00    +0.002 C 
ATOM      9  C   UNL     1      -2.035   2.611  24.964  0.00  0.00    +0.022 C 
ATOM     10  C   UNL     1      -2.435   1.893  24.886  0.00  0.00    +0.095 C 
ATOM     20  C   UNL     1      -2.032   1.224  24.621  0.00  0.00    +0.022 C 
ATOM     21  C   UNL     1      -2.432   0.506  24.543  0.00  0.00    +0.002 C 
ATOM     22  C   UNL     1      -1.230   1.271  24.433  0.00  0.00    +0.032 C 
ATOM     23  C   UNL     1      -0.828   0.602  24.167  0.00  0.00    +0.152 C 
ATOM     24  O   UNL     1      -1.227  -0.115  24.090  0.00  0.00    -0.223 OA
ENDROOT
BRANCH  10  11
ATOM     11  N   UNL     1      -3.237   1.845  25.074  0.00  0.00    -0.207 NA
ATOM     12  C   UNL     1      -3.743   2.467  24.883  0.00  0.00    +0.241 C 
ATOM     13  O   UNL     1      -3.447   3.139  24.504  0.00  0.00    -0.273 OA
BRANCH  12  14
ATOM     14  C   UNL     1      -4.545   2.420  25.071  0.00  0.00    +0.078 C 
ATOM     15  C   UNL     1      -5.040   1.918  24.644  0.00  0.00    +0.009 C 
ATOM     16  C   UNL     1      -5.842   1.871  24.832  0.00  0.00    +0.000 C 
ATOM     17  C   UNL     1      -6.149   2.326  25.448  0.00  0.00    +0.000 C 
ATOM     18  C   UNL     1      -5.653   2.828  25.876  0.00  0.00    +0.000 C 
ATOM     19  C   UNL     1      -4.851   2.875  25.687  0.00  0.00    +0.009 C 
ENDBRANCH  12  14
ENDBRANCH  10  11
BRANCH   3   2
ATOM      1  C   UNL     1       0.259  -0.747  24.085  0.00  0.00    +0.010 C 
ATOM      2  C   UNL     1       0.377  -0.019  23.714  0.00  0.00    +0.081 C 
BRANCH   2  25
ATOM     25  C   UNL     1       0.898   0.040  23.078  0.00  0.00    +0.241 C 
ATOM     26  O   UNL     1       0.605   0.076  22.306  0.00  0.00    -0.273 OA
ATOM     27  N   UNL     1       1.712   0.063  23.211  0.00  0.00    -0.197 NA
BRANCH  27  28
ATOM     28  C   UNL     1       2.233   0.121  22.575  0.00  0.00    +0.179 C 
BRANCH  28  29
ATOM     29  C   UNL     1       3.041   0.220  22.710  0.00  0.00    +0.145 A 
ATOM     30  C   UNL     1       3.477   0.906  22.567  0.00  0.00    +0.038 A 
ATOM     31  C   UNL     1       4.260   0.758  22.781  0.00  0.00    +0.043 A 
ATOM     32  C   UNL     1       4.308  -0.019  23.057  0.00  0.00    +0.179 A 
ATOM     33  O   UNL     1       3.554  -0.351  23.013  0.00  0.00    -0.453 OA
ENDBRANCH  28  29
ENDBRANCH  27  28
ENDBRANCH   2  25
ENDBRANCH   3   2
TORSDOF 6
ENDMDL
MODEL 4
REMARK VINA RESULT:     -10.9      2.264      6.391
REMARK  Name = 
REMARK  6 active torsions:
REMARK  status: ('A' for Active; 'I' for Inactive)
REMARK    1  A    between atoms: C_2  and  C_3
REMARK    2  A    between atoms: C_2  and  C_25
REMARK    3  A    between atoms: C_10  and  N_11
REMARK    4  A    between atoms: C_12  and  C_14
REMARK    5  A    between atoms: N_27  and  C_28
REMARK    6  A    between atoms: C_28  and  C_29
REMARK                            x       y       z     vdW  Elec       q    Type
REMARK                         _______ _______ _______ _____ _____    ______ ____
ROOT
ATOM      3  C   UNL     1      -0.545  -0.892  24.810  0.00  0.00    +0.039 C 
ATOM      4  C   UNL     1      -0.064  -0.945  24.141  0.00  0.00    +0.003 C 
ATOM      5  C   UNL     1       0.199  -0.258  23.767  0.00  0.00    +0.000 C 
ATOM      6  C   UNL     1      -0.019   0.480  24.061  0.00  0.00    +0.002 C 
ATOM      7  C   UNL     1       0.461   0.428  23.393  0.00  0.00    +0.000 C 
ATOM      8  C   UNL     1       0.244   1.168  23.687  0.00  0.00    +0.002 C 
ATOM      9  C   UNL     1       0.026   1.907  23.981  0.00  0.00    +0.022 C 
ATOM     10  C   UNL     1      -0.455   1.959  24.651  0.00  0.00    +0.095 C 
ATOM     20  C   UNL     1      -0.718   1.273  25.024  0.00  0.00    +0.022 C 
ATOM     21  C   UNL     1      -1.198   1.325  25.693  0.00  0.00    +0.002 C 
ATOM     22  C   UNL     1      -0.500   0.533  24.730  0.00  0.00    +0.032 C 
ATOM     23  C   UNL     1      -0.763  -0.153  25.104  0.00  0.00    +0.152 C 
ATOM     24  O   UNL     1      -1.243  -0.101  25.772  0.00  0.00    -0.223 OA
ENDROOT
BRANCH  10  11
ATOM     11  N   UNL     1      -0.672   2.699  24.944  0.00  0.00    -0.207 NA
ATOM     12  C   UNL     1      -1.019   3.256  24.445  0.00  0.00    +0.241 C 
ATOM     13  O   UNL     1      -1.149   3.074  23.650  0.00  0.00    -0.273 OA
BRANCH  12  14
ATOM     14  C   UNL     1      -1.237   3.996  24.739  0.00  0.00    +0.078 C 
ATOM     15  C   UNL     1      -1.967   4.095  25.108  0.00  0.00    +0.009 C 
ATOM     16  C   UNL     1      -2.185   4.835  25.402  0.00  0.00    +0.000 C 
ATOM     17  C   UNL     1      -1.670   5.475  25.327  0.00  0.00    +0.000 C 
ATOM     18  C   UNL     1      -0.938   5.376  24.958  0.00  0.00    +0.000 C 
ATOM     19  C   UNL     1      -0.722   4.636  24.664  0.00  0.00    +0.009 C 
ENDBRANCH  12  14
ENDBRANCH  10  11
BRANCH   3   2
ATOM      1  C   UNL     1      -0.588  -1.736  25.963  0.00  0.00    +0.010 C 
ATOM      2  C   UNL     1      -0.808  -1.579  25.184  0.00  0.00    +0.081 C 
BRANCH   2  25
ATOM     25  C   UNL     1      -1.291  -2.110  24.777  0.00  0.00    +0.241 C 
ATOM     26  O   UNL     1      -0.956  -2.747  24.373  0.00  0.00    -0.273 OA
ATOM     27  N   UNL     1      -2.110  -2.004  24.775  0.00  0.00    -0.197 NA
BRANCH  27  28
ATOM     28  C   UNL     1      -2.593  -2.535  24.369  0.00  0.00    +0.179 C 
BRANCH  28  29
ATOM     29  C   UNL     1      -3.366  -2.323  24.173  0.00  0.00    +0.145 A 
ATOM     30  C   UNL     1      -4.001  -2.841  24.077  0.00  0.00    +0.038 A 
ATOM     31  C   UNL     1      -4.667  -2.394  23.884  0.00  0.00    +0.043 A 
ATOM     32  C   UNL     1      -4.443  -1.599  23.861  0.00  0.00    +0.179 A 
ATOM     33  O   UNL     1      -3.639  -1.556  24.040  0.00  0.00    -0.453 OA
ENDBRANCH  28  29
ENDBRANCH  27  28
ENDBRANCH   2  25
ENDBRANCH   3   2
TORSDOF 6
ENDMDL
MODEL 5
REMARK VINA RESULT:     -10.4      2.552      4.962
REMARK  Name = 
REMARK  6 active torsions:
REMARK  status: ('A' for Active; 'I' for Inactive)
REMARK    1  A    between atoms: C_2  and  C_3
REMARK    2  A    between atoms: C_2  and  C_25
REMARK    3  A    between atoms: C_10  and  N_11
REMARK    4  A    between atoms: C_12  and  C_14
REMARK    5  A    between atoms: N_27  and  C_28
REMARK    6  A    between atoms: C_28  and  C_29
REMARK                            x       y       z     vdW  Elec       q    Type
REMARK                         _______ _______ _______ _____ _____    ______ ____
ROOT
ATOM      3  C   UNL     1      -1.677  -1.123  24.681  0.00  0.00    +0.039 C 
ATOM      4  C   UNL     1      -2.200  -1.722  24.457  0.00  0.00    +0.003 C 
ATOM      5  C   UNL     1      -3.012  -1.581  24.455  0.00  0.00    +0.000 C 
ATOM      6  C   UNL     1      -3.303  -0.842  24.677  0.00  0.00    +0.002 C 
ATOM      7  C   UNL     1      -3.824  -1.440  24.454  0.00  0.00    +0.000 C 
ATOM      8  C   UNL     1      -4.116  -0.701  24.676  0.00  0.00    +0.002 C 
ATOM      9  C   UNL     1      -4.407   0.038  24.898  0.00  0.00    +0.022 C 
ATOM     10  C   UNL     1      -3.884   0.637  25.122  0.00  0.00    +0.095 C 
ATOM     20  C   UNL     1      -3.072   0.496  25.123  0.00  0.00    +0.022 C 
ATOM     21  C   UNL     1      -2.550   1.095  25.347  0.00  0.00    +0.002 C 
ATOM     22  C   UNL     1      -2.781  -0.243  24.901  0.00  0.00    +0.032 C 
ATOM     23  C   UNL     1      -1.968  -0.384  24.902  0.00  0.00    +0.152 C 
ATOM     24  O   UNL     1      -1.446   0.214  25.126  0.00  0.00    -0.223 OA
ENDROOT
BRANCH  10  11
ATOM     11  N   UNL     1      -4.176   1.376  25.344  0.00  0.00    -0.207 NA
ATOM     12  C   UNL     1      -4.778   1.731  24.906  0.00  0.00    +0.241 C 
ATOM     13  O   UNL     1      -5.089   1.347  24.244  0.00  0.00    -0.273 OA
BRANCH  12  14
ATOM     14  C   UNL     1      -5.069   2.471  25.128  0.00  0.00    +0.078 C 
ATOM     15  C   UNL     1      -5.772   2.526  25.556  0.00  0.00    +0.009 C 
ATOM     16  C   UNL     1      -6.064   3.265  25.778  0.00  0.00    +0.000 C 
ATOM     17  C   UNL     1      -5.651   3.950  25.572  0.00  0.00    +0.000 C 
ATOM     18  C   UNL     1      -4.948   3.895  25.143  0.00  0.00    +0.000 C 
ATOM     19  C   UNL     1      -4.657   3.155  24.922  0.00  0.00    +0.009 C 
ENDBRANCH  12  14
ENDBRANCH  10  11
BRANCH   3   2
ATOM      1  C   UNL     1      -0.475  -1.434  25.389  0.00  0.00    +0.010 C 
ATOM      2  C   UNL     1      -0.864  -1.264  24.682  0.00  0.00    +0.081 C 
BRANCH   2  25
ATOM     25  C   UNL     1      -0.440  -1.236  23.975  0.00  0.00    +0.241 C 
ATOM     26  O   UNL     1      -0.603  -1.778  23.374  0.00  0.00    -0.273 OA
ATOM     27  N   UNL     1       0.147  -0.665  23.868  0.00  0.00    -0.197 NA
BRANCH  27  28
ATOM     28  C   UNL     1       0.570  -0.637  23.162  0.00  0.00    +0.179 C 
BRANCH  28  29
ATOM     29  C   UNL     1       1.212  -0.124  23.085  0.00  0.00    +0.145 A 
ATOM     30  C   UNL     1       1.928  -0.294  22.712  0.00  0.00    +0.038 A 
ATOM     31  C   UNL     1       2.408   0.375  22.765  0.00  0.00    +0.043 A 
ATOM     32  C   UNL     1       1.988   0.959  23.171  0.00  0.00    +0.179 A 
ATOM     33  O   UNL     1       1.249   0.651  23.369  0.00  0.00    -0.453 OA
ENDBRANCH  28  29
ENDBRANCH  27  28
ENDBRANCH   2  25
ENDBRANCH   3   2
TORSDOF 6
ENDMDL
MODEL 6
REMARK VINA RESULT:     -10.3      1.619      2.942
REMARK  Name = 
REMARK  6 active torsions:
REMARK  status: ('A' for Active; 'I' for Inactive)
REMARK    1  A    between atoms: C_2  and  C_3
REMARK    2  A    between atoms: C_2  and  C_25
REMARK    3  A    between atoms: C_10  and  N_11
REMARK    4  A    between atoms: C_12  and  C_14
REMARK    5  A    between atoms: N_27  and  C_28
REMARK    6  A    between atoms: C_28  and  C_29
REMARK                            x       y       z     vdW  Elec       q    Type
REMARK                         _______ _______ _______ _____ _____    ______ ____
ROOT
ATOM      3  C   UNL     1      -1.267   2.661  24.972  0.00  0.00    +0.039 C 
ATOM      4  C   UNL     1      -0.733   2.518  25.586  0.00  0.00    +0.003 C 
ATOM      5  C   UNL     1      -0.613   1.749  25.856  0.00  0.00    +0.000 C 
ATOM      6  C   UNL     1      -1.025   1.122  25.515  0.00  0.00    +0.002 C 
ATOM      7  C   UNL     1      -0.493   0.980  26.127  0.00  0.00    +0.000 C 
ATOM      8  C   UNL     1      -0.905   0.352  25.785  0.00  0.00    +0.002 C 
ATOM      9  C   UNL     1      -1.317  -0.275  25.443  0.00  0.00    +0.022 C 
ATOM     10  C   UNL     1      -1.851  -0.132  24.829  0.00  0.00    +0.095 C 
ATOM     20  C   UNL     1      -1.971   0.638  24.558  0.00  0.00    +0.022 C 
ATOM     21  C   UNL     1      -2.504   0.780  23.945  0.00  0.00    +0.002 C 
ATOM     22  C   UNL     1      -1.559   1.265  24.900  0.00  0.00    +0.032 C 
ATOM     23  C   UNL     1      -1.679   2.035  24.630  0.00  0.00    +0.152 C 
ATOM     24  O   UNL     1      -2.212   2.177  24.016  0.00  0.00    -0.223 OA
ENDROOT
BRANCH  10  11
ATOM     11  N   UNL     1      -2.263  -0.759  24.487  0.00  0.00    -0.207 NA
ATOM     12  C   UNL     1      -2.757  -1.230  24.950  0.00  0.00    +0.241 C 
ATOM     13  O   UNL     1      -2.839  -1.073  25.757  0.00  0.00    -0.273 OA
BRANCH  12  14
ATOM     14  C   UNL     1      -3.169  -1.858  24.608  0.00  0.00    +0.078 C 
ATOM     15  C   UNL     1      -2.864  -2.623  24.648  0.00  0.00    +0.009 C 
ATOM     16  C   UNL     1      -3.277  -3.250  24.306  0.00  0.00    +0.000 C 
ATOM     17  C   UNL     1      -3.995  -3.112  23.924  0.00  0.00    +0.000 C 
ATOM     18  C   UNL     1      -4.300  -2.346  23.883  0.00  0.00    +0.000 C 
ATOM     19  C   UNL     1      -3.887  -1.719  24.225  0.00  0.00    +0.009 C 
ENDBRANCH  12  14
ENDBRANCH  10  11
BRANCH   3   2
ATOM      1  C   UNL     1      -0.979   3.705  24.038  0.00  0.00    +0.010 C 
ATOM      2  C   UNL     1      -1.387   3.432  24.701  0.00  0.00    +0.081 C 
BRANCH   2  25
ATOM     25  C   UNL     1      -1.915   3.929  25.094  0.00  0.00    +0.241 C 
ATOM     26  O   UNL     1      -1.632   4.570  25.530  0.00  0.00    -0.273 OA
ATOM     27  N   UNL     1      -2.727   3.785  25.052  0.00  0.00    -0.197 NA
BRANCH  27  28
ATOM     28  C   UNL     1      -3.255   4.281  25.444  0.00  0.00    +0.179 C 
BRANCH  28  29
ATOM     29  C   UNL     1      -4.039   4.049  25.551  0.00  0.00    +0.145 A 
ATOM     30  C   UNL     1      -4.677   4.261  25.073  0.00  0.00    +0.038 A 
ATOM     31  C   UNL     1      -5.355   3.906  25.383  0.00  0.00    +0.043 A 
ATOM     32  C   UNL     1      -5.135   3.475  26.052  0.00  0.00    +0.179 A 
ATOM     33  O   UNL     1      -4.322   3.563  26.156  0.00  0.00    -0.453 OA
ENDBRANCH  28  29
ENDBRANCH  27  28
ENDBRANCH   2  25
ENDBRANCH   3   2
TORSDOF 6
ENDMDL
MODEL 7
REMARK VINA RESULT:      -9.8      2.762      4.501
REMARK  Name = 
REMARK  6 active torsions:
REMARK  status: ('A' for Active; 'I' for Inactive)
REMARK    1  A    between atoms: C_2  and  C_3
REMARK    2  A    between atoms: C_2  and  C_25
REMARK    3  A    between atoms: C_10  and  N_11
REMARK    4  A    between atoms: C_12  and  C_14
REMARK    5  A    between atoms: N_27  and  C_28
REMARK    6  A    between atoms: C_28  and  C_29
REMARK                            x       y       z     vdW  Elec       q    Type
REMARK                         _______ _______ _______ _____ _____    ______ ____
ROOT
ATOM      3  C   UNL     1      -2.370   3.464  25.183  0.00  0.00    +0.039 C 
ATOM      4  C   UNL     1      -1.988   3.636  25.895  0.00  0.00    +0.003 C 
ATOM      5  C   UNL     1      -1.267   3.277  26.073  0.00  0.00    +0.000 C 
ATOM      6  C   UNL     1      -0.928   2.747  25.541  0.00  0.00    +0.002 C 
ATOM      7  C   UNL     1      -0.547   2.918  26.251  0.00  0.00    +0.000 C 
ATOM      8  C   UNL     1      -0.207   2.387  25.718  0.00  0.00    +0.002 C 
ATOM      9  C   UNL     1       0.133   1.858  25.185  0.00  0.00    +0.022 C 
ATOM     10  C   UNL     1      -0.249   1.686  24.473  0.00  0.00    +0.095 C 
ATOM     20  C   UNL     1      -0.970   2.045  24.296  0.00  0.00    +0.022 C 
ATOM     21  C   UNL     1      -1.351   1.874  23.584  0.00  0.00    +0.002 C 
ATOM     22  C   UNL     1      -1.310   2.576  24.829  0.00  0.00    +0.032 C 
ATOM     23  C   UNL     1      -2.031   2.935  24.651  0.00  0.00    +0.152 C 
ATOM     24  O   UNL     1      -2.412   2.763  23.940  0.00  0.00    -0.223 OA
ENDROOT
BRANCH  10  11
ATOM     11  N   UNL     1       0.091   1.156  23.940  0.00  0.00    -0.207 NA
ATOM     12  C   UNL     1       0.903   1.176  23.799  0.00  0.00    +0.241 C 
ATOM     13  O   UNL     1       1.376   1.728  24.191  0.00  0.00    -0.273 OA
BRANCH  12  14
ATOM     14  C   UNL     1       1.243   0.646  23.266  0.00  0.00    +0.078 C 
ATOM     15  C   UNL     1       0.797   0.022  22.963  0.00  0.00    +0.009 C 
ATOM     16  C   UNL     1       1.137  -0.509  22.430  0.00  0.00    +0.000 C 
ATOM     17  C   UNL     1       1.924  -0.414  22.201  0.00  0.00    +0.000 C 
ATOM     18  C   UNL     1       2.371   0.210  22.504  0.00  0.00    +0.000 C 
ATOM     19  C   UNL     1       2.030   0.740  23.037  0.00  0.00    +0.009 C 
ENDBRANCH  12  14
ENDBRANCH  10  11
BRANCH   3   2
ATOM      1  C   UNL     1      -3.149   4.343  24.367  0.00  0.00    +0.010 C 
ATOM      2  C   UNL     1      -3.091   3.824  25.006  0.00  0.00    +0.081 C 
BRANCH   2  25
ATOM     25  C   UNL     1      -3.756   3.664  25.468  0.00  0.00    +0.241 C 
ATOM     26  O   UNL     1      -3.850   4.037  26.199  0.00  0.00    -0.273 OA
ATOM     27  N   UNL     1      -4.327   3.132  25.200  0.00  0.00    -0.197 NA
BRANCH  27  28
ATOM     28  C   UNL     1      -4.991   2.972  25.662  0.00  0.00    +0.179 C 
BRANCH  28  29
ATOM     29  C   UNL     1      -5.524   2.388  25.430  0.00  0.00    +0.145 A 
ATOM     30  C   UNL     1      -5.495   1.591  25.644  0.00  0.00    +0.038 A 
ATOM     31  C   UNL     1      -6.134   1.209  25.289  0.00  0.00    +0.043 A 
ATOM     32  C   UNL     1      -6.558   1.769  24.855  0.00  0.00    +0.179 A 
ATOM     33  O   UNL     1      -6.181   2.498  24.942  0.00  0.00    -0.453 OA
ENDBRANCH  28  29
ENDBRANCH  27  28
ENDBRANCH   2  25
ENDBRANCH   3   2
TORSDOF 6
ENDMDL
MODEL 8
REMARK VINA RESULT:      -9.6      2.052      5.667
REMARK  Name = 
REMARK  6 active torsions:
REMARK  status: ('A' for Active; 'I' for Inactive)
REMARK    1  A    between atoms: C_2  and  C_3
REMARK    2  A    between atoms: C_2  and  C_25
REMARK    3  A    between atoms: C_10  and  N_11
REMARK    4  A    between atoms: C_12  and  C_14
REMARK    5  A    between atoms: N_27  and  C_28
REMARK    6  A    between atoms: C_28  and  C_29
REMARK                            x       y       z     vdW  Elec       q    Type
REMARK                         _______ _______ _______ _____ _____    ______ ____
ROOT
ATOM      3  C   UNL     1      -0.648   0.724  24.461  0.00  0.00    +0.039 C 
ATOM      4  C   UNL     1      -0.092   1.081  24.957  0.00  0.00    +0.003 C 
ATOM      5  C   UNL     1      -0.285   1.774  25.361  0.00  0.00    +0.000 C 
ATOM      6  C   UNL     1      -1.033   2.110  25.269  0.00  0.00    +0.002 C 
ATOM      7  C   UNL     1      -0.479   2.466  25.764  0.00  0.00    +0.000 C 
ATOM      8  C   UNL     1      -1.227   2.803  25.673  0.00  0.00    +0.002 C 
ATOM      9  C   UNL     1      -1.974   3.139  25.581  0.00  0.00    +0.022 C 
ATOM     10  C   UNL     1      -2.529   2.781  25.085  0.00  0.00    +0.095 C 
ATOM     20  C   UNL     1      -2.336   2.089  24.682  0.00  0.00    +0.022 C 
ATOM     21  C   UNL     1      -2.891   1.732  24.187  0.00  0.00    +0.002 C 
ATOM     22  C   UNL     1      -1.588   1.752  24.773  0.00  0.00    +0.032 C 
ATOM     23  C   UNL     1      -1.395   1.060  24.370  0.00  0.00    +0.152 C 
ATOM     24  O   UNL     1      -1.950   0.703  23.875  0.00  0.00    -0.223 OA
ENDROOT
BRANCH  10  11
ATOM     11  N   UNL     1      -3.277   3.118  24.994  0.00  0.00    -0.207 NA
ATOM     12  C   UNL     1      -3.722   3.322  25.658  0.00  0.00    +0.241 C 
ATOM     13  O   UNL     1      -3.418   3.190  26.415  0.00  0.00    -0.273 OA
BRANCH  12  14
ATOM     14  C   UNL     1      -4.470   3.659  25.567  0.00  0.00    +0.078 C 
ATOM     15  C   UNL     1      -4.543   4.444  25.327  0.00  0.00    +0.009 C 
ATOM     16  C   UNL     1      -5.291   4.781  25.236  0.00  0.00    +0.000 C 
ATOM     17  C   UNL     1      -5.966   4.330  25.385  0.00  0.00    +0.000 C 
ATOM     18  C   UNL     1      -5.893   3.544  25.624  0.00  0.00    +0.000 C 
ATOM     19  C   UNL     1      -5.145   3.208  25.715  0.00  0.00    +0.009 C 
ENDBRANCH  12  14
ENDBRANCH  10  11
BRANCH   3   2
ATOM      1  C   UNL     1      -0.167   0.068  23.285  0.00  0.00    +0.010 C 
ATOM      2  C   UNL     1      -0.454   0.031  24.058  0.00  0.00    +0.081 C 
BRANCH   2  25
ATOM     25  C   UNL     1      -0.547  -0.701  24.427  0.00  0.00    +0.241 C 
ATOM     26  O   UNL     1       0.061  -1.009  24.893  0.00  0.00    -0.273 OA
ATOM     27  N   UNL     1      -1.249  -1.126  24.332  0.00  0.00    -0.197 NA
BRANCH  27  28
ATOM     28  C   UNL     1      -1.342  -1.856  24.701  0.00  0.00    +0.179 C 
BRANCH  28  29
ATOM     29  C   UNL     1      -2.075  -2.234  24.689  0.00  0.00    +0.145 A 
ATOM     30  C   UNL     1      -2.654  -2.188  25.275  0.00  0.00    +0.038 A 
ATOM     31  C   UNL     1      -3.295  -2.650  25.037  0.00  0.00    +0.043 A 
ATOM     32  C   UNL     1      -3.111  -2.983  24.304  0.00  0.00    +0.179 A 
ATOM     33  O   UNL     1      -2.357  -2.726  24.089  0.00  0.00    -0.453 OA
ENDBRANCH  28  29
ENDBRANCH  27  28
ENDBRANCH   2  25
ENDBRANCH   3   2
TORSDOF 6
ENDMDL
MODEL 9
REMARK VINA RESULT:      -9.6      2.818      4.326
REMARK  Name = 
REMARK  6 active torsions:
REMARK  status: ('A' for Active; 'I' for Inactive)
REMARK    1  A    between atoms: C_2  and  C_3
REMARK    2  A    between atoms: C_2  and  C_25
REMARK    3  A    between atoms: C_10  and  N_11
REMARK    4  A    between atoms: C_12  and  C_14
REMARK    5  A    between atoms: N_27  and  C_28
REMARK    6  A    between atoms: C_28  and  C_29
REMARK                            x       y       z     vdW  Elec       q    Type
REMARK                         _______ _______ _______ _____ _____    ______ ____
ROOT
ATOM      3  C   UNL     1      -3.503   0.017  24.823  0.00  0.00    +0.039 C 
ATOM      4  C   UNL     1      -3.399  -0.508  25.452  0.00  0.00    +0.003 C 
ATOM      5  C   UNL     1      -2.644  -0.777  25.644  0.00  0.00    +0.000 C 
ATOM      6  C   UNL     1      -1.992  -0.522  25.208  0.00  0.00    +0.002 C 
ATOM      7  C   UNL     1      -1.889  -1.046  25.836  0.00  0.00    +0.000 C 
ATOM      8  C   UNL     1      -1.236  -0.791  25.400  0.00  0.00    +0.002 C 
ATOM      9  C   UNL     1      -0.584  -0.537  24.965  0.00  0.00    +0.022 C 
ATOM     10  C   UNL     1      -0.688  -0.012  24.335  0.00  0.00    +0.095 C 
ATOM     20  C   UNL     1      -1.443   0.257  24.143  0.00  0.00    +0.022 C 
ATOM     21  C   UNL     1      -1.547   0.782  23.515  0.00  0.00    +0.002 C 
ATOM     22  C   UNL     1      -2.096   0.003  24.579  0.00  0.00    +0.032 C 
ATOM     23  C   UNL     1      -2.851   0.272  24.387  0.00  0.00    +0.152 C 
ATOM     24  O   UNL     1      -2.955   0.796  23.759  0.00  0.00    -0.223 OA
ENDROOT
BRANCH  10  11
ATOM     11  N   UNL     1      -0.035   0.243  23.899  0.00  0.00    -0.207 NA
ATOM     12  C   UNL     1       0.541  -0.298  23.665  0.00  0.00    +0.241 C 
ATOM     13  O   UNL     1       0.465  -1.095  23.866  0.00  0.00    -0.273 OA
BRANCH  12  14
ATOM     14  C   UNL     1       1.194  -0.043  23.229  0.00  0.00    +0.078 C 
ATOM     15  C   UNL     1       1.685   0.548  23.527  0.00  0.00    +0.009 C 
ATOM     16  C   UNL     1       2.337   0.802  23.091  0.00  0.00    +0.000 C 
ATOM     17  C   UNL     1       2.499   0.465  22.356  0.00  0.00    +0.000 C 
ATOM     18  C   UNL     1       2.007  -0.127  22.057  0.00  0.00    +0.000 C 
ATOM     19  C   UNL     1       1.355  -0.381  22.493  0.00  0.00    +0.009 C 
ENDBRANCH  12  14
ENDBRANCH  10  11
BRANCH   3   2
ATOM      1  C   UNL     1      -4.590   0.103  23.898  0.00  0.00    +0.010 C 
ATOM      2  C   UNL     1      -4.259   0.286  24.631  0.00  0.00    +0.081 C 
BRANCH   2  25
ATOM     25  C   UNL     1      -4.685   0.739  25.173  0.00  0.00    +0.241 C 
ATOM     26  O   UNL     1      -5.076   0.372  25.802  0.00  0.00    -0.273 OA
ATOM     27  N   UNL     1      -4.720   1.560  25.088  0.00  0.00    -0.197 NA
BRANCH  27  28
ATOM     28  C   UNL     1      -5.146   2.012  25.630  0.00  0.00    +0.179 C 
BRANCH  28  29
ATOM     29  C   UNL     1      -5.143   2.835  25.573  0.00  0.00    +0.145 A 
ATOM     30  C   UNL     1      -4.481   3.324  25.642  0.00  0.00    +0.038 A 
ATOM     31  C   UNL     1      -4.732   4.105  25.548  0.00  0.00    +0.043 A 
ATOM     32  C   UNL     1      -5.547   4.098  25.421  0.00  0.00    +0.179 A 
ATOM     33  O   UNL     1      -5.801   3.314  25.436  0.00  0.00    -0.453 OA
ENDBRANCH  28  29
ENDBRANCH  27  28
ENDBRANCH   2  25
ENDBRANCH   3   2
TORSDOF 6
ENDMDL
