REMARK  Name = 
REMARK  9 active torsions:
REMARK  status: ('A' for Active; 'I' for Inactive)
REMARK    1  A    between atoms: O_2  and  C_3
REMARK    2  A    between atoms: C_3  and  C_4
REMARK    3  A    between atoms: C_6  and  C_7
REMARK    4  A    between atoms: C_7  and  C_8
REMARK    5  A    between atoms: C_13  and  C_14
REMARK    6  A    between atoms: C_14  and  N_15
REMARK    7  A    between atoms: C_16  and  C_18
REMARK    8  A    between atoms: C_18  and  O_19
REMARK    9  A    between atoms: O_19  and  C_20
REMARK                            x       y       z     vdW  Elec       q    Type
REMARK                         _______ _______ _______ _____ _____    ______ ____
ROOT
ATOM      8  C   UNL     1       0.715  -5.362   0.000  0.00  0.00    +0.121 C 
ATOM      9  C   UNL     1       0.000  -4.950   0.000  0.00  0.00    +0.033 C 
ATOM     10  C   UNL     1       0.000  -4.125   0.000  0.00  0.00    +0.038 C 
ATOM     11  C   UNL     1       0.715  -3.712   0.000  0.00  0.00    +0.181 C 
ATOM     12  O   UNL     1       0.715  -2.888   0.000  0.00  0.00    -0.220 OA
ATOM     13  C   UNL     1       1.429  -4.125   0.000  0.00  0.00    +0.167 C 
ATOM     26  O   UNL     1       1.429  -4.950   0.000  0.00  0.00    -0.354 OA
ENDROOT
BRANCH   8   7
ATOM      7  C   UNL     1       0.715  -6.188   0.000  0.00  0.00    +0.079 C 
BRANCH   7   6
ATOM      4  C   UNL     1      -1.306  -6.878   0.000  0.00  0.00    +0.184 A 
ATOM      5  C   UNL     1      -0.754  -6.264   0.000  0.00  0.00    +0.056 A 
ATOM      6  C   UNL     1       0.000  -6.600   0.000  0.00  0.00    +0.103 A 
ATOM     27  N   UNL     1      -0.086  -7.420   0.000  0.00  0.00    -0.082 NA
ATOM     28  O   UNL     1      -0.893  -7.592   0.000  0.00  0.00    -0.356 OA
BRANCH   4   3
ATOM      3  C   UNL     1      -2.126  -6.791   0.000  0.00  0.00    +0.209 C 
BRANCH   3   2
ATOM      1  C   UNL     1      -3.432  -7.372   0.000  0.00  0.00    +0.175 C 
ATOM      2  O   UNL     1      -2.611  -7.459   0.000  0.00  0.00    -0.343 OA
ENDBRANCH   3   2
ENDBRANCH   4   3
ENDBRANCH   7   6
ENDBRANCH   8   7
BRANCH  13  14
ATOM     14  C   UNL     1       2.143  -3.712   0.000  0.00  0.00    +0.147 C 
BRANCH  14  15
ATOM     15  N   UNL     1       2.858  -4.125   0.000  0.00  0.00    -0.200 NA
ATOM     16  C   UNL     1       3.572  -3.712   0.000  0.00  0.00    +0.286 C 
ATOM     17  O   UNL     1       3.572  -2.888   0.000  0.00  0.00    -0.269 OA
BRANCH  16  18
ATOM     18  C   UNL     1       4.287  -4.125   0.000  0.00  0.00    +0.291 C 
BRANCH  18  19
ATOM     19  O   UNL     1       5.001  -3.712   0.000  0.00  0.00    -0.466 OA
BRANCH  19  20
ATOM     20  C   UNL     1       5.716  -4.125   0.000  0.00  0.00    +0.139 A 
ATOM     21  C   UNL     1       6.430  -3.712   0.000  0.00  0.00    +0.037 A 
ATOM     22  C   UNL     1       7.145  -4.125   0.000  0.00  0.00    +0.003 A 
ATOM     23  C   UNL     1       7.145  -4.950   0.000  0.00  0.00    +0.000 A 
ATOM     24  C   UNL     1       6.430  -5.362   0.000  0.00  0.00    +0.003 A 
ATOM     25  C   UNL     1       5.716  -4.950   0.000  0.00  0.00    +0.037 A 
ENDBRANCH  19  20
ENDBRANCH  18  19
ENDBRANCH  16  18
ENDBRANCH  14  15
ENDBRANCH  13  14
TORSDOF 9
