MODEL 1
REMARK VINA RESULT:     -14.6      0.000      0.000
REMARK  Name = 
REMARK  6 active torsions:
REMARK  status: ('A' for Active; 'I' for Inactive)
REMARK    1  A    between atoms: C_2  and  C_3
REMARK    2  A    between atoms: C_11  and  C_12
REMARK    3  A    between atoms: C_12  and  C_13
REMARK    4  A    between atoms: N_15  and  C_16
REMARK    5  A    between atoms: C_16  and  C_17
REMARK    6  A    between atoms: C_30  and  C_32
REMARK                            x       y       z     vdW  Elec       q    Type
REMARK                         _______ _______ _______ _____ _____    ______ ____
ROOT
ATOM      1  C   UNL     1      -4.849   4.136  25.706  0.00  0.00    +0.005 C 
ATOM      2  C   UNL     1      -4.613   3.398  25.422  0.00  0.00    +0.059 C 
ATOM      5  C   UNL     1      -5.426   3.277  25.477  0.00  0.00    +0.154 C 
ATOM      6  O   UNL     1      -5.917   3.883  25.746  0.00  0.00    -0.223 OA
ATOM      7  C   UNL     1      -5.750   2.548  25.263  0.00  0.00    +0.033 C 
ATOM      8  C   UNL     1      -5.260   1.942  24.994  0.00  0.00    +0.003 C 
ATOM      9  C   UNL     1      -4.446   2.064  24.939  0.00  0.00    +0.006 C 
ATOM     10  C   UNL     1      -4.769   1.336  24.725  0.00  0.00    +0.000 C 
ATOM     11  C   UNL     1      -3.955   1.457  24.670  0.00  0.00    +0.050 C 
ATOM     23  C   UNL     1      -3.142   1.579  24.614  0.00  0.00    +0.063 A 
ATOM     24  C   UNL     1      -2.818   2.308  24.828  0.00  0.00    +0.023 A 
ATOM     25  C   UNL     1      -3.308   2.914  25.097  0.00  0.00    +0.034 C 
ATOM     26  C   UNL     1      -4.122   2.793  25.153  0.00  0.00    +0.010 C 
ATOM     27  S   UNL     1      -2.001   2.266  24.715  0.00  0.00    -0.054 S 
ATOM     28  C   UNL     1      -1.820   1.513  24.433  0.00  0.00    +0.186 A 
ATOM     29  N   UNL     1      -1.067   1.234  24.245  0.00  0.00    -0.148 NA
ATOM     30  C   UNL     1      -0.410   1.725  24.337  0.00  0.00    +0.305 C 
ATOM     31  O   UNL     1       0.343   1.446  24.149  0.00  0.00    -0.265 OA
ATOM     37  N   UNL     1      -2.524   1.089  24.370  0.00  0.00    -0.227 NA
ENDROOT
BRANCH  30  32
ATOM     32  C   UNL     1      -0.507   2.495  24.615  0.00  0.00    +0.201 A 
ATOM     33  C   UNL     1      -0.440   2.738  25.401  0.00  0.00    +0.046 A 
ATOM     34  C   UNL     1      -0.579   3.552  25.428  0.00  0.00    +0.044 A 
ATOM     35  C   UNL     1      -0.731   3.810  24.659  0.00  0.00    +0.180 A 
ATOM     36  O   UNL     1      -0.686   3.158  24.157  0.00  0.00    -0.446 OA
ENDBRANCH  30  32
BRANCH   2   3
ATOM      3  C   UNL     1      -3.881   3.777  25.465  0.00  0.00    +0.184 C 
ATOM      4  O   UNL     1      -3.825   4.532  25.793  0.00  0.00    -0.220 OA
ENDBRANCH   2   3
BRANCH  11  12
ATOM     12  C   UNL     1      -4.278   0.729  24.456  0.00  0.00    +0.093 C 
BRANCH  12  13
ATOM     13  C   UNL     1      -4.144   0.064  24.926  0.00  0.00    +0.242 C 
ATOM     14  O   UNL     1      -4.182   0.125  25.748  0.00  0.00    -0.273 OA
ATOM     15  N   UNL     1      -3.972  -0.661  24.574  0.00  0.00    -0.201 NA
BRANCH  15  16
ATOM     16  C   UNL     1      -3.838  -1.326  25.043  0.00  0.00    +0.141 C 
BRANCH  16  17
ATOM     17  C   UNL     1      -3.533  -2.015  24.706  0.00  0.00    -0.001 A 
ATOM     18  C   UNL     1      -2.751  -2.233  24.849  0.00  0.00    -0.003 A 
ATOM     19  C   UNL     1      -2.447  -2.921  24.512  0.00  0.00    -0.000 A 
ATOM     20  C   UNL     1      -2.924  -3.392  24.031  0.00  0.00    -0.000 A 
ATOM     21  C   UNL     1      -3.707  -3.173  23.889  0.00  0.00    -0.000 A 
ATOM     22  C   UNL     1      -4.011  -2.485  24.226  0.00  0.00    -0.003 A 
ENDBRANCH  16  17
ENDBRANCH  15  16
ENDBRANCH  12  13
ENDBRANCH  11  12
TORSDOF 6
ENDMDL
MODEL 2
REMARK VINA RESULT:     -13.7      1.156      3.396
REMARK  Name = 
REMARK  6 active torsions:
REMARK  status: ('A' for Active; 'I' for Inactive)
REMARK    1  A    between atoms: C_2  and  C_3
REMARK    2  A    between atoms: C_11  and  C_12
REMARK    3  A    between atoms: C_12  and  C_13
REMARK    4  A    between atoms: N_15  and  C_16
REMARK    5  A    between atoms: C_16  and  C_17
REMARK    6  A    between atoms: C_30  and  C_32
REMARK                            x       y       z     vdW  Elec       q    Type
REMARK                         _______ _______ _______ _____ _____    ______ ____
ROOT
ATOM      1  C   UNL     1      -1.148   4.569  25.174  0.00  0.00    +0.005 C 
ATOM      2  C   UNL     1      -1.393   3.798  25.014  0.00  0.00    +0.059 C 
ATOM      5  C   UNL     1      -0.582   3.719  24.889  0.00  0.00    +0.154 C 
ATOM      6  O   UNL     1      -0.084   4.369  24.986  0.00  0.00    -0.223 OA
ATOM      7  C   UNL     1      -0.268   2.988  24.667  0.00  0.00    +0.033 C 
ATOM      8  C   UNL     1      -0.765   2.338  24.570  0.00  0.00    +0.003 C 
ATOM      9  C   UNL     1      -1.576   2.417  24.695  0.00  0.00    +0.006 C 
ATOM     10  C   UNL     1      -1.263   1.688  24.473  0.00  0.00    +0.000 C 
ATOM     11  C   UNL     1      -2.075   1.766  24.598  0.00  0.00    +0.050 C 
ATOM     23  C   UNL     1      -2.886   1.845  24.723  0.00  0.00    +0.063 A 
ATOM     24  C   UNL     1      -3.200   2.575  24.946  0.00  0.00    +0.023 A 
ATOM     25  C   UNL     1      -2.703   3.226  25.043  0.00  0.00    +0.034 C 
ATOM     26  C   UNL     1      -1.891   3.147  24.917  0.00  0.00    +0.010 C 
ATOM     27  S   UNL     1      -4.016   2.486  25.030  0.00  0.00    -0.054 S 
ATOM     28  C   UNL     1      -4.206   1.702  24.860  0.00  0.00    +0.186 A 
ATOM     29  N   UNL     1      -4.962   1.372  24.876  0.00  0.00    -0.148 NA
ATOM     30  C   UNL     1      -5.612   1.839  25.077  0.00  0.00    +0.305 C 
ATOM     31  O   UNL     1      -6.368   1.509  25.093  0.00  0.00    -0.265 OA
ATOM     37  N   UNL     1      -3.508   1.306  24.670  0.00  0.00    -0.227 NA
ENDROOT
BRANCH  30  32
ATOM     32  C   UNL     1      -5.506   2.636  25.261  0.00  0.00    +0.201 A 
ATOM     33  C   UNL     1      -5.434   2.953  26.019  0.00  0.00    +0.046 A 
ATOM     34  C   UNL     1      -5.337   3.769  25.945  0.00  0.00    +0.044 A 
ATOM     35  C   UNL     1      -5.349   3.956  25.142  0.00  0.00    +0.180 A 
ATOM     36  O   UNL     1      -5.454   3.256  24.718  0.00  0.00    -0.446 OA
ENDBRANCH  30  32
BRANCH   2   3
ATOM      3  C   UNL     1      -2.120   4.145  25.195  0.00  0.00    +0.184 C 
ATOM      4  O   UNL     1      -2.154   4.940  25.414  0.00  0.00    -0.220 OA
ENDBRANCH   2   3
BRANCH  11  12
ATOM     12  C   UNL     1      -1.761   1.036  24.376  0.00  0.00    +0.093 C 
BRANCH  12  13
ATOM     13  C   UNL     1      -1.785   0.399  24.901  0.00  0.00    +0.242 C 
ATOM     14  O   UNL     1      -1.569   0.507  25.689  0.00  0.00    -0.273 OA
ATOM     15  N   UNL     1      -2.026  -0.344  24.637  0.00  0.00    -0.201 NA
BRANCH  15  16
ATOM     16  C   UNL     1      -2.050  -0.980  25.161  0.00  0.00    +0.141 C 
BRANCH  16  17
ATOM     17  C   UNL     1      -2.424  -1.682  24.941  0.00  0.00    -0.001 A 
ATOM     18  C   UNL     1      -3.186  -1.845  25.211  0.00  0.00    -0.003 A 
ATOM     19  C   UNL     1      -3.560  -2.547  24.992  0.00  0.00    -0.000 A 
ATOM     20  C   UNL     1      -3.173  -3.085  24.501  0.00  0.00    -0.000 A 
ATOM     21  C   UNL     1      -2.411  -2.921  24.230  0.00  0.00    -0.000 A 
ATOM     22  C   UNL     1      -2.037  -2.219  24.450  0.00  0.00    -0.003 A 
ENDBRANCH  16  17
ENDBRANCH  15  16
ENDBRANCH  12  13
ENDBRANCH  11  12
TORSDOF 6
ENDMDL
MODEL 3
REMARK VINA RESULT:     -12.6      1.484      4.575
REMARK  Name = 
REMARK  6 active torsions:
REMARK  status: ('A' for Active; 'I' for Inactive)
REMARK    1  A    between atoms: C_2  and  C_3
REMARK    2  A    between atoms: C_11  and  C_12
REMARK    3  A    between atoms: C_12  and  C_13
REMARK    4  A    between atoms: N_15  and  C_16
REMARK    5  A    between atoms: C_16  and  C_17
REMARK    6  A    between atoms: C_30  and  C_32
REMARK                            x       y       z     vdW  Elec       q    Type
REMARK                         _______ _______ _______ _____ _____    ______ ____
ROOT
ATOM      1  C   UNL     1      -2.459  -3.124  24.287  0.00  0.00    +0.005 C 
ATOM      2  C   UNL     1      -2.654  -2.349  24.490  0.00  0.00    +0.059 C 
ATOM      5  C   UNL     1      -3.357  -2.731  24.690  0.00  0.00    +0.154 C 
ATOM      6  O   UNL     1      -3.430  -3.545  24.581  0.00  0.00    -0.223 OA
ATOM      7  C   UNL     1      -3.988  -2.297  25.000  0.00  0.00    +0.033 C 
ATOM      8  C   UNL     1      -3.915  -1.484  25.109  0.00  0.00    +0.003 C 
ATOM      9  C   UNL     1      -3.213  -1.102  24.909  0.00  0.00    +0.006 C 
ATOM     10  C   UNL     1      -3.843  -0.670  25.218  0.00  0.00    +0.000 C 
ATOM     11  C   UNL     1      -3.139  -0.287  25.018  0.00  0.00    +0.050 C 
ATOM     23  C   UNL     1      -2.436   0.094  24.819  0.00  0.00    +0.063 A 
ATOM     24  C   UNL     1      -1.805  -0.339  24.509  0.00  0.00    +0.023 A 
ATOM     25  C   UNL     1      -1.878  -1.153  24.400  0.00  0.00    +0.034 C 
ATOM     26  C   UNL     1      -2.581  -1.535  24.599  0.00  0.00    +0.010 C 
ATOM     27  S   UNL     1      -1.184   0.185  24.364  0.00  0.00    -0.054 S 
ATOM     28  C   UNL     1      -1.431   0.941  24.583  0.00  0.00    +0.186 A 
ATOM     29  N   UNL     1      -0.983   1.632  24.531  0.00  0.00    -0.148 NA
ATOM     30  C   UNL     1      -0.212   1.602  24.237  0.00  0.00    +0.305 C 
ATOM     31  O   UNL     1       0.236   2.293  24.185  0.00  0.00    -0.265 OA
ATOM     37  N   UNL     1      -2.204   0.885  24.864  0.00  0.00    -0.227 NA
ENDROOT
BRANCH  30  32
ATOM     32  C   UNL     1       0.110   0.882  23.995  0.00  0.00    +0.201 A 
ATOM     33  C   UNL     1       0.145   0.603  23.219  0.00  0.00    +0.046 A 
ATOM     34  C   UNL     1       0.511  -0.137  23.232  0.00  0.00    +0.044 A 
ATOM     35  C   UNL     1       0.701  -0.314  24.015  0.00  0.00    +0.180 A 
ATOM     36  O   UNL     1       0.453   0.316  24.487  0.00  0.00    -0.446 OA
ENDBRANCH  30  32
BRANCH   2   3
ATOM      3  C   UNL     1      -1.883  -2.237  24.220  0.00  0.00    +0.184 C 
ATOM      4  O   UNL     1      -1.444  -2.880  23.945  0.00  0.00    -0.220 OA
ENDBRANCH   2   3
BRANCH  11  12
ATOM     12  C   UNL     1      -3.770   0.145  25.328  0.00  0.00    +0.093 C 
BRANCH  12  13
ATOM     13  C   UNL     1      -4.164   0.696  24.855  0.00  0.00    +0.242 C 
ATOM     14  O   UNL     1      -4.286   0.539  24.054  0.00  0.00    -0.273 OA
ATOM     15  N   UNL     1      -4.436   1.401  25.183  0.00  0.00    -0.201 NA
BRANCH  15  16
ATOM     16  C   UNL     1      -4.830   1.951  24.711  0.00  0.00    +0.141 C 
BRANCH  16  17
ATOM     17  C   UNL     1      -5.035   2.688  25.020  0.00  0.00    -0.001 A 
ATOM     18  C   UNL     1      -4.524   3.329  24.932  0.00  0.00    -0.003 A 
ATOM     19  C   UNL     1      -4.729   4.066  25.241  0.00  0.00    -0.000 A 
ATOM     20  C   UNL     1      -5.446   4.162  25.637  0.00  0.00    -0.000 A 
ATOM     21  C   UNL     1      -5.957   3.521  25.725  0.00  0.00    -0.000 A 
ATOM     22  C   UNL     1      -5.752   2.784  25.417  0.00  0.00    -0.003 A 
ENDBRANCH  16  17
ENDBRANCH  15  16
ENDBRANCH  12  13
ENDBRANCH  11  12
TORSDOF 6
ENDMDL
MODEL 4
REMARK VINA RESULT:     -12.1      1.397      5.253
REMARK  Name = 
REMARK  6 active torsions:
REMARK  status: ('A' for Active; 'I' for Inactive)
REMARK    1  A    between atoms: C_2  and  C_3
REMARK    2  A    between atoms: C_11  and  C_12
REMARK    3  A    between atoms: C_12  and  C_13
REMARK    4  A    between atoms: N_15  and  C_16
REMARK    5  A    between atoms: C_16  and  C_17
REMARK    6  A    between atoms: C_30  and  C_32
REMARK                            x       y       z     vdW  Elec       q    Type
REMARK                         _______ _______ _______ _____ _____    ______ ____
ROOT
ATOM      1  C   UNL     1      -3.361  -1.864  24.889  0.00  0.00    +0.005 C 
ATOM      2  C   UNL     1      -3.084  -1.093  24.795  0.00  0.00    +0.059 C 
ATOM      5  C   UNL     1      -2.390  -1.513  24.649  0.00  0.00    +0.154 C 
ATOM      6  O   UNL     1      -2.391  -2.337  24.680  0.00  0.00    -0.223 OA
ATOM      7  C   UNL     1      -1.692  -1.108  24.470  0.00  0.00    +0.033 C 
ATOM      8  C   UNL     1      -1.690  -0.285  24.439  0.00  0.00    +0.003 C 
ATOM      9  C   UNL     1      -2.384   0.136  24.585  0.00  0.00    +0.006 C 
ATOM     10  C   UNL     1      -1.688   0.539  24.407  0.00  0.00    +0.000 C 
ATOM     11  C   UNL     1      -2.382   0.960  24.553  0.00  0.00    +0.050 C 
ATOM     23  C   UNL     1      -3.076   1.380  24.700  0.00  0.00    +0.063 A 
ATOM     24  C   UNL     1      -3.774   0.976  24.878  0.00  0.00    +0.023 A 
ATOM     25  C   UNL     1      -3.776   0.152  24.910  0.00  0.00    +0.034 C 
ATOM     26  C   UNL     1      -3.082  -0.269  24.763  0.00  0.00    +0.010 C 
ATOM     27  S   UNL     1      -4.369   1.535  24.996  0.00  0.00    -0.054 S 
ATOM     28  C   UNL     1      -4.040   2.285  24.891  0.00  0.00    +0.186 A 
ATOM     29  N   UNL     1      -4.440   3.003  24.957  0.00  0.00    -0.148 NA
ATOM     30  C   UNL     1      -5.243   3.012  25.145  0.00  0.00    +0.305 C 
ATOM     31  O   UNL     1      -5.643   3.731  25.211  0.00  0.00    -0.265 OA
ATOM     37  N   UNL     1      -3.242   2.189  24.708  0.00  0.00    -0.227 NA
ENDROOT
BRANCH  30  32
ATOM     32  C   UNL     1      -5.647   2.303  25.266  0.00  0.00    +0.201 A 
ATOM     33  C   UNL     1      -5.781   1.940  25.995  0.00  0.00    +0.046 A 
ATOM     34  C   UNL     1      -6.205   1.245  25.858  0.00  0.00    +0.044 A 
ATOM     35  C   UNL     1      -6.332   1.179  25.046  0.00  0.00    +0.180 A 
ATOM     36  O   UNL     1      -5.987   1.833  24.679  0.00  0.00    -0.446 OA
ENDBRANCH  30  32
BRANCH   2   3
ATOM      3  C   UNL     1      -3.874  -0.940  24.974  0.00  0.00    +0.184 C 
ATOM      4  O   UNL     1      -4.411  -1.564  25.037  0.00  0.00    -0.220 OA
ENDBRANCH   2   3
BRANCH  11  12
ATOM     12  C   UNL     1      -1.685   1.364  24.375  0.00  0.00    +0.093 C 
BRANCH  12  13
ATOM     13  C   UNL     1      -1.369   1.901  24.917  0.00  0.00    +0.242 C 
ATOM     14  O   UNL     1      -1.255   1.676  25.702  0.00  0.00    -0.273 OA
ATOM     15  N   UNL     1      -1.168   2.662  24.673  0.00  0.00    -0.201 NA
BRANCH  15  16
ATOM     16  C   UNL     1      -0.853   3.199  25.214  0.00  0.00    +0.141 C 
BRANCH  16  17
ATOM     17  C   UNL     1      -0.867   4.008  25.049  0.00  0.00    -0.001 A 
ATOM     18  C   UNL     1      -1.413   4.496  25.429  0.00  0.00    -0.003 A 
ATOM     19  C   UNL     1      -1.427   5.304  25.264  0.00  0.00    -0.000 A 
ATOM     20  C   UNL     1      -0.896   5.624  24.721  0.00  0.00    -0.000 A 
ATOM     21  C   UNL     1      -0.350   5.136  24.342  0.00  0.00    -0.000 A 
ATOM     22  C   UNL     1      -0.336   4.327  24.506  0.00  0.00    -0.003 A 
ENDBRANCH  16  17
ENDBRANCH  15  16
ENDBRANCH  12  13
ENDBRANCH  11  12
TORSDOF 6
ENDMDL
