REMARK  Name = 
REMARK  3 active torsions:
REMARK  status: ('A' for Active; 'I' for Inactive)
REMARK    1  A    between atoms: C_9  and  N_10
REMARK    2  A    between atoms: C_14  and  S_15
REMARK    3  A    between atoms: S_15  and  C_16
REMARK                            x       y       z     vdW  Elec       q    Type
REMARK                         _______ _______ _______ _____ _____    ______ ____
ROOT
ATOM     10  N   UNL     1       1.824  -2.119   0.000  0.00  0.00    -0.205 N 
ATOM     11  N   UNL     1       2.609  -2.374   0.000  0.00  0.00    -0.042 NA
ATOM     12  N   UNL     1       2.609  -3.199   0.000  0.00  0.00    -0.022 NA
ATOM     13  N   UNL     1       1.824  -3.454   0.000  0.00  0.00    -0.101 NA
ATOM     14  C   UNL     1       1.339  -2.787   0.000  0.00  0.00    +0.211 A 
ENDROOT
BRANCH  10   9
ATOM      1  O   UNL     1      -0.255   0.785   0.000  0.00  0.00    -0.218 OA
ATOM      2  C   UNL     1       0.000   0.000   0.000  0.00  0.00    +0.211 C 
ATOM      3  C   UNL     1      -0.485  -0.667   0.000  0.00  0.00    +0.178 C 
ATOM      4  O   UNL     1       0.000  -1.335   0.000  0.00  0.00    -0.349 OA
ATOM      5  C   UNL     1       0.785  -1.080   0.000  0.00  0.00    +0.170 C 
ATOM      6  C   UNL     1       0.785  -0.255   0.000  0.00  0.00    +0.177 C 
ATOM      7  O   UNL     1       1.569   0.000   0.000  0.00  0.00    -0.349 OA
ATOM      8  C   UNL     1       2.054  -0.667   0.000  0.00  0.00    +0.169 C 
ATOM      9  C   UNL     1       1.569  -1.335   0.000  0.00  0.00    +0.168 C 
ENDBRANCH  10   9
BRANCH  14  15
ATOM     15  S   UNL     1       0.514  -2.787   0.000  0.00  0.00    -0.075 S 
BRANCH  15  16
ATOM     16  C   UNL     1       0.102  -3.501   0.000  0.00  0.00    +0.055 C 
ATOM     17  C   UNL     1       0.437  -4.255   0.000  0.00  0.00    +0.011 C 
ATOM     18  C   UNL     1      -0.176  -4.807   0.000  0.00  0.00    +0.001 C 
ATOM     19  C   UNL     1      -0.890  -4.395   0.000  0.00  0.00    +0.001 C 
ATOM     20  C   UNL     1      -0.719  -3.588   0.000  0.00  0.00    +0.011 C 
ENDBRANCH  15  16
ENDBRANCH  14  15
TORSDOF 3
