MODEL 1
REMARK VINA RESULT:     -10.3      0.000      0.000
REMARK  Name = 
REMARK  4 active torsions:
REMARK  status: ('A' for Active; 'I' for Inactive)
REMARK    1  A    between atoms: C_4  and  C_25
REMARK    2  A    between atoms: C_6  and  C_7
REMARK    3  A    between atoms: C_14  and  C_15
REMARK    4  A    between atoms: C_15  and  N_16
REMARK                            x       y       z     vdW  Elec       q    Type
REMARK                         _______ _______ _______ _____ _____    ______ ____
ROOT
ATOM      7  C   UNL     1      -0.782   1.408  25.266  0.00  0.00    +0.056 C 
ATOM      8  C   UNL     1      -1.209   0.965  25.744  0.00  0.00    +0.078 C 
ATOM      9  N   UNL     1      -0.825   0.713  25.057  0.00  0.00    -0.272 NA
ATOM     10  C   UNL     1      -0.342   1.549  24.648  0.00  0.00    +0.072 C 
ATOM     11  C   UNL     1       0.031   1.819  24.185  0.00  0.00    +0.018 C 
ATOM     12  C   UNL     1      -0.409   1.153  24.595  0.00  0.00    +0.010 C 
ATOM     13  C   UNL     1      -0.361   0.365  24.211  0.00  0.00    +0.018 C 
ATOM     14  C   UNL     1      -0.771  -0.103  24.653  0.00  0.00    +0.079 C 
ENDROOT
BRANCH   7   6
ATOM      1  C   UNL     1       0.164   2.072  26.640  0.00  0.00    +0.153 C 
ATOM      2  N   UNL     1      -0.269   2.511  26.093  0.00  0.00    -0.253 N 
ATOM      3  N   UNL     1      -0.343   3.333  26.080  0.00  0.00    -0.166 NA
ATOM      4  C   UNL     1      -0.824   3.536  25.442  0.00  0.00    +0.136 A 
ATOM      5  C   UNL     1      -1.047   2.840  25.059  0.00  0.00    +0.038 A 
ATOM      6  C   UNL     1      -0.704   2.207  25.462  0.00  0.00    +0.058 A 
BRANCH   4  25
ATOM     25  C   UNL     1      -1.043   4.301  25.224  0.00  0.00    +0.165 A 
ATOM     26  C   UNL     1      -1.767   4.663  25.385  0.00  0.00    +0.042 A 
ATOM     27  C   UNL     1      -1.747   5.424  25.067  0.00  0.00    +0.044 A 
ATOM     28  C   UNL     1      -1.012   5.532  24.710  0.00  0.00    +0.180 A 
ATOM     29  O   UNL     1      -0.576   4.839  24.807  0.00  0.00    -0.449 OA
ENDBRANCH   4  25
ENDBRANCH   7   6
BRANCH  14  15
ATOM     15  C   UNL     1      -1.019  -0.886  24.723  0.00  0.00    +0.133 C 
BRANCH  15  16
ATOM     16  N   UNL     1      -1.795  -1.093  24.533  0.00  0.00    -0.187 NA
ATOM     17  C   UNL     1      -2.036  -1.880  24.582  0.00  0.00    +0.323 C 
ATOM     18  O   UNL     1      -1.501  -2.461  24.822  0.00  0.00    -0.251 OA
ATOM     19  N   UNL     1      -2.811  -2.086  24.392  0.00  0.00    -0.258 N 
ATOM     20  C   UNL     1      -3.053  -2.874  24.441  0.00  0.00    +0.127 C 
ATOM     21  C   UNL     1      -3.829  -3.080  24.251  0.00  0.00    +0.164 C 
ATOM     22  O   UNL     1      -4.363  -2.499  24.011  0.00  0.00    -0.350 OA
ATOM     23  C   UNL     1      -4.121  -1.712  23.962  0.00  0.00    +0.164 C 
ATOM     24  C   UNL     1      -3.347  -1.505  24.152  0.00  0.00    +0.127 C 
ENDBRANCH  15  16
ENDBRANCH  14  15
TORSDOF 4
ENDMDL
MODEL 2
REMARK VINA RESULT:     -10.2      1.964      2.559
REMARK  Name = 
REMARK  4 active torsions:
REMARK  status: ('A' for Active; 'I' for Inactive)
REMARK    1  A    between atoms: C_4  and  C_25
REMARK    2  A    between atoms: C_6  and  C_7
REMARK    3  A    between atoms: C_14  and  C_15
REMARK    4  A    between atoms: C_15  and  N_16
REMARK                            x       y       z     vdW  Elec       q    Type
REMARK                         _______ _______ _______ _____ _____    ______ ____
ROOT
ATOM      7  C   UNL     1      -3.465   2.215  24.806  0.00  0.00    +0.056 C 
ATOM      8  C   UNL     1      -3.566   1.700  25.381  0.00  0.00    +0.078 C 
ATOM      9  N   UNL     1      -3.701   1.566  24.578  0.00  0.00    -0.272 NA
ATOM     10  C   UNL     1      -3.472   2.456  24.072  0.00  0.00    +0.072 C 
ATOM     11  C   UNL     1      -3.425   2.798  23.518  0.00  0.00    +0.018 C 
ATOM     12  C   UNL     1      -3.601   2.076  24.020  0.00  0.00    +0.010 C 
ATOM     13  C   UNL     1      -3.880   1.365  23.588  0.00  0.00    +0.018 C 
ATOM     14  C   UNL     1      -3.992   0.831  24.122  0.00  0.00    +0.079 C 
ENDROOT
BRANCH   7   6
ATOM      1  C   UNL     1      -4.371   3.428  25.773  0.00  0.00    +0.153 C 
ATOM      2  N   UNL     1      -3.614   3.525  25.459  0.00  0.00    -0.253 N 
ATOM      3  N   UNL     1      -3.140   4.196  25.534  0.00  0.00    -0.166 NA
ATOM      4  C   UNL     1      -2.431   4.054  25.137  0.00  0.00    +0.136 A 
ATOM      5  C   UNL     1      -2.467   3.295  24.816  0.00  0.00    +0.038 A 
ATOM      6  C   UNL     1      -3.197   2.968  25.015  0.00  0.00    +0.058 A 
BRANCH   4  25
ATOM     25  C   UNL     1      -1.798   4.579  25.072  0.00  0.00    +0.165 A 
ATOM     26  C   UNL     1      -0.999   4.377  25.061  0.00  0.00    +0.042 A 
ATOM     27  C   UNL     1      -0.561   5.072  24.989  0.00  0.00    +0.044 A 
ATOM     28  C   UNL     1      -1.090   5.704  24.956  0.00  0.00    +0.180 A 
ATOM     29  O   UNL     1      -1.855   5.400  25.007  0.00  0.00    -0.449 OA
ENDBRANCH   4  25
ENDBRANCH   7   6
BRANCH  14  15
ATOM     15  C   UNL     1      -4.233   0.049  24.226  0.00  0.00    +0.133 C 
BRANCH  15  16
ATOM     16  N   UNL     1      -3.671  -0.548  24.316  0.00  0.00    -0.187 NA
ATOM     17  C   UNL     1      -3.899  -1.339  24.267  0.00  0.00    +0.323 C 
ATOM     18  O   UNL     1      -4.688  -1.533  24.128  0.00  0.00    -0.251 OA
ATOM     19  N   UNL     1      -3.337  -1.936  24.356  0.00  0.00    -0.258 N 
ATOM     20  C   UNL     1      -3.564  -2.728  24.307  0.00  0.00    +0.127 C 
ATOM     21  C   UNL     1      -3.002  -3.325  24.397  0.00  0.00    +0.164 C 
ATOM     22  O   UNL     1      -2.212  -3.131  24.536  0.00  0.00    -0.350 OA
ATOM     23  C   UNL     1      -1.985  -2.339  24.585  0.00  0.00    +0.164 C 
ATOM     24  C   UNL     1      -2.546  -1.742  24.495  0.00  0.00    +0.127 C 
ENDBRANCH  15  16
ENDBRANCH  14  15
TORSDOF 4
ENDMDL
MODEL 3
REMARK VINA RESULT:      -9.5      0.866      5.661
REMARK  Name = 
REMARK  4 active torsions:
REMARK  status: ('A' for Active; 'I' for Inactive)
REMARK    1  A    between atoms: C_4  and  C_25
REMARK    2  A    between atoms: C_6  and  C_7
REMARK    3  A    between atoms: C_14  and  C_15
REMARK    4  A    between atoms: C_15  and  N_16
REMARK                            x       y       z     vdW  Elec       q    Type
REMARK                         _______ _______ _______ _____ _____    ______ ____
ROOT
ATOM      7  C   UNL     1      -1.171  -0.019  24.797  0.00  0.00    +0.056 C 
ATOM      8  C   UNL     1      -0.949   0.425  24.198  0.00  0.00    +0.078 C 
ATOM      9  N   UNL     1      -0.922   0.634  24.996  0.00  0.00    -0.272 NA
ATOM     10  C   UNL     1      -1.290  -0.181  25.542  0.00  0.00    +0.072 C 
ATOM     11  C   UNL     1      -1.443  -0.459  26.113  0.00  0.00    +0.018 C 
ATOM     12  C   UNL     1      -1.141   0.194  25.578  0.00  0.00    +0.010 C 
ATOM     13  C   UNL     1      -0.874   0.927  25.978  0.00  0.00    +0.018 C 
ATOM     14  C   UNL     1      -0.645   1.394  25.418  0.00  0.00    +0.079 C 
ENDROOT
BRANCH   7   6
ATOM      1  C   UNL     1      -0.195  -1.438  24.289  0.00  0.00    +0.153 C 
ATOM      2  N   UNL     1      -1.014  -1.423  24.389  0.00  0.00    -0.253 N 
ATOM      3  N   UNL     1      -1.529  -2.058  24.273  0.00  0.00    -0.166 NA
ATOM      4  C   UNL     1      -2.295  -1.798  24.434  0.00  0.00    +0.136 A 
ATOM      5  C   UNL     1      -2.254  -1.003  24.650  0.00  0.00    +0.038 A 
ATOM      6  C   UNL     1      -1.463  -0.772  24.622  0.00  0.00    +0.058 A 
BRANCH   4  25
ATOM     25  C   UNL     1      -2.981  -2.254  24.387  0.00  0.00    +0.165 A 
ATOM     26  C   UNL     1      -3.680  -2.042  24.004  0.00  0.00    +0.042 A 
ATOM     27  C   UNL     1      -4.219  -2.659  24.096  0.00  0.00    +0.044 A 
ATOM     28  C   UNL     1      -3.853  -3.253  24.536  0.00  0.00    +0.180 A 
ATOM     29  O   UNL     1      -3.088  -3.004  24.716  0.00  0.00    -0.449 OA
ENDBRANCH   4  25
ENDBRANCH   7   6
BRANCH  14  15
ATOM     15  C   UNL     1      -0.332   2.144  25.279  0.00  0.00    +0.133 C 
BRANCH  15  16
ATOM     16  N   UNL     1      -0.812   2.811  25.348  0.00  0.00    -0.187 NA
ATOM     17  C   UNL     1      -0.548   3.540  25.065  0.00  0.00    +0.323 C 
ATOM     18  O   UNL     1       0.196   3.602  24.714  0.00  0.00    -0.251 OA
ATOM     19  N   UNL     1      -1.028   4.207  25.134  0.00  0.00    -0.258 N 
ATOM     20  C   UNL     1      -0.765   4.936  24.852  0.00  0.00    +0.127 C 
ATOM     21  C   UNL     1      -1.245   5.604  24.921  0.00  0.00    +0.164 C 
ATOM     22  O   UNL     1      -1.989   5.542  25.272  0.00  0.00    -0.350 OA
ATOM     23  C   UNL     1      -2.252   4.813  25.554  0.00  0.00    +0.164 C 
ATOM     24  C   UNL     1      -1.773   4.146  25.486  0.00  0.00    +0.127 C 
ENDBRANCH  15  16
ENDBRANCH  14  15
TORSDOF 4
ENDMDL
MODEL 4
REMARK VINA RESULT:      -9.0      3.085      4.451
REMARK  Name = 
REMARK  4 active torsions:
REMARK  status: ('A' for Active; 'I' for Inactive)
REMARK    1  A    between atoms: C_4  and  C_25
REMARK    2  A    between atoms: C_6  and  C_7
REMARK    3  A    between atoms: C_14  and  C_15
REMARK    4  A    between atoms: C_15  and  N_16
REMARK                            x       y       z     vdW  Elec       q    Type
REMARK                         _______ _______ _______ _____ _____    ______ ____
ROOT
ATOM      7  C   UNL     1      -2.192   1.422  23.956  0.00  0.00    +0.056 C 
ATOM      8  C   UNL     1      -2.145   0.903  23.378  0.00  0.00    +0.078 C 
ATOM      9  N   UNL     1      -1.544   1.097  23.910  0.00  0.00    -0.272 NA
ATOM     10  C   UNL     1      -1.928   1.826  24.559  0.00  0.00    +0.072 C 
ATOM     11  C   UNL     1      -1.854   2.230  25.066  0.00  0.00    +0.018 C 
ATOM     12  C   UNL     1      -1.599   1.607  24.474  0.00  0.00    +0.010 C 
ATOM     13  C   UNL     1      -0.776   1.312  24.555  0.00  0.00    +0.018 C 
ATOM     14  C   UNL     1      -0.688   0.795  24.000  0.00  0.00    +0.079 C 
ENDROOT
BRANCH   7   6
ATOM      1  C   UNL     1      -2.915   2.583  22.791  0.00  0.00    +0.153 C 
ATOM      2  N   UNL     1      -3.242   2.353  23.513  0.00  0.00    -0.253 N 
ATOM      3  N   UNL     1      -3.959   2.615  23.827  0.00  0.00    -0.166 NA
ATOM      4  C   UNL     1      -4.070   2.245  24.555  0.00  0.00    +0.136 A 
ATOM      5  C   UNL     1      -3.422   1.753  24.692  0.00  0.00    +0.038 A 
ATOM      6  C   UNL     1      -2.911   1.820  24.048  0.00  0.00    +0.058 A 
BRANCH   4  25
ATOM     25  C   UNL     1      -4.716   2.348  25.058  0.00  0.00    +0.165 A 
ATOM     26  C   UNL     1      -5.323   1.805  25.186  0.00  0.00    +0.042 A 
ATOM     27  C   UNL     1      -5.850   2.135  25.728  0.00  0.00    +0.044 A 
ATOM     28  C   UNL     1      -5.568   2.882  25.936  0.00  0.00    +0.180 A 
ATOM     29  O   UNL     1      -4.867   3.014  25.522  0.00  0.00    -0.449 OA
ENDBRANCH   4  25
ENDBRANCH   7   6
BRANCH  14  15
ATOM     15  C   UNL     1      -0.140   0.272  23.675  0.00  0.00    +0.133 C 
BRANCH  15  16
ATOM     16  N   UNL     1       0.630   0.524  23.520  0.00  0.00    -0.187 NA
ATOM     17  C   UNL     1       1.127   0.064  23.049  0.00  0.00    +0.323 C 
ATOM     18  O   UNL     1       0.854  -0.647  22.732  0.00  0.00    -0.251 OA
ATOM     19  N   UNL     1       1.897   0.315  22.894  0.00  0.00    -0.258 N 
ATOM     20  C   UNL     1       2.395  -0.144  22.423  0.00  0.00    +0.127 C 
ATOM     21  C   UNL     1       3.165   0.107  22.268  0.00  0.00    +0.164 C 
ATOM     22  O   UNL     1       3.438   0.819  22.585  0.00  0.00    -0.350 OA
ATOM     23  C   UNL     1       2.941   1.278  23.056  0.00  0.00    +0.164 C 
ATOM     24  C   UNL     1       2.171   1.027  23.211  0.00  0.00    +0.127 C 
ENDBRANCH  15  16
ENDBRANCH  14  15
TORSDOF 4
ENDMDL
MODEL 5
REMARK VINA RESULT:      -8.7      2.716      4.465
REMARK  Name = 
REMARK  4 active torsions:
REMARK  status: ('A' for Active; 'I' for Inactive)
REMARK    1  A    between atoms: C_4  and  C_25
REMARK    2  A    between atoms: C_6  and  C_7
REMARK    3  A    between atoms: C_14  and  C_15
REMARK    4  A    between atoms: C_15  and  N_16
REMARK                            x       y       z     vdW  Elec       q    Type
REMARK                         _______ _______ _______ _____ _____    ______ ____
ROOT
ATOM      7  C   UNL     1      -0.916   1.460  24.134  0.00  0.00    +0.056 C 
ATOM      8  C   UNL     1      -1.598   1.480  23.760  0.00  0.00    +0.078 C 
ATOM      9  N   UNL     1      -1.364   1.978  24.377  0.00  0.00    -0.272 NA
ATOM     10  C   UNL     1      -0.396   1.690  24.657  0.00  0.00    +0.072 C 
ATOM     11  C   UNL     1       0.132   1.765  25.034  0.00  0.00    +0.018 C 
ATOM     12  C   UNL     1      -0.694   1.951  24.738  0.00  0.00    +0.010 C 
ATOM     13  C   UNL     1      -1.107   2.613  25.140  0.00  0.00    +0.018 C 
ATOM     14  C   UNL     1      -1.789   2.666  24.799  0.00  0.00    +0.079 C 
ENDROOT
BRANCH   7   6
ATOM      1  C   UNL     1      -1.009  -0.299  24.482  0.00  0.00    +0.153 C 
ATOM      2  N   UNL     1      -0.414   0.079  24.055  0.00  0.00    -0.253 N 
ATOM      3  N   UNL     1       0.243  -0.283  23.712  0.00  0.00    -0.166 NA
ATOM      4  C   UNL     1       0.692   0.300  23.340  0.00  0.00    +0.136 A 
ATOM      5  C   UNL     1       0.313   1.024  23.453  0.00  0.00    +0.038 A 
ATOM      6  C   UNL     1      -0.370   0.887  23.894  0.00  0.00    +0.058 A 
BRANCH   4  25
ATOM     25  C   UNL     1       1.396   0.180  22.927  0.00  0.00    +0.165 A 
ATOM     26  C   UNL     1       1.475  -0.208  22.204  0.00  0.00    +0.042 A 
ATOM     27  C   UNL     1       2.274  -0.200  21.996  0.00  0.00    +0.044 A 
ATOM     28  C   UNL     1       2.688   0.193  22.591  0.00  0.00    +0.180 A 
ATOM     29  O   UNL     1       2.146   0.428  23.167  0.00  0.00    -0.449 OA
ENDBRANCH   4  25
ENDBRANCH   7   6
BRANCH  14  15
ATOM     15  C   UNL     1      -2.493   3.095  24.808  0.00  0.00    +0.133 C 
BRANCH  15  16
ATOM     16  N   UNL     1      -3.207   2.712  24.960  0.00  0.00    -0.187 NA
ATOM     17  C   UNL     1      -3.880   3.153  25.143  0.00  0.00    +0.323 C 
ATOM     18  O   UNL     1      -3.838   3.977  25.174  0.00  0.00    -0.251 OA
ATOM     19  N   UNL     1      -4.595   2.770  25.295  0.00  0.00    -0.258 N 
ATOM     20  C   UNL     1      -5.268   3.211  25.478  0.00  0.00    +0.127 C 
ATOM     21  C   UNL     1      -5.983   2.828  25.630  0.00  0.00    +0.164 C 
ATOM     22  O   UNL     1      -6.025   2.005  25.598  0.00  0.00    -0.350 OA
ATOM     23  C   UNL     1      -5.351   1.564  25.415  0.00  0.00    +0.164 C 
ATOM     24  C   UNL     1      -4.637   1.947  25.263  0.00  0.00    +0.127 C 
ENDBRANCH  15  16
ENDBRANCH  14  15
TORSDOF 4
ENDMDL
MODEL 6
REMARK VINA RESULT:      -8.7      1.824      6.054
REMARK  Name = 
REMARK  4 active torsions:
REMARK  status: ('A' for Active; 'I' for Inactive)
REMARK    1  A    between atoms: C_4  and  C_25
REMARK    2  A    between atoms: C_6  and  C_7
REMARK    3  A    between atoms: C_14  and  C_15
REMARK    4  A    between atoms: C_15  and  N_16
REMARK                            x       y       z     vdW  Elec       q    Type
REMARK                         _______ _______ _______ _____ _____    ______ ____
ROOT
ATOM      7  C   UNL     1      -3.355   0.618  24.621  0.00  0.00    +0.056 C 
ATOM      8  C   UNL     1      -2.820   1.062  24.272  0.00  0.00    +0.078 C 
ATOM      9  N   UNL     1      -3.514   1.328  24.632  0.00  0.00    -0.272 NA
ATOM     10  C   UNL     1      -4.012   0.483  25.004  0.00  0.00    +0.072 C 
ATOM     11  C   UNL     1      -4.519   0.215  25.317  0.00  0.00    +0.018 C 
ATOM     12  C   UNL     1      -4.034   0.886  24.972  0.00  0.00    +0.010 C 
ATOM     13  C   UNL     1      -4.367   1.692  25.071  0.00  0.00    +0.018 C 
ATOM     14  C   UNL     1      -3.866   2.163  24.738  0.00  0.00    +0.079 C 
ENDROOT
BRANCH   7   6
ATOM      1  C   UNL     1      -1.927  -0.204  25.334  0.00  0.00    +0.153 C 
ATOM      2  N   UNL     1      -2.564  -0.574  24.962  0.00  0.00    -0.253 N 
ATOM      3  N   UNL     1      -2.657  -1.386  24.852  0.00  0.00    -0.166 NA
ATOM      4  C   UNL     1      -3.370  -1.511  24.457  0.00  0.00    +0.136 A 
ATOM      5  C   UNL     1      -3.718  -0.775  24.322  0.00  0.00    +0.038 A 
ATOM      6  C   UNL     1      -3.220  -0.197  24.634  0.00  0.00    +0.058 A 
BRANCH   4  25
ATOM     25  C   UNL     1      -3.679  -2.242  24.235  0.00  0.00    +0.165 A 
ATOM     26  C   UNL     1      -3.513  -2.968  24.590  0.00  0.00    +0.042 A 
ATOM     27  C   UNL     1      -3.941  -3.551  24.193  0.00  0.00    +0.044 A 
ATOM     28  C   UNL     1      -4.372  -3.185  23.593  0.00  0.00    +0.180 A 
ATOM     29  O   UNL     1      -4.211  -2.377  23.618  0.00  0.00    -0.449 OA
ENDBRANCH   4  25
ENDBRANCH   7   6
BRANCH  14  15
ATOM     15  C   UNL     1      -3.726   2.958  24.573  0.00  0.00    +0.133 C 
BRANCH  15  16
ATOM     16  N   UNL     1      -2.979   3.283  24.706  0.00  0.00    -0.187 NA
ATOM     17  C   UNL     1      -2.886   4.101  24.743  0.00  0.00    +0.323 C 
ATOM     18  O   UNL     1      -3.539   4.596  24.648  0.00  0.00    -0.251 OA
ATOM     19  N   UNL     1      -2.139   4.426  24.876  0.00  0.00    -0.258 N 
ATOM     20  C   UNL     1      -2.046   5.245  24.914  0.00  0.00    +0.127 C 
ATOM     21  C   UNL     1      -1.299   5.569  25.047  0.00  0.00    +0.164 C 
ATOM     22  O   UNL     1      -0.646   5.075  25.143  0.00  0.00    -0.350 OA
ATOM     23  C   UNL     1      -0.739   4.256  25.105  0.00  0.00    +0.164 C 
ATOM     24  C   UNL     1      -1.485   3.932  24.972  0.00  0.00    +0.127 C 
ENDBRANCH  15  16
ENDBRANCH  14  15
TORSDOF 4
ENDMDL
MODEL 7
REMARK VINA RESULT:      -8.7      3.210      5.194
REMARK  Name = 
REMARK  4 active torsions:
REMARK  status: ('A' for Active; 'I' for Inactive)
REMARK    1  A    between atoms: C_4  and  C_25
REMARK    2  A    between atoms: C_6  and  C_7
REMARK    3  A    between atoms: C_14  and  C_15
REMARK    4  A    between atoms: C_15  and  N_16
REMARK                            x       y       z     vdW  Elec       q    Type
REMARK                         _______ _______ _______ _____ _____    ______ ____
ROOT
ATOM      7  C   UNL     1      -0.222   0.556  23.988  0.00  0.00    +0.056 C 
ATOM      8  C   UNL     1       0.160   1.196  23.763  0.00  0.00    +0.078 C 
ATOM      9  N   UNL     1       0.395   0.416  23.632  0.00  0.00    -0.272 NA
ATOM     10  C   UNL     1      -0.334  -0.204  24.058  0.00  0.00    +0.072 C 
ATOM     11  C   UNL     1      -0.564  -0.801  24.195  0.00  0.00    +0.018 C 
ATOM     12  C   UNL     1       0.016  -0.206  23.856  0.00  0.00    +0.010 C 
ATOM     13  C   UNL     1       0.719  -0.541  23.451  0.00  0.00    +0.018 C 
ATOM     14  C   UNL     1       1.124   0.061  23.213  0.00  0.00    +0.079 C 
ENDROOT
BRANCH   7   6
ATOM      1  C   UNL     1      -0.434   1.494  25.505  0.00  0.00    +0.153 C 
ATOM      2  N   UNL     1      -1.028   1.095  25.095  0.00  0.00    -0.253 N 
ATOM      3  N   UNL     1      -1.824   1.056  25.309  0.00  0.00    -0.166 NA
ATOM      4  C   UNL     1      -2.219   0.602  24.745  0.00  0.00    +0.136 A 
ATOM      5  C   UNL     1      -1.667   0.360  24.182  0.00  0.00    +0.038 A 
ATOM      6  C   UNL     1      -0.931   0.664  24.398  0.00  0.00    +0.058 A 
BRANCH   4  25
ATOM     25  C   UNL     1      -3.024   0.422  24.744  0.00  0.00    +0.165 A 
ATOM     26  C   UNL     1      -3.616   0.849  24.361  0.00  0.00    +0.042 A 
ATOM     27  C   UNL     1      -4.336   0.474  24.507  0.00  0.00    +0.044 A 
ATOM     28  C   UNL     1      -4.188  -0.185  24.981  0.00  0.00    +0.180 A 
ATOM     29  O   UNL     1      -3.378  -0.218  25.128  0.00  0.00    -0.449 OA
ENDBRANCH   4  25
ENDBRANCH   7   6
BRANCH  14  15
ATOM     15  C   UNL     1       1.814   0.267  22.812  0.00  0.00    +0.133 C 
BRANCH  15  16
ATOM     16  N   UNL     1       2.543  -0.027  23.065  0.00  0.00    -0.187 NA
ATOM     17  C   UNL     1       3.238   0.372  22.872  0.00  0.00    +0.323 C 
ATOM     18  O   UNL     1       3.206   1.066  22.426  0.00  0.00    -0.251 OA
ATOM     19  N   UNL     1       3.966   0.078  23.124  0.00  0.00    -0.258 N 
ATOM     20  C   UNL     1       4.662   0.477  22.931  0.00  0.00    +0.127 C 
ATOM     21  C   UNL     1       5.390   0.183  23.184  0.00  0.00    +0.164 C 
ATOM     22  O   UNL     1       5.422  -0.511  23.629  0.00  0.00    -0.350 OA
ATOM     23  C   UNL     1       4.726  -0.910  23.822  0.00  0.00    +0.164 C 
ATOM     24  C   UNL     1       3.999  -0.616  23.570  0.00  0.00    +0.127 C 
ENDBRANCH  15  16
ENDBRANCH  14  15
TORSDOF 4
ENDMDL
