MODEL 1
REMARK VINA RESULT:     -12.2      0.000      0.000
REMARK  Name = 
REMARK  5 active torsions:
REMARK  status: ('A' for Active; 'I' for Inactive)
REMARK    1  A    between atoms: O_2  and  C_3
REMARK    2  A    between atoms: C_5  and  C_9
REMARK    3  A    between atoms: N_11  and  C_12
REMARK    4  A    between atoms: C_18  and  C_19
REMARK    5  A    between atoms: C_22  and  N_25
REMARK                            x       y       z     vdW  Elec       q    Type
REMARK                         _______ _______ _______ _____ _____    ______ ____
ROOT
ATOM     12  C   UNL     1      -4.317   2.254  24.921  0.00  0.00    +0.133 C 
ATOM     13  C   UNL     1      -4.988   2.729  24.991  0.00  0.00    +0.202 C 
ATOM     14  O   UNL     1      -4.995   3.553  25.041  0.00  0.00    -0.219 OA
ATOM     15  C   UNL     1      -5.650   2.236  25.002  0.00  0.00    +0.184 C 
ATOM     16  O   UNL     1      -6.435   2.481  25.065  0.00  0.00    -0.220 OA
ATOM     17  C   UNL     1      -5.388   1.456  24.939  0.00  0.00    +0.042 C 
ATOM     18  C   UNL     1      -4.564   1.467  24.888  0.00  0.00    +0.049 C 
ENDROOT
BRANCH  18  19
ATOM     19  C   UNL     1      -4.074   0.807  24.818  0.00  0.00    -0.001 A 
ATOM     20  C   UNL     1      -3.970   0.300  25.462  0.00  0.00    +0.000 A 
ATOM     21  C   UNL     1      -3.480  -0.359  25.392  0.00  0.00    +0.034 A 
ATOM     22  C   UNL     1      -3.095  -0.513  24.679  0.00  0.00    +0.132 A 
ATOM     23  N   UNL     1      -3.199  -0.006  24.036  0.00  0.00    -0.229 NA
ATOM     24  C   UNL     1      -3.689   0.654  24.105  0.00  0.00    +0.096 A 
BRANCH  22  25
ATOM     25  N   UNL     1      -2.605  -1.172  24.608  0.00  0.00    -0.288 N 
ATOM     26  C   UNL     1      -2.931  -1.913  24.450  0.00  0.00    +0.124 C 
ATOM     27  C   UNL     1      -2.441  -2.574  24.379  0.00  0.00    +0.164 C 
ATOM     28  O   UNL     1      -1.625  -2.493  24.467  0.00  0.00    -0.350 OA
ATOM     29  C   UNL     1      -1.298  -1.752  24.626  0.00  0.00    +0.164 C 
ATOM     30  C   UNL     1      -1.788  -1.092  24.696  0.00  0.00    +0.124 C 
ENDBRANCH  22  25
ENDBRANCH  18  19
BRANCH  12  11
ATOM      9  C   UNL     1      -3.267   3.075  25.434  0.00  0.00    +0.265 C 
ATOM     10  O   UNL     1      -3.778   3.366  26.012  0.00  0.00    -0.268 OA
ATOM     11  N   UNL     1      -3.537   2.518  24.888  0.00  0.00    -0.200 NA
BRANCH   9   5
ATOM      3  C   UNL     1      -1.117   3.207  25.790  0.00  0.00    +0.139 A 
ATOM      4  C   UNL     1      -1.899   2.942  25.822  0.00  0.00    +0.041 A 
ATOM      5  C   UNL     1      -2.486   3.339  25.402  0.00  0.00    +0.058 A 
ATOM      6  C   UNL     1      -2.294   4.001  24.949  0.00  0.00    +0.005 A 
ATOM      7  C   UNL     1      -1.512   4.265  24.917  0.00  0.00    +0.003 A 
ATOM      8  C   UNL     1      -0.925   3.868  25.337  0.00  0.00    +0.037 A 
BRANCH   3   2
ATOM      1  C   UNL     1       0.042   2.371  25.807  0.00  0.00    +0.252 C 
ATOM      2  O   UNL     1      -0.529   2.809  26.210  0.00  0.00    -0.471 OA
ENDBRANCH   3   2
ENDBRANCH   9   5
ENDBRANCH  12  11
TORSDOF 5
ENDMDL
MODEL 2
REMARK VINA RESULT:     -11.9      1.444      3.443
REMARK  Name = 
REMARK  5 active torsions:
REMARK  status: ('A' for Active; 'I' for Inactive)
REMARK    1  A    between atoms: O_2  and  C_3
REMARK    2  A    between atoms: C_5  and  C_9
REMARK    3  A    between atoms: N_11  and  C_12
REMARK    4  A    between atoms: C_18  and  C_19
REMARK    5  A    between atoms: C_22  and  N_25
REMARK                            x       y       z     vdW  Elec       q    Type
REMARK                         _______ _______ _______ _____ _____    ______ ____
ROOT
ATOM     12  C   UNL     1      -2.040   3.730  25.268  0.00  0.00    +0.133 C 
ATOM     13  C   UNL     1      -1.938   4.548  25.262  0.00  0.00    +0.202 C 
ATOM     14  O   UNL     1      -2.518   5.111  25.430  0.00  0.00    -0.219 OA
ATOM     15  C   UNL     1      -1.153   4.705  25.059  0.00  0.00    +0.184 C 
ATOM     16  O   UNL     1      -0.812   5.453  24.988  0.00  0.00    -0.220 OA
ATOM     17  C   UNL     1      -0.771   3.984  24.940  0.00  0.00    +0.042 C 
ATOM     18  C   UNL     1      -1.319   3.381  25.069  0.00  0.00    +0.049 C 
ENDROOT
BRANCH  18  19
ATOM     19  C   UNL     1      -1.172   2.571  25.009  0.00  0.00    -0.001 A 
ATOM     20  C   UNL     1      -1.010   2.130  25.689  0.00  0.00    +0.000 A 
ATOM     21  C   UNL     1      -0.863   1.321  25.629  0.00  0.00    +0.034 A 
ATOM     22  C   UNL     1      -0.877   0.952  24.891  0.00  0.00    +0.132 A 
ATOM     23  N   UNL     1      -1.038   1.393  24.213  0.00  0.00    -0.229 NA
ATOM     24  C   UNL     1      -1.186   2.203  24.271  0.00  0.00    +0.096 A 
BRANCH  22  25
ATOM     25  N   UNL     1      -0.730   0.143  24.831  0.00  0.00    -0.288 N 
ATOM     26  C   UNL     1      -0.225  -0.142  24.244  0.00  0.00    +0.124 C 
ATOM     27  C   UNL     1      -0.078  -0.952  24.184  0.00  0.00    +0.164 C 
ATOM     28  O   UNL     1      -0.435  -1.477  24.711  0.00  0.00    -0.350 OA
ATOM     29  C   UNL     1      -0.940  -1.192  25.298  0.00  0.00    +0.164 C 
ATOM     30  C   UNL     1      -1.087  -0.382  25.358  0.00  0.00    +0.124 C 
ENDBRANCH  22  25
ENDBRANCH  18  19
BRANCH  12  11
ATOM      9  C   UNL     1      -3.426   3.494  25.016  0.00  0.00    +0.265 C 
ATOM     10  O   UNL     1      -3.412   4.057  24.414  0.00  0.00    -0.268 OA
ATOM     11  N   UNL     1      -2.739   3.330  25.443  0.00  0.00    -0.200 NA
BRANCH   9   5
ATOM      3  C   UNL     1      -4.991   1.971  25.002  0.00  0.00    +0.139 A 
ATOM      4  C   UNL     1      -4.290   2.372  24.828  0.00  0.00    +0.041 A 
ATOM      5  C   UNL     1      -4.126   3.094  25.191  0.00  0.00    +0.058 A 
ATOM      6  C   UNL     1      -4.662   3.416  25.728  0.00  0.00    +0.005 A 
ATOM      7  C   UNL     1      -5.362   3.015  25.903  0.00  0.00    +0.003 A 
ATOM      8  C   UNL     1      -5.526   2.294  25.540  0.00  0.00    +0.037 A 
BRANCH   3   2
ATOM      1  C   UNL     1      -4.757   0.567  24.880  0.00  0.00    +0.252 C 
ATOM      2  O   UNL     1      -5.154   1.249  24.639  0.00  0.00    -0.471 OA
ENDBRANCH   3   2
ENDBRANCH   9   5
ENDBRANCH  12  11
TORSDOF 5
ENDMDL
MODEL 3
REMARK VINA RESULT:     -11.8      1.571      3.944
REMARK  Name = 
REMARK  5 active torsions:
REMARK  status: ('A' for Active; 'I' for Inactive)
REMARK    1  A    between atoms: O_2  and  C_3
REMARK    2  A    between atoms: C_5  and  C_9
REMARK    3  A    between atoms: N_11  and  C_12
REMARK    4  A    between atoms: C_18  and  C_19
REMARK    5  A    between atoms: C_22  and  N_25
REMARK                            x       y       z     vdW  Elec       q    Type
REMARK                         _______ _______ _______ _____ _____    ______ ____
ROOT
ATOM     12  C   UNL     1      -4.378   1.398  24.646  0.00  0.00    +0.133 C 
ATOM     13  C   UNL     1      -5.141   1.655  24.828  0.00  0.00    +0.202 C 
ATOM     14  O   UNL     1      -5.827   1.197  24.796  0.00  0.00    -0.219 OA
ATOM     15  C   UNL     1      -5.097   2.449  25.048  0.00  0.00    +0.184 C 
ATOM     16  O   UNL     1      -5.732   2.925  25.274  0.00  0.00    -0.220 OA
ATOM     17  C   UNL     1      -4.307   2.683  25.002  0.00  0.00    +0.042 C 
ATOM     18  C   UNL     1      -3.863   2.034  24.754  0.00  0.00    +0.049 C 
ENDROOT
BRANCH  18  19
ATOM     19  C   UNL     1      -3.046   2.022  24.634  0.00  0.00    -0.001 A 
ATOM     20  C   UNL     1      -2.742   2.057  23.867  0.00  0.00    +0.000 A 
ATOM     21  C   UNL     1      -1.926   2.045  23.748  0.00  0.00    +0.034 A 
ATOM     22  C   UNL     1      -1.414   1.998  24.394  0.00  0.00    +0.132 A 
ATOM     23  N   UNL     1      -1.720   1.964  25.159  0.00  0.00    -0.229 NA
ATOM     24  C   UNL     1      -2.536   1.975  25.280  0.00  0.00    +0.096 A 
BRANCH  22  25
ATOM     25  N   UNL     1      -0.599   1.987  24.275  0.00  0.00    -0.288 N 
ATOM     26  C   UNL     1      -0.171   2.692  24.285  0.00  0.00    +0.124 C 
ATOM     27  C   UNL     1       0.646   2.680  24.165  0.00  0.00    +0.164 C 
ATOM     28  O   UNL     1       1.034   1.964  24.036  0.00  0.00    -0.350 OA
ATOM     29  C   UNL     1       0.606   1.259  24.025  0.00  0.00    +0.164 C 
ATOM     30  C   UNL     1      -0.210   1.270  24.145  0.00  0.00    +0.124 C 
ENDBRANCH  22  25
ENDBRANCH  18  19
BRANCH  12  11
ATOM      9  C   UNL     1      -4.313  -0.008  24.890  0.00  0.00    +0.265 C 
ATOM     10  O   UNL     1      -4.670   0.104  25.625  0.00  0.00    -0.268 OA
ATOM     11  N   UNL     1      -4.168   0.640  24.401  0.00  0.00    -0.200 NA
BRANCH   9   5
ATOM      3  C   UNL     1      -3.259  -1.915  24.756  0.00  0.00    +0.139 A 
ATOM      4  C   UNL     1      -3.469  -1.155  25.002  0.00  0.00    +0.041 A 
ATOM      5  C   UNL     1      -4.103  -0.767  24.644  0.00  0.00    +0.058 A 
ATOM      6  C   UNL     1      -4.525  -1.136  24.041  0.00  0.00    +0.005 A 
ATOM      7  C   UNL     1      -4.314  -1.896  23.794  0.00  0.00    +0.003 A 
ATOM      8  C   UNL     1      -3.681  -2.284  24.152  0.00  0.00    +0.037 A 
BRANCH   3   2
ATOM      1  C   UNL     1      -1.894  -2.339  24.732  0.00  0.00    +0.252 C 
ATOM      2  O   UNL     1      -2.625  -2.303  25.114  0.00  0.00    -0.471 OA
ENDBRANCH   3   2
ENDBRANCH   9   5
ENDBRANCH  12  11
TORSDOF 5
ENDMDL
MODEL 4
REMARK VINA RESULT:     -11.5      1.227      4.195
REMARK  Name = 
REMARK  5 active torsions:
REMARK  status: ('A' for Active; 'I' for Inactive)
REMARK    1  A    between atoms: O_2  and  C_3
REMARK    2  A    between atoms: C_5  and  C_9
REMARK    3  A    between atoms: N_11  and  C_12
REMARK    4  A    between atoms: C_18  and  C_19
REMARK    5  A    between atoms: C_22  and  N_25
REMARK                            x       y       z     vdW  Elec       q    Type
REMARK                         _______ _______ _______ _____ _____    ______ ____
ROOT
ATOM     12  C   UNL     1      -2.646  -1.312  24.479  0.00  0.00    +0.133 C 
ATOM     13  C   UNL     1      -2.496  -2.122  24.433  0.00  0.00    +0.202 C 
ATOM     14  O   UNL     1      -1.775  -2.471  24.236  0.00  0.00    -0.219 OA
ATOM     15  C   UNL     1      -3.194  -2.522  24.619  0.00  0.00    +0.184 C 
ATOM     16  O   UNL     1      -3.292  -3.340  24.640  0.00  0.00    -0.220 OA
ATOM     17  C   UNL     1      -3.775  -1.959  24.780  0.00  0.00    +0.042 C 
ATOM     18  C   UNL     1      -3.437  -1.211  24.694  0.00  0.00    +0.049 C 
ENDROOT
BRANCH  18  19
ATOM     19  C   UNL     1      -3.822  -0.489  24.802  0.00  0.00    -0.001 A 
ATOM     20  C   UNL     1      -4.022  -0.026  24.149  0.00  0.00    +0.000 A 
ATOM     21  C   UNL     1      -4.406   0.695  24.258  0.00  0.00    +0.034 A 
ATOM     22  C   UNL     1      -4.591   0.954  25.019  0.00  0.00    +0.132 A 
ATOM     23  N   UNL     1      -4.391   0.491  25.672  0.00  0.00    -0.229 NA
ATOM     24  C   UNL     1      -4.006  -0.231  25.564  0.00  0.00    +0.096 A 
BRANCH  22  25
ATOM     25  N   UNL     1      -4.976   1.675  25.128  0.00  0.00    -0.288 N 
ATOM     26  C   UNL     1      -5.792   1.693  25.244  0.00  0.00    +0.124 C 
ATOM     27  C   UNL     1      -6.178   2.415  25.353  0.00  0.00    +0.164 C 
ATOM     28  O   UNL     1      -5.746   3.118  25.346  0.00  0.00    -0.350 OA
ATOM     29  C   UNL     1      -4.930   3.100  25.231  0.00  0.00    +0.164 C 
ATOM     30  C   UNL     1      -4.544   2.378  25.122  0.00  0.00    +0.124 C 
ENDBRANCH  22  25
ENDBRANCH  18  19
BRANCH  12  11
ATOM      9  C   UNL     1      -1.395  -0.683  24.759  0.00  0.00    +0.265 C 
ATOM     10  O   UNL     1      -1.232  -1.261  25.325  0.00  0.00    -0.268 OA
ATOM     11  N   UNL     1      -2.103  -0.710  24.336  0.00  0.00    -0.200 NA
BRANCH   9   5
ATOM      3  C   UNL     1      -0.223   1.141  25.013  0.00  0.00    +0.139 A 
ATOM      4  C   UNL     1      -0.768   0.537  25.156  0.00  0.00    +0.041 A 
ATOM      5  C   UNL     1      -0.850  -0.080  24.616  0.00  0.00    +0.058 A 
ATOM      6  C   UNL     1      -0.390  -0.094  23.932  0.00  0.00    +0.005 A 
ATOM      7  C   UNL     1       0.155   0.510  23.789  0.00  0.00    +0.003 A 
ATOM      8  C   UNL     1       0.238   1.127  24.330  0.00  0.00    +0.037 A 
BRANCH   3   2
ATOM      1  C   UNL     1      -0.375   2.522  25.348  0.00  0.00    +0.252 C 
ATOM      2  O   UNL     1      -0.140   1.758  25.554  0.00  0.00    -0.471 OA
ENDBRANCH   3   2
ENDBRANCH   9   5
ENDBRANCH  12  11
TORSDOF 5
ENDMDL
MODEL 5
REMARK VINA RESULT:     -11.3      1.538      5.151
REMARK  Name = 
REMARK  5 active torsions:
REMARK  status: ('A' for Active; 'I' for Inactive)
REMARK    1  A    between atoms: O_2  and  C_3
REMARK    2  A    between atoms: C_5  and  C_9
REMARK    3  A    between atoms: N_11  and  C_12
REMARK    4  A    between atoms: C_18  and  C_19
REMARK    5  A    between atoms: C_22  and  N_25
REMARK                            x       y       z     vdW  Elec       q    Type
REMARK                         _______ _______ _______ _____ _____    ______ ____
ROOT
ATOM     12  C   UNL     1      -1.259   0.647  24.325  0.00  0.00    +0.133 C 
ATOM     13  C   UNL     1      -0.472   0.504  24.122  0.00  0.00    +0.202 C 
ATOM     14  O   UNL     1      -0.125  -0.237  24.021  0.00  0.00    -0.219 OA
ATOM     15  C   UNL     1      -0.094   1.233  24.038  0.00  0.00    +0.184 C 
ATOM     16  O   UNL     1       0.698   1.348  23.837  0.00  0.00    -0.220 OA
ATOM     17  C   UNL     1      -0.647   1.826  24.188  0.00  0.00    +0.042 C 
ATOM     18  C   UNL     1      -1.367   1.464  24.366  0.00  0.00    +0.049 C 
ENDROOT
BRANCH  18  19
ATOM     19  C   UNL     1      -2.072   1.852  24.552  0.00  0.00    -0.001 A 
ATOM     20  C   UNL     1      -2.678   1.895  23.994  0.00  0.00    +0.000 A 
ATOM     21  C   UNL     1      -3.382   2.282  24.180  0.00  0.00    +0.034 A 
ATOM     22  C   UNL     1      -3.480   2.626  24.924  0.00  0.00    +0.132 A 
ATOM     23  N   UNL     1      -2.874   2.582  25.481  0.00  0.00    -0.229 NA
ATOM     24  C   UNL     1      -2.169   2.195  25.296  0.00  0.00    +0.096 A 
BRANCH  22  25
ATOM     25  N   UNL     1      -4.184   3.013  25.110  0.00  0.00    -0.288 N 
ATOM     26  C   UNL     1      -4.223   3.836  25.077  0.00  0.00    +0.124 C 
ATOM     27  C   UNL     1      -4.927   4.224  25.263  0.00  0.00    +0.164 C 
ATOM     28  O   UNL     1      -5.593   3.788  25.483  0.00  0.00    -0.350 OA
ATOM     29  C   UNL     1      -5.554   2.965  25.516  0.00  0.00    +0.164 C 
ATOM     30  C   UNL     1      -4.850   2.577  25.329  0.00  0.00    +0.124 C 
ENDBRANCH  22  25
ENDBRANCH  18  19
BRANCH  12  11
ATOM      9  C   UNL     1      -1.710  -0.509  25.031  0.00  0.00    +0.265 C 
ATOM     10  O   UNL     1      -1.007  -0.520  25.462  0.00  0.00    -0.268 OA
ATOM     11  N   UNL     1      -1.835   0.075  24.462  0.00  0.00    -0.200 NA
BRANCH   9   5
ATOM      3  C   UNL     1      -3.028  -2.224  24.732  0.00  0.00    +0.139 A 
ATOM      4  C   UNL     1      -2.450  -1.650  24.594  0.00  0.00    +0.041 A 
ATOM      5  C   UNL     1      -2.287  -1.082  25.169  0.00  0.00    +0.058 A 
ATOM      6  C   UNL     1      -2.701  -1.087  25.882  0.00  0.00    +0.005 A 
ATOM      7  C   UNL     1      -3.279  -1.661  26.020  0.00  0.00    +0.003 A 
ATOM      8  C   UNL     1      -3.442  -2.229  25.444  0.00  0.00    +0.037 A 
BRANCH   3   2
ATOM      1  C   UNL     1      -3.955  -2.866  23.854  0.00  0.00    +0.252 C 
ATOM      2  O   UNL     1      -3.190  -2.792  24.155  0.00  0.00    -0.471 OA
ENDBRANCH   3   2
ENDBRANCH   9   5
ENDBRANCH  12  11
TORSDOF 5
ENDMDL
