MODEL 1
REMARK VINA RESULT:     -15.3      0.000      0.000
REMARK  Name = 
REMARK  3 active torsions:
REMARK  status: ('A' for Active; 'I' for Inactive)
REMARK    1  A    between atoms: C_7  and  N_10
REMARK    2  A    between atoms: C_19  and  C_24
REMARK    3  A    between atoms: C_26  and  C_30
REMARK                            x       y       z     vdW  Elec       q    Type
REMARK                         _______ _______ _______ _____ _____    ______ ____
ROOT
ATOM     10  N   UNL     1      -2.670   2.371  24.421  0.00  0.00    -0.273 NA
ATOM     11  C   UNL     1      -2.693   3.194  24.275  0.00  0.00    +0.074 C 
ATOM     12  C   UNL     1      -3.663   3.353  24.378  0.00  0.00    +0.039 C 
ATOM     13  C   UNL     1      -4.421   3.646  24.428  0.00  0.00    +0.011 C 
ATOM     14  C   UNL     1      -4.099   3.026  24.496  0.00  0.00    +0.054 C 
ATOM     15  C   UNL     1      -3.160   2.888  24.394  0.00  0.00    +0.078 C 
ATOM     16  C   UNL     1      -4.269   2.142  24.679  0.00  0.00    +0.041 A 
ATOM     17  C   UNL     1      -4.893   1.633  24.856  0.00  0.00    +0.013 A 
ATOM     18  C   UNL     1      -4.748   0.830  24.981  0.00  0.00    +0.006 A 
ATOM     19  C   UNL     1      -3.978   0.537  24.929  0.00  0.00    +0.056 A 
ATOM     20  C   UNL     1      -3.354   1.046  24.752  0.00  0.00    +0.261 A 
ATOM     21  O   UNL     1      -2.895   0.364  24.813  0.00  0.00    -0.267 OA
ATOM     22  N   UNL     1      -3.499   1.849  24.627  0.00  0.00    -0.299 N 
ATOM     23  C   UNL     1      -3.830   2.427  24.568  0.00  0.00    +0.110 C 
ENDROOT
BRANCH  10   7
ATOM      1  C   UNL     1      -1.143  -0.903  25.535  0.00  0.00    +0.095 C 
ATOM      2  C   UNL     1      -1.406  -0.654  24.794  0.00  0.00    +0.226 C 
ATOM      3  O   UNL     1      -1.354  -1.163  24.146  0.00  0.00    -0.275 OA
ATOM      4  N   UNL     1      -1.722   0.102  24.700  0.00  0.00    -0.279 N 
ATOM      5  C   UNL     1      -1.986   0.350  23.960  0.00  0.00    +0.095 C 
ATOM      6  C   UNL     1      -2.302   1.106  23.866  0.00  0.00    +0.038 C 
ATOM      7  C   UNL     1      -2.354   1.615  24.514  0.00  0.00    +0.061 C 
ATOM      8  C   UNL     1      -2.091   1.367  25.255  0.00  0.00    +0.038 C 
ATOM      9  C   UNL     1      -1.775   0.610  25.349  0.00  0.00    +0.095 C 
ENDBRANCH  10   7
BRANCH  19  24
ATOM     24  C   UNL     1      -3.834  -0.265  25.054  0.00  0.00    +0.005 A 
ATOM     25  C   UNL     1      -4.013  -0.813  24.464  0.00  0.00    +0.010 A 
ATOM     26  C   UNL     1      -3.868  -1.617  24.590  0.00  0.00    +0.068 A 
ATOM     27  C   UNL     1      -3.545  -1.870  25.306  0.00  0.00    +0.010 A 
ATOM     28  C   UNL     1      -3.367  -1.321  25.896  0.00  0.00    +0.001 A 
ATOM     29  C   UNL     1      -3.511  -0.519  25.770  0.00  0.00    +0.000 A 
BRANCH  26  30
ATOM     30  C   UNL     1      -4.046  -2.165  24.001  0.00  0.00    +0.100 C 
ATOM     31  N   UNL     1      -4.225  -2.714  23.411  0.00  0.00    -0.191 NA
ENDBRANCH  26  30
ENDBRANCH  19  24
TORSDOF 3
ENDMDL
MODEL 2
REMARK VINA RESULT:     -15.3      1.114      3.684
REMARK  Name = 
REMARK  3 active torsions:
REMARK  status: ('A' for Active; 'I' for Inactive)
REMARK    1  A    between atoms: C_7  and  N_10
REMARK    2  A    between atoms: C_19  and  C_24
REMARK    3  A    between atoms: C_26  and  C_30
REMARK                            x       y       z     vdW  Elec       q    Type
REMARK                         _______ _______ _______ _____ _____    ______ ____
ROOT
ATOM     10  N   UNL     1      -2.087  -1.410  24.834  0.00  0.00    -0.273 NA
ATOM     11  C   UNL     1      -1.970  -2.230  24.941  0.00  0.00    +0.074 C 
ATOM     12  C   UNL     1      -2.864  -2.560  24.681  0.00  0.00    +0.039 C 
ATOM     13  C   UNL     1      -3.536  -2.986  24.501  0.00  0.00    +0.011 C 
ATOM     14  C   UNL     1      -3.334  -2.313  24.509  0.00  0.00    +0.054 C 
ATOM     15  C   UNL     1      -2.465  -2.010  24.763  0.00  0.00    +0.078 C 
ATOM     16  C   UNL     1      -3.644  -1.466  24.337  0.00  0.00    +0.041 A 
ATOM     17  C   UNL     1      -4.323  -1.071  24.085  0.00  0.00    +0.013 A 
ATOM     18  C   UNL     1      -4.320  -0.249  24.016  0.00  0.00    +0.006 A 
ATOM     19  C   UNL     1      -3.639   0.178  24.199  0.00  0.00    +0.056 A 
ATOM     20  C   UNL     1      -2.960  -0.216  24.451  0.00  0.00    +0.261 A 
ATOM     21  O   UNL     1      -2.638   0.542  24.490  0.00  0.00    -0.267 OA
ATOM     22  N   UNL     1      -2.962  -1.038  24.520  0.00  0.00    -0.299 N 
ATOM     23  C   UNL     1      -3.180  -1.671  24.504  0.00  0.00    +0.110 C 
ENDROOT
BRANCH  10   7
ATOM      1  C   UNL     1      -1.085   2.161  24.101  0.00  0.00    +0.095 C 
ATOM      2  C   UNL     1      -1.396   1.817  24.782  0.00  0.00    +0.226 C 
ATOM      3  O   UNL     1      -1.535   2.279  25.452  0.00  0.00    -0.275 OA
ATOM      4  N   UNL     1      -1.569   1.010  24.796  0.00  0.00    -0.279 N 
ATOM      5  C   UNL     1      -1.880   0.666  25.477  0.00  0.00    +0.095 C 
ATOM      6  C   UNL     1      -2.053  -0.141  25.490  0.00  0.00    +0.038 C 
ATOM      7  C   UNL     1      -1.914  -0.603  24.821  0.00  0.00    +0.061 C 
ATOM      8  C   UNL     1      -1.603  -0.259  24.139  0.00  0.00    +0.038 C 
ATOM      9  C   UNL     1      -1.430   0.548  24.126  0.00  0.00    +0.095 C 
ENDBRANCH  10   7
BRANCH  19  24
ATOM     24  C   UNL     1      -3.637   1.000  24.130  0.00  0.00    +0.005 A 
ATOM     25  C   UNL     1      -4.002   1.464  24.706  0.00  0.00    +0.010 A 
ATOM     26  C   UNL     1      -4.000   2.287  24.636  0.00  0.00    +0.068 A 
ATOM     27  C   UNL     1      -3.632   2.644  23.990  0.00  0.00    +0.010 A 
ATOM     28  C   UNL     1      -3.267   2.180  23.414  0.00  0.00    +0.001 A 
ATOM     29  C   UNL     1      -3.269   1.358  23.484  0.00  0.00    +0.000 A 
BRANCH  26  30
ATOM     30  C   UNL     1      -4.365   2.750  25.212  0.00  0.00    +0.100 C 
ATOM     31  N   UNL     1      -4.730   3.214  25.788  0.00  0.00    -0.191 NA
ENDBRANCH  26  30
ENDBRANCH  19  24
TORSDOF 3
ENDMDL
MODEL 3
REMARK VINA RESULT:     -14.2      1.295      4.058
REMARK  Name = 
REMARK  3 active torsions:
REMARK  status: ('A' for Active; 'I' for Inactive)
REMARK    1  A    between atoms: C_7  and  N_10
REMARK    2  A    between atoms: C_19  and  C_24
REMARK    3  A    between atoms: C_26  and  C_30
REMARK                            x       y       z     vdW  Elec       q    Type
REMARK                         _______ _______ _______ _____ _____    ______ ____
ROOT
ATOM     10  N   UNL     1      -3.869  -0.846  24.358  0.00  0.00    -0.273 NA
ATOM     11  C   UNL     1      -4.365  -1.519  24.358  0.00  0.00    +0.074 C 
ATOM     12  C   UNL     1      -3.693  -2.220  24.537  0.00  0.00    +0.039 C 
ATOM     13  C   UNL     1      -3.272  -2.904  24.677  0.00  0.00    +0.011 C 
ATOM     14  C   UNL     1      -3.141  -2.217  24.619  0.00  0.00    +0.054 C 
ATOM     15  C   UNL     1      -3.803  -1.550  24.446  0.00  0.00    +0.078 C 
ATOM     16  C   UNL     1      -2.453  -1.609  24.654  0.00  0.00    +0.041 A 
ATOM     17  C   UNL     1      -1.638  -1.571  24.772  0.00  0.00    +0.013 A 
ATOM     18  C   UNL     1      -1.251  -0.842  24.749  0.00  0.00    +0.006 A 
ATOM     19  C   UNL     1      -1.681  -0.152  24.607  0.00  0.00    +0.056 A 
ATOM     20  C   UNL     1      -2.496  -0.190  24.490  0.00  0.00    +0.261 A 
ATOM     21  O   UNL     1      -2.435   0.628  24.407  0.00  0.00    -0.267 OA
ATOM     22  N   UNL     1      -2.882  -0.918  24.513  0.00  0.00    -0.299 N 
ATOM     23  C   UNL     1      -2.980  -1.578  24.572  0.00  0.00    +0.110 C 
ENDROOT
BRANCH  10   7
ATOM      1  C   UNL     1      -2.770   2.644  23.406  0.00  0.00    +0.095 C 
ATOM      2  C   UNL     1      -2.983   2.325  24.136  0.00  0.00    +0.226 C 
ATOM      3  O   UNL     1      -2.976   2.800  24.812  0.00  0.00    -0.275 OA
ATOM      4  N   UNL     1      -3.205   1.533  24.192  0.00  0.00    -0.279 N 
ATOM      5  C   UNL     1      -3.418   1.214  24.922  0.00  0.00    +0.095 C 
ATOM      6  C   UNL     1      -3.640   0.421  24.978  0.00  0.00    +0.038 C 
ATOM      7  C   UNL     1      -3.647  -0.053  24.302  0.00  0.00    +0.061 C 
ATOM      8  C   UNL     1      -3.434   0.265  23.572  0.00  0.00    +0.038 C 
ATOM      9  C   UNL     1      -3.212   1.058  23.516  0.00  0.00    +0.095 C 
ENDBRANCH  10   7
BRANCH  19  24
ATOM     24  C   UNL     1      -1.294   0.576  24.584  0.00  0.00    +0.005 A 
ATOM     25  C   UNL     1      -1.069   0.947  25.285  0.00  0.00    +0.010 A 
ATOM     26  C   UNL     1      -0.681   1.676  25.261  0.00  0.00    +0.068 A 
ATOM     27  C   UNL     1      -0.520   2.033  24.535  0.00  0.00    +0.010 A 
ATOM     28  C   UNL     1      -0.745   1.662  23.834  0.00  0.00    +0.001 A 
ATOM     29  C   UNL     1      -1.132   0.934  23.858  0.00  0.00    +0.000 A 
BRANCH  26  30
ATOM     30  C   UNL     1      -0.456   2.047  25.963  0.00  0.00    +0.100 C 
ATOM     31  N   UNL     1      -0.232   2.418  26.664  0.00  0.00    -0.191 NA
ENDBRANCH  26  30
ENDBRANCH  19  24
TORSDOF 3
ENDMDL
MODEL 4
REMARK VINA RESULT:     -14.2      1.518      3.052
REMARK  Name = 
REMARK  3 active torsions:
REMARK  status: ('A' for Active; 'I' for Inactive)
REMARK    1  A    between atoms: C_7  and  N_10
REMARK    2  A    between atoms: C_19  and  C_24
REMARK    3  A    between atoms: C_26  and  C_30
REMARK                            x       y       z     vdW  Elec       q    Type
REMARK                         _______ _______ _______ _____ _____    ______ ____
ROOT
ATOM     10  N   UNL     1      -2.572   4.196  25.171  0.00  0.00    -0.273 NA
ATOM     11  C   UNL     1      -2.161   4.908  25.320  0.00  0.00    +0.074 C 
ATOM     12  C   UNL     1      -1.239   4.610  25.129  0.00  0.00    +0.039 C 
ATOM     13  C   UNL     1      -0.437   4.524  25.012  0.00  0.00    +0.011 C 
ATOM     14  C   UNL     1      -1.013   4.126  24.969  0.00  0.00    +0.054 C 
ATOM     15  C   UNL     1      -1.899   4.429  25.157  0.00  0.00    +0.078 C 
ATOM     16  C   UNL     1      -1.286   3.272  24.765  0.00  0.00    +0.041 A 
ATOM     17  C   UNL     1      -0.983   2.542  24.527  0.00  0.00    +0.013 A 
ATOM     18  C   UNL     1      -1.491   1.903  24.410  0.00  0.00    +0.006 A 
ATOM     19  C   UNL     1      -2.303   1.994  24.530  0.00  0.00    +0.056 A 
ATOM     20  C   UNL     1      -2.606   2.723  24.767  0.00  0.00    +0.261 A 
ATOM     21  O   UNL     1      -3.331   2.332  24.744  0.00  0.00    -0.267 OA
ATOM     22  N   UNL     1      -2.097   3.362  24.885  0.00  0.00    -0.299 N 
ATOM     23  C   UNL     1      -1.533   3.721  24.918  0.00  0.00    +0.110 C 
ENDROOT
BRANCH  10   7
ATOM      1  C   UNL     1      -5.381   1.693  25.551  0.00  0.00    +0.095 C 
ATOM      2  C   UNL     1      -5.115   2.111  24.891  0.00  0.00    +0.226 C 
ATOM      3  O   UNL     1      -5.485   2.007  24.161  0.00  0.00    -0.275 OA
ATOM      4  N   UNL     1      -4.480   2.632  24.961  0.00  0.00    -0.279 N 
ATOM      5  C   UNL     1      -4.214   3.050  24.301  0.00  0.00    +0.095 C 
ATOM      6  C   UNL     1      -3.578   3.571  24.371  0.00  0.00    +0.038 C 
ATOM      7  C   UNL     1      -3.208   3.675  25.101  0.00  0.00    +0.061 C 
ATOM      8  C   UNL     1      -3.473   3.257  25.761  0.00  0.00    +0.038 C 
ATOM      9  C   UNL     1      -4.109   2.736  25.691  0.00  0.00    +0.095 C 
ENDBRANCH  10   7
BRANCH  19  24
ATOM     24  C   UNL     1      -2.810   1.355  24.413  0.00  0.00    +0.005 A 
ATOM     25  C   UNL     1      -2.861   0.758  24.980  0.00  0.00    +0.010 A 
ATOM     26  C   UNL     1      -3.369   0.118  24.862  0.00  0.00    +0.068 A 
ATOM     27  C   UNL     1      -3.826   0.076  24.176  0.00  0.00    +0.010 A 
ATOM     28  C   UNL     1      -3.775   0.673  23.609  0.00  0.00    +0.001 A 
ATOM     29  C   UNL     1      -3.267   1.312  23.727  0.00  0.00    +0.000 A 
BRANCH  26  30
ATOM     30  C   UNL     1      -3.420  -0.479  25.429  0.00  0.00    +0.100 C 
ATOM     31  N   UNL     1      -3.470  -1.075  25.996  0.00  0.00    -0.191 NA
ENDBRANCH  26  30
ENDBRANCH  19  24
TORSDOF 3
ENDMDL
MODEL 5
REMARK VINA RESULT:     -14.2      1.807      3.368
REMARK  Name = 
REMARK  3 active torsions:
REMARK  status: ('A' for Active; 'I' for Inactive)
REMARK    1  A    between atoms: C_7  and  N_10
REMARK    2  A    between atoms: C_19  and  C_24
REMARK    3  A    between atoms: C_26  and  C_30
REMARK                            x       y       z     vdW  Elec       q    Type
REMARK                         _______ _______ _______ _____ _____    ______ ____
ROOT
ATOM     10  N   UNL     1      -4.466   1.882  24.719  0.00  0.00    -0.273 NA
ATOM     11  C   UNL     1      -5.297   1.832  24.783  0.00  0.00    +0.074 C 
ATOM     12  C   UNL     1      -5.477   2.673  25.270  0.00  0.00    +0.039 C 
ATOM     13  C   UNL     1      -5.787   3.316  25.662  0.00  0.00    +0.011 C 
ATOM     14  C   UNL     1      -5.155   3.085  25.463  0.00  0.00    +0.054 C 
ATOM     15  C   UNL     1      -4.998   2.269  24.993  0.00  0.00    +0.078 C 
ATOM     16  C   UNL     1      -4.265   3.310  25.489  0.00  0.00    +0.041 A 
ATOM     17  C   UNL     1      -3.762   3.904  25.763  0.00  0.00    +0.013 A 
ATOM     18  C   UNL     1      -2.948   3.845  25.639  0.00  0.00    +0.006 A 
ATOM     19  C   UNL     1      -2.638   3.192  25.242  0.00  0.00    +0.056 A 
ATOM     20  C   UNL     1      -3.140   2.598  24.968  0.00  0.00    +0.261 A 
ATOM     21  O   UNL     1      -2.442   2.252  24.698  0.00  0.00    -0.267 OA
ATOM     22  N   UNL     1      -3.954   2.657  25.092  0.00  0.00    -0.299 N 
ATOM     23  C   UNL     1      -4.545   2.900  25.292  0.00  0.00    +0.110 C 
ENDROOT
BRANCH  10   7
ATOM      1  C   UNL     1      -0.944   0.544  24.401  0.00  0.00    +0.095 C 
ATOM      2  C   UNL     1      -1.385   1.028  23.900  0.00  0.00    +0.226 C 
ATOM      3  O   UNL     1      -1.056   1.299  23.194  0.00  0.00    -0.275 OA
ATOM      4  N   UNL     1      -2.155   1.242  24.104  0.00  0.00    -0.279 N 
ATOM      5  C   UNL     1      -2.596   1.726  23.603  0.00  0.00    +0.095 C 
ATOM      6  C   UNL     1      -3.366   1.940  23.807  0.00  0.00    +0.038 C 
ATOM      7  C   UNL     1      -3.696   1.669  24.514  0.00  0.00    +0.061 C 
ATOM      8  C   UNL     1      -3.255   1.184  25.015  0.00  0.00    +0.038 C 
ATOM      9  C   UNL     1      -2.485   0.970  24.811  0.00  0.00    +0.095 C 
ENDBRANCH  10   7
BRANCH  19  24
ATOM     24  C   UNL     1      -1.824   3.134  25.119  0.00  0.00    +0.005 A 
ATOM     25  C   UNL     1      -1.328   2.905  25.737  0.00  0.00    +0.010 A 
ATOM     26  C   UNL     1      -0.514   2.847  25.613  0.00  0.00    +0.068 A 
ATOM     27  C   UNL     1      -0.197   3.018  24.871  0.00  0.00    +0.010 A 
ATOM     28  C   UNL     1      -0.693   3.247  24.252  0.00  0.00    +0.001 A 
ATOM     29  C   UNL     1      -1.507   3.305  24.377  0.00  0.00    +0.000 A 
BRANCH  26  30
ATOM     30  C   UNL     1      -0.018   2.618  26.231  0.00  0.00    +0.100 C 
ATOM     31  N   UNL     1       0.478   2.390  26.849  0.00  0.00    -0.191 NA
ENDBRANCH  26  30
ENDBRANCH  19  24
TORSDOF 3
ENDMDL
MODEL 6
REMARK VINA RESULT:     -14.0      0.924      2.259
REMARK  Name = 
REMARK  3 active torsions:
REMARK  status: ('A' for Active; 'I' for Inactive)
REMARK    1  A    between atoms: C_7  and  N_10
REMARK    2  A    between atoms: C_19  and  C_24
REMARK    3  A    between atoms: C_26  and  C_30
REMARK                            x       y       z     vdW  Elec       q    Type
REMARK                         _______ _______ _______ _____ _____    ______ ____
ROOT
ATOM     10  N   UNL     1      -4.618   1.319  24.639  0.00  0.00    -0.273 NA
ATOM     11  C   UNL     1      -5.237   1.876  24.565  0.00  0.00    +0.074 C 
ATOM     12  C   UNL     1      -4.731   2.709  24.726  0.00  0.00    +0.039 C 
ATOM     13  C   UNL     1      -4.464   3.471  24.836  0.00  0.00    +0.011 C 
ATOM     14  C   UNL     1      -4.196   2.822  24.836  0.00  0.00    +0.054 C 
ATOM     15  C   UNL     1      -4.699   2.026  24.678  0.00  0.00    +0.078 C 
ATOM     16  C   UNL     1      -3.405   2.369  24.951  0.00  0.00    +0.041 A 
ATOM     17  C   UNL     1      -2.607   2.505  25.113  0.00  0.00    +0.013 A 
ATOM     18  C   UNL     1      -2.083   1.869  25.163  0.00  0.00    +0.006 A 
ATOM     19  C   UNL     1      -2.357   1.099  25.051  0.00  0.00    +0.056 A 
ATOM     20  C   UNL     1      -3.154   0.964  24.889  0.00  0.00    +0.261 A 
ATOM     21  O   UNL     1      -2.927   0.171  24.870  0.00  0.00    -0.267 OA
ATOM     22  N   UNL     1      -3.678   1.599  24.839  0.00  0.00    -0.299 N 
ATOM     23  C   UNL     1      -3.909   2.227  24.844  0.00  0.00    +0.110 C 
ENDROOT
BRANCH  10   7
ATOM      1  C   UNL     1      -3.069  -2.045  25.398  0.00  0.00    +0.095 C 
ATOM      2  C   UNL     1      -3.108  -1.614  24.696  0.00  0.00    +0.226 C 
ATOM      3  O   UNL     1      -2.769  -1.918  24.007  0.00  0.00    -0.275 OA
ATOM      4  N   UNL     1      -3.485  -0.881  24.681  0.00  0.00    -0.279 N 
ATOM      5  C   UNL     1      -3.524  -0.451  23.979  0.00  0.00    +0.095 C 
ATOM      6  C   UNL     1      -3.902   0.282  23.964  0.00  0.00    +0.038 C 
ATOM      7  C   UNL     1      -4.241   0.585  24.653  0.00  0.00    +0.061 C 
ATOM      8  C   UNL     1      -4.202   0.156  25.356  0.00  0.00    +0.038 C 
ATOM      9  C   UNL     1      -3.824  -0.578  25.370  0.00  0.00    +0.095 C 
ENDBRANCH  10   7
BRANCH  19  24
ATOM     24  C   UNL     1      -1.832   0.465  25.101  0.00  0.00    +0.005 A 
ATOM     25  C   UNL     1      -1.298   0.322  24.489  0.00  0.00    +0.010 A 
ATOM     26  C   UNL     1      -0.773  -0.314  24.540  0.00  0.00    +0.068 A 
ATOM     27  C   UNL     1      -0.784  -0.805  25.203  0.00  0.00    +0.010 A 
ATOM     28  C   UNL     1      -1.319  -0.662  25.814  0.00  0.00    +0.001 A 
ATOM     29  C   UNL     1      -1.843  -0.027  25.763  0.00  0.00    +0.000 A 
BRANCH  26  30
ATOM     30  C   UNL     1      -0.238  -0.457  23.928  0.00  0.00    +0.100 C 
ATOM     31  N   UNL     1       0.297  -0.600  23.317  0.00  0.00    -0.191 NA
ENDBRANCH  26  30
ENDBRANCH  19  24
TORSDOF 3
ENDMDL
MODEL 7
REMARK VINA RESULT:     -13.5      1.384      2.054
REMARK  Name = 
REMARK  3 active torsions:
REMARK  status: ('A' for Active; 'I' for Inactive)
REMARK    1  A    between atoms: C_7  and  N_10
REMARK    2  A    between atoms: C_19  and  C_24
REMARK    3  A    between atoms: C_26  and  C_30
REMARK                            x       y       z     vdW  Elec       q    Type
REMARK                         _______ _______ _______ _____ _____    ______ ____
ROOT
ATOM     10  N   UNL     1      -1.028   3.257  25.162  0.00  0.00    -0.273 NA
ATOM     11  C   UNL     1      -0.798   4.038  25.349  0.00  0.00    +0.074 C 
ATOM     12  C   UNL     1      -1.689   4.462  25.411  0.00  0.00    +0.039 C 
ATOM     13  C   UNL     1      -2.334   4.952  25.498  0.00  0.00    +0.011 C 
ATOM     14  C   UNL     1      -2.211   4.277  25.349  0.00  0.00    +0.054 C 
ATOM     15  C   UNL     1      -1.344   3.882  25.293  0.00  0.00    +0.078 C 
ATOM     16  C   UNL     1      -2.646   3.491  25.153  0.00  0.00    +0.041 A 
ATOM     17  C   UNL     1      -3.407   3.188  25.054  0.00  0.00    +0.013 A 
ATOM     18  C   UNL     1      -3.511   2.391  24.869  0.00  0.00    +0.006 A 
ATOM     19  C   UNL     1      -2.856   1.897  24.782  0.00  0.00    +0.056 A 
ATOM     20  C   UNL     1      -2.095   2.201  24.881  0.00  0.00    +0.261 A 
ATOM     21  O   UNL     1      -1.859   1.429  24.714  0.00  0.00    -0.267 OA
ATOM     22  N   UNL     1      -1.990   2.998  25.066  0.00  0.00    -0.299 N 
ATOM     23  C   UNL     1      -2.134   3.636  25.206  0.00  0.00    +0.110 C 
ENDROOT
BRANCH  10   7
ATOM      1  C   UNL     1      -0.660  -0.193  23.659  0.00  0.00    +0.095 C 
ATOM      2  C   UNL     1      -0.729   0.049  24.444  0.00  0.00    +0.226 C 
ATOM      3  O   UNL     1      -0.723  -0.511  25.051  0.00  0.00    -0.275 OA
ATOM      4  N   UNL     1      -0.803   0.851  24.624  0.00  0.00    -0.279 N 
ATOM      5  C   UNL     1      -0.872   1.093  25.409  0.00  0.00    +0.095 C 
ATOM      6  C   UNL     1      -0.947   1.894  25.589  0.00  0.00    +0.038 C 
ATOM      7  C   UNL     1      -0.953   2.454  24.983  0.00  0.00    +0.061 C 
ATOM      8  C   UNL     1      -0.884   2.213  24.197  0.00  0.00    +0.038 C 
ATOM      9  C   UNL     1      -0.809   1.411  24.018  0.00  0.00    +0.095 C 
ENDBRANCH  10   7
BRANCH  19  24
ATOM     24  C   UNL     1      -2.961   1.101  24.597  0.00  0.00    +0.005 A 
ATOM     25  C   UNL     1      -3.161   0.562  25.188  0.00  0.00    +0.010 A 
ATOM     26  C   UNL     1      -3.267  -0.236  25.002  0.00  0.00    +0.068 A 
ATOM     27  C   UNL     1      -3.172  -0.493  24.224  0.00  0.00    +0.010 A 
ATOM     28  C   UNL     1      -2.972   0.046  23.632  0.00  0.00    +0.001 A 
ATOM     29  C   UNL     1      -2.867   0.843  23.819  0.00  0.00    +0.000 A 
BRANCH  26  30
ATOM     30  C   UNL     1      -3.467  -0.774  25.594  0.00  0.00    +0.100 C 
ATOM     31  N   UNL     1      -3.668  -1.313  26.185  0.00  0.00    -0.191 NA
ENDBRANCH  26  30
ENDBRANCH  19  24
TORSDOF 3
ENDMDL
MODEL 8
REMARK VINA RESULT:     -13.4      1.691      2.666
REMARK  Name = 
REMARK  3 active torsions:
REMARK  status: ('A' for Active; 'I' for Inactive)
REMARK    1  A    between atoms: C_7  and  N_10
REMARK    2  A    between atoms: C_19  and  C_24
REMARK    3  A    between atoms: C_26  and  C_30
REMARK                            x       y       z     vdW  Elec       q    Type
REMARK                         _______ _______ _______ _____ _____    ______ ____
ROOT
ATOM     10  N   UNL     1      -4.339   3.267  25.374  0.00  0.00    -0.273 NA
ATOM     11  C   UNL     1      -5.062   3.616  25.604  0.00  0.00    +0.074 C 
ATOM     12  C   UNL     1      -5.671   2.854  25.449  0.00  0.00    +0.039 C 
ATOM     13  C   UNL     1      -6.293   2.333  25.375  0.00  0.00    +0.011 C 
ATOM     14  C   UNL     1      -5.600   2.332  25.265  0.00  0.00    +0.054 C 
ATOM     15  C   UNL     1      -5.024   3.078  25.420  0.00  0.00    +0.078 C 
ATOM     16  C   UNL     1      -4.917   1.790  24.976  0.00  0.00    +0.041 A 
ATOM     17  C   UNL     1      -4.779   1.025  24.701  0.00  0.00    +0.013 A 
ATOM     18  C   UNL     1      -4.014   0.790  24.501  0.00  0.00    +0.006 A 
ATOM     19  C   UNL     1      -3.386   1.320  24.577  0.00  0.00    +0.056 A 
ATOM     20  C   UNL     1      -3.524   2.086  24.852  0.00  0.00    +0.261 A 
ATOM     21  O   UNL     1      -2.710   2.175  24.753  0.00  0.00    -0.267 OA
ATOM     22  N   UNL     1      -4.289   2.320  25.052  0.00  0.00    -0.299 N 
ATOM     23  C   UNL     1      -4.951   2.295  25.149  0.00  0.00    +0.110 C 
ENDROOT
BRANCH  10   7
ATOM      1  C   UNL     1      -0.589   2.786  25.376  0.00  0.00    +0.095 C 
ATOM      2  C   UNL     1      -1.106   2.999  24.770  0.00  0.00    +0.226 C 
ATOM      3  O   UNL     1      -0.814   3.145  24.011  0.00  0.00    -0.275 OA
ATOM      4  N   UNL     1      -1.914   3.066  24.920  0.00  0.00    -0.279 N 
ATOM      5  C   UNL     1      -2.431   3.279  24.314  0.00  0.00    +0.095 C 
ATOM      6  C   UNL     1      -3.239   3.346  24.464  0.00  0.00    +0.038 C 
ATOM      7  C   UNL     1      -3.531   3.200  25.223  0.00  0.00    +0.061 C 
ATOM      8  C   UNL     1      -3.014   2.987  25.829  0.00  0.00    +0.038 C 
ATOM      9  C   UNL     1      -2.206   2.920  25.678  0.00  0.00    +0.095 C 
ENDBRANCH  10   7
BRANCH  19  24
ATOM     24  C   UNL     1      -2.621   1.085  24.377  0.00  0.00    +0.005 A 
ATOM     25  C   UNL     1      -2.200   0.582  24.878  0.00  0.00    +0.010 A 
ATOM     26  C   UNL     1      -1.435   0.347  24.677  0.00  0.00    +0.068 A 
ATOM     27  C   UNL     1      -1.092   0.615  23.976  0.00  0.00    +0.010 A 
ATOM     28  C   UNL     1      -1.513   1.117  23.476  0.00  0.00    +0.001 A 
ATOM     29  C   UNL     1      -2.278   1.352  23.677  0.00  0.00    +0.000 A 
BRANCH  26  30
ATOM     30  C   UNL     1      -1.013  -0.156  25.178  0.00  0.00    +0.100 C 
ATOM     31  N   UNL     1      -0.592  -0.658  25.678  0.00  0.00    -0.191 NA
ENDBRANCH  26  30
ENDBRANCH  19  24
TORSDOF 3
ENDMDL
