MODEL 1
REMARK VINA RESULT:     -13.6      0.000      0.000
REMARK  Name = 
REMARK  7 active torsions:
REMARK  status: ('A' for Active; 'I' for Inactive)
REMARK    1  A    between atoms: O_2  and  C_3
REMARK    2  A    between atoms: C_3  and  C_4
REMARK    3  A    between atoms: C_13  and  C_15
REMARK    4  A    between atoms: C_23  and  C_24
REMARK    5  A    between atoms: C_24  and  C_25
REMARK    6  A    between atoms: N_27  and  C_28
REMARK    7  A    between atoms: C_28  and  C_29
REMARK                            x       y       z     vdW  Elec       q    Type
REMARK                         _______ _______ _______ _____ _____    ______ ____
ROOT
ATOM      4  C   UNL     1       0.328   0.619  23.590  0.00  0.00    +0.277 C 
ATOM      5  O   UNL     1       0.606   1.310  23.943  0.00  0.00    -0.270 OA
ATOM      6  N   UNL     1      -0.483   0.474  23.553  0.00  0.00    -0.152 NA
ATOM      7  C   UNL     1      -1.015   1.020  23.869  0.00  0.00    +0.185 A 
ATOM      8  N   UNL     1      -1.837   0.948  23.872  0.00  0.00    -0.227 NA
ATOM      9  C   UNL     1      -2.149   1.617  24.242  0.00  0.00    +0.063 A 
ATOM     10  C   UNL     1      -1.519   2.100  24.467  0.00  0.00    +0.023 A 
ATOM     11  C   UNL     1      -1.666   2.815  24.854  0.00  0.00    +0.034 C 
ATOM     12  C   UNL     1      -2.440   3.046  25.015  0.00  0.00    +0.010 C 
ATOM     13  C   UNL     1      -2.586   3.760  25.400  0.00  0.00    +0.059 C 
ATOM     14  C   UNL     1      -1.762   3.779  25.370  0.00  0.00    +0.005 C 
ATOM     17  C   UNL     1      -3.362   3.991  25.562  0.00  0.00    +0.154 C 
ATOM     18  O   UNL     1      -3.508   4.706  25.948  0.00  0.00    -0.223 OA
ATOM     19  C   UNL     1      -3.991   3.508  25.337  0.00  0.00    +0.033 C 
ATOM     20  C   UNL     1      -3.846   2.793  24.950  0.00  0.00    +0.003 C 
ATOM     21  C   UNL     1      -3.070   2.563  24.790  0.00  0.00    +0.006 C 
ATOM     22  C   UNL     1      -3.700   2.079  24.565  0.00  0.00    +0.000 C 
ATOM     23  C   UNL     1      -2.925   1.848  24.403  0.00  0.00    +0.050 C 
ATOM     35  S   UNL     1      -0.818   1.731  24.236  0.00  0.00    -0.054 S 
ENDROOT
BRANCH  13  15
ATOM     15  C   UNL     1      -2.446   4.481  25.776  0.00  0.00    +0.184 C 
ATOM     16  O   UNL     1      -1.754   4.901  25.619  0.00  0.00    -0.220 OA
ENDBRANCH  13  15
BRANCH   4   3
ATOM      3  C   UNL     1       0.860   0.073  23.274  0.00  0.00    +0.229 C 
BRANCH   3   2
ATOM      1  C   UNL     1       2.034  -0.200  22.508  0.00  0.00    +0.175 C 
ATOM      2  O   UNL     1       1.552   0.335  22.911  0.00  0.00    -0.342 OA
ENDBRANCH   3   2
ENDBRANCH   4   3
BRANCH  23  24
ATOM     24  C   UNL     1      -3.554   1.365  24.179  0.00  0.00    +0.093 C 
BRANCH  24  25
ATOM     25  C   UNL     1      -3.793   0.745  24.667  0.00  0.00    +0.242 C 
ATOM     26  O   UNL     1      -3.981   0.891  25.456  0.00  0.00    -0.273 OA
ATOM     27  N   UNL     1      -3.844  -0.021  24.365  0.00  0.00    -0.201 NA
BRANCH  27  28
ATOM     28  C   UNL     1      -4.083  -0.641  24.853  0.00  0.00    +0.141 C 
BRANCH  28  29
ATOM     29  C   UNL     1      -3.958  -1.422  24.619  0.00  0.00    -0.001 A 
ATOM     30  C   UNL     1      -4.326  -1.714  23.940  0.00  0.00    -0.003 A 
ATOM     31  C   UNL     1      -4.201  -2.495  23.706  0.00  0.00    -0.000 A 
ATOM     32  C   UNL     1      -3.708  -2.985  24.151  0.00  0.00    -0.000 A 
ATOM     33  C   UNL     1      -3.341  -2.694  24.830  0.00  0.00    -0.000 A 
ATOM     34  C   UNL     1      -3.466  -1.913  25.064  0.00  0.00    -0.003 A 
ENDBRANCH  28  29
ENDBRANCH  27  28
ENDBRANCH  24  25
ENDBRANCH  23  24
TORSDOF 7
ENDMDL
MODEL 2
REMARK VINA RESULT:     -12.5      1.639      4.586
REMARK  Name = 
REMARK  7 active torsions:
REMARK  status: ('A' for Active; 'I' for Inactive)
REMARK    1  A    between atoms: O_2  and  C_3
REMARK    2  A    between atoms: C_3  and  C_4
REMARK    3  A    between atoms: C_13  and  C_15
REMARK    4  A    between atoms: C_23  and  C_24
REMARK    5  A    between atoms: C_24  and  C_25
REMARK    6  A    between atoms: N_27  and  C_28
REMARK    7  A    between atoms: C_28  and  C_29
REMARK                            x       y       z     vdW  Elec       q    Type
REMARK                         _______ _______ _______ _____ _____    ______ ____
ROOT
ATOM      4  C   UNL     1       1.436   0.171  23.066  0.00  0.00    +0.277 C 
ATOM      5  O   UNL     1       1.354  -0.642  23.177  0.00  0.00    -0.270 OA
ATOM      6  N   UNL     1       0.822   0.679  23.279  0.00  0.00    -0.152 NA
ATOM      7  C   UNL     1       0.127   0.374  23.602  0.00  0.00    +0.185 A 
ATOM      8  N   UNL     1      -0.530   0.813  23.840  0.00  0.00    -0.227 NA
ATOM      9  C   UNL     1      -1.096   0.287  24.130  0.00  0.00    +0.063 A 
ATOM     10  C   UNL     1      -0.788  -0.476  24.071  0.00  0.00    +0.023 A 
ATOM     11  C   UNL     1      -1.237  -1.121  24.322  0.00  0.00    +0.034 C 
ATOM     12  C   UNL     1      -1.992  -1.004  24.632  0.00  0.00    +0.010 C 
ATOM     13  C   UNL     1      -2.440  -1.649  24.883  0.00  0.00    +0.059 C 
ATOM     14  C   UNL     1      -1.758  -2.038  24.630  0.00  0.00    +0.005 C 
ATOM     17  C   UNL     1      -3.196  -1.532  25.193  0.00  0.00    +0.154 C 
ATOM     18  O   UNL     1      -3.644  -2.177  25.444  0.00  0.00    -0.223 OA
ATOM     19  C   UNL     1      -3.503  -0.768  25.252  0.00  0.00    +0.033 C 
ATOM     20  C   UNL     1      -3.055  -0.122  25.001  0.00  0.00    +0.003 C 
ATOM     21  C   UNL     1      -2.299  -0.240  24.691  0.00  0.00    +0.006 C 
ATOM     22  C   UNL     1      -2.607   0.523  24.750  0.00  0.00    +0.000 C 
ATOM     23  C   UNL     1      -1.852   0.405  24.440  0.00  0.00    +0.050 C 
ATOM     35  S   UNL     1      -0.032  -0.422  23.745  0.00  0.00    -0.054 S 
ENDROOT
BRANCH  13  15
ATOM     15  C   UNL     1      -2.652  -2.430  25.046  0.00  0.00    +0.184 C 
ATOM     16  O   UNL     1      -2.264  -3.051  24.668  0.00  0.00    -0.220 OA
ENDBRANCH  13  15
BRANCH   4   3
ATOM      3  C   UNL     1       2.131   0.476  22.742  0.00  0.00    +0.229 C 
BRANCH   3   2
ATOM      1  C   UNL     1       3.537   0.361  22.520  0.00  0.00    +0.175 C 
ATOM      2  O   UNL     1       2.819   0.021  22.741  0.00  0.00    -0.342 OA
ENDBRANCH   3   2
ENDBRANCH   4   3
BRANCH  23  24
ATOM     24  C   UNL     1      -2.159   1.168  24.499  0.00  0.00    +0.093 C 
BRANCH  24  25
ATOM     25  C   UNL     1      -1.880   1.682  25.080  0.00  0.00    +0.242 C 
ATOM     26  O   UNL     1      -1.607   1.381  25.798  0.00  0.00    -0.273 OA
ATOM     27  N   UNL     1      -1.873   2.496  24.944  0.00  0.00    -0.201 NA
BRANCH  27  28
ATOM     28  C   UNL     1      -1.594   3.009  25.525  0.00  0.00    +0.141 C 
BRANCH  28  29
ATOM     29  C   UNL     1      -1.530   3.816  25.367  0.00  0.00    -0.001 A 
ATOM     30  C   UNL     1      -2.154   4.324  25.555  0.00  0.00    -0.003 A 
ATOM     31  C   UNL     1      -2.090   5.131  25.397  0.00  0.00    -0.000 A 
ATOM     32  C   UNL     1      -1.404   5.431  25.051  0.00  0.00    -0.000 A 
ATOM     33  C   UNL     1      -0.781   4.924  24.863  0.00  0.00    -0.000 A 
ATOM     34  C   UNL     1      -0.845   4.116  25.021  0.00  0.00    -0.003 A 
ENDBRANCH  28  29
ENDBRANCH  27  28
ENDBRANCH  24  25
ENDBRANCH  23  24
TORSDOF 7
ENDMDL
MODEL 3
REMARK VINA RESULT:     -12.2      1.915      5.642
REMARK  Name = 
REMARK  7 active torsions:
REMARK  status: ('A' for Active; 'I' for Inactive)
REMARK    1  A    between atoms: O_2  and  C_3
REMARK    2  A    between atoms: C_3  and  C_4
REMARK    3  A    between atoms: C_13  and  C_15
REMARK    4  A    between atoms: C_23  and  C_24
REMARK    5  A    between atoms: C_24  and  C_25
REMARK    6  A    between atoms: N_27  and  C_28
REMARK    7  A    between atoms: C_28  and  C_29
REMARK                            x       y       z     vdW  Elec       q    Type
REMARK                         _______ _______ _______ _____ _____    ______ ____
ROOT
ATOM      4  C   UNL     1      -5.444   1.974  25.154  0.00  0.00    +0.277 C 
ATOM      5  O   UNL     1      -5.721   1.211  25.302  0.00  0.00    -0.270 OA
ATOM      6  N   UNL     1      -4.654   2.092  24.947  0.00  0.00    -0.152 NA
ATOM      7  C   UNL     1      -4.142   1.448  24.888  0.00  0.00    +0.185 A 
ATOM      8  N   UNL     1      -3.343   1.482  24.687  0.00  0.00    -0.227 NA
ATOM      9  C   UNL     1      -3.046   0.712  24.694  0.00  0.00    +0.063 A 
ATOM     10  C   UNL     1      -3.662   0.203  24.899  0.00  0.00    +0.023 A 
ATOM     11  C   UNL     1      -3.526  -0.609  24.950  0.00  0.00    +0.034 C 
ATOM     12  C   UNL     1      -2.775  -0.913  24.796  0.00  0.00    +0.010 C 
ATOM     13  C   UNL     1      -2.640  -1.724  24.847  0.00  0.00    +0.059 C 
ATOM     14  C   UNL     1      -3.441  -1.700  25.042  0.00  0.00    +0.005 C 
ATOM     17  C   UNL     1      -1.888  -2.029  24.694  0.00  0.00    +0.154 C 
ATOM     18  O   UNL     1      -1.752  -2.841  24.745  0.00  0.00    -0.223 OA
ATOM     19  C   UNL     1      -1.272  -1.520  24.489  0.00  0.00    +0.033 C 
ATOM     20  C   UNL     1      -1.407  -0.707  24.438  0.00  0.00    +0.003 C 
ATOM     21  C   UNL     1      -2.159  -0.404  24.592  0.00  0.00    +0.006 C 
ATOM     22  C   UNL     1      -1.543   0.105  24.387  0.00  0.00    +0.000 C 
ATOM     23  C   UNL     1      -2.294   0.408  24.540  0.00  0.00    +0.050 C 
ATOM     35  S   UNL     1      -4.340   0.658  25.019  0.00  0.00    -0.054 S 
ENDROOT
BRANCH  13  15
ATOM     15  C   UNL     1      -2.782  -2.529  24.966  0.00  0.00    +0.184 C 
ATOM     16  O   UNL     1      -3.550  -2.796  25.104  0.00  0.00    -0.220 OA
ENDBRANCH  13  15
BRANCH   4   3
ATOM      3  C   UNL     1      -5.956   2.618  25.213  0.00  0.00    +0.229 C 
BRANCH   3   2
ATOM      1  C   UNL     1      -6.099   3.951  25.705  0.00  0.00    +0.175 C 
ATOM      2  O   UNL     1      -5.854   3.171  25.816  0.00  0.00    -0.342 OA
ENDBRANCH   3   2
ENDBRANCH   4   3
BRANCH  23  24
ATOM     24  C   UNL     1      -1.678   0.916  24.336  0.00  0.00    +0.093 C 
BRANCH  24  25
ATOM     25  C   UNL     1      -1.358   1.426  24.901  0.00  0.00    +0.242 C 
ATOM     26  O   UNL     1      -1.134   1.133  25.638  0.00  0.00    -0.273 OA
ATOM     27  N   UNL     1      -1.263   2.227  24.727  0.00  0.00    -0.201 NA
BRANCH  27  28
ATOM     28  C   UNL     1      -0.943   2.735  25.292  0.00  0.00    +0.141 C 
BRANCH  28  29
ATOM     29  C   UNL     1      -0.995   3.552  25.188  0.00  0.00    -0.001 A 
ATOM     30  C   UNL     1      -1.597   3.978  25.559  0.00  0.00    -0.003 A 
ATOM     31  C   UNL     1      -1.649   4.795  25.455  0.00  0.00    -0.000 A 
ATOM     32  C   UNL     1      -1.098   5.186  24.980  0.00  0.00    -0.000 A 
ATOM     33  C   UNL     1      -0.497   4.760  24.610  0.00  0.00    -0.000 A 
ATOM     34  C   UNL     1      -0.445   3.943  24.714  0.00  0.00    -0.003 A 
ENDBRANCH  28  29
ENDBRANCH  27  28
ENDBRANCH  24  25
ENDBRANCH  23  24
TORSDOF 7
ENDMDL
MODEL 4
REMARK VINA RESULT:     -11.9      1.886      4.620
REMARK  Name = 
REMARK  7 active torsions:
REMARK  status: ('A' for Active; 'I' for Inactive)
REMARK    1  A    between atoms: O_2  and  C_3
REMARK    2  A    between atoms: C_3  and  C_4
REMARK    3  A    between atoms: C_13  and  C_15
REMARK    4  A    between atoms: C_23  and  C_24
REMARK    5  A    between atoms: C_24  and  C_25
REMARK    6  A    between atoms: N_27  and  C_28
REMARK    7  A    between atoms: C_28  and  C_29
REMARK                            x       y       z     vdW  Elec       q    Type
REMARK                         _______ _______ _______ _____ _____    ______ ____
ROOT
ATOM      4  C   UNL     1      -0.403   1.496  25.069  0.00  0.00    +0.277 C 
ATOM      5  O   UNL     1      -0.070   0.743  25.114  0.00  0.00    -0.270 OA
ATOM      6  N   UNL     1      -1.205   1.582  24.898  0.00  0.00    -0.152 NA
ATOM      7  C   UNL     1      -1.674   0.915  24.771  0.00  0.00    +0.185 A 
ATOM      8  N   UNL     1      -2.480   0.916  24.596  0.00  0.00    -0.227 NA
ATOM      9  C   UNL     1      -2.724   0.131  24.515  0.00  0.00    +0.063 A 
ATOM     10  C   UNL     1      -2.068  -0.353  24.640  0.00  0.00    +0.023 A 
ATOM     11  C   UNL     1      -2.147  -1.173  24.593  0.00  0.00    +0.034 C 
ATOM     12  C   UNL     1      -2.880  -1.509  24.422  0.00  0.00    +0.010 C 
ATOM     13  C   UNL     1      -2.959  -2.328  24.375  0.00  0.00    +0.059 C 
ATOM     14  C   UNL     1      -2.155  -2.271  24.552  0.00  0.00    +0.005 C 
ATOM     17  C   UNL     1      -3.692  -2.664  24.203  0.00  0.00    +0.154 C 
ATOM     18  O   UNL     1      -3.771  -3.484  24.156  0.00  0.00    -0.223 OA
ATOM     19  C   UNL     1      -4.348  -2.179  24.078  0.00  0.00    +0.033 C 
ATOM     20  C   UNL     1      -4.270  -1.358  24.124  0.00  0.00    +0.003 C 
ATOM     21  C   UNL     1      -3.536  -1.024  24.296  0.00  0.00    +0.006 C 
ATOM     22  C   UNL     1      -4.192  -0.539  24.171  0.00  0.00    +0.000 C 
ATOM     23  C   UNL     1      -3.458  -0.204  24.343  0.00  0.00    +0.050 C 
ATOM     35  S   UNL     1      -1.419   0.131  24.799  0.00  0.00    -0.054 S 
ENDROOT
BRANCH  13  15
ATOM     15  C   UNL     1      -2.758  -3.128  24.390  0.00  0.00    +0.184 C 
ATOM     16  O   UNL     1      -1.966  -3.355  24.405  0.00  0.00    -0.220 OA
ENDBRANCH  13  15
BRANCH   4   3
ATOM      3  C   UNL     1       0.066   2.163  25.195  0.00  0.00    +0.229 C 
BRANCH   3   2
ATOM      1  C   UNL     1       0.420   3.003  26.295  0.00  0.00    +0.175 C 
ATOM      2  O   UNL     1       0.446   2.269  25.919  0.00  0.00    -0.342 OA
ENDBRANCH   3   2
ENDBRANCH   4   3
BRANCH  23  24
ATOM     24  C   UNL     1      -4.113   0.280  24.217  0.00  0.00    +0.093 C 
BRANCH  24  25
ATOM     25  C   UNL     1      -4.500   0.626  24.859  0.00  0.00    +0.242 C 
ATOM     26  O   UNL     1      -4.657   0.179  25.534  0.00  0.00    -0.273 OA
ATOM     27  N   UNL     1      -4.730   1.417  24.825  0.00  0.00    -0.201 NA
BRANCH  27  28
ATOM     28  C   UNL     1      -5.116   1.762  25.467  0.00  0.00    +0.141 C 
BRANCH  28  29
ATOM     29  C   UNL     1      -5.232   2.578  25.488  0.00  0.00    -0.001 A 
ATOM     30  C   UNL     1      -4.583   3.088  25.464  0.00  0.00    -0.003 A 
ATOM     31  C   UNL     1      -4.699   3.905  25.485  0.00  0.00    -0.000 A 
ATOM     32  C   UNL     1      -5.464   4.212  25.531  0.00  0.00    -0.000 A 
ATOM     33  C   UNL     1      -6.112   3.703  25.555  0.00  0.00    -0.000 A 
ATOM     34  C   UNL     1      -5.996   2.886  25.534  0.00  0.00    -0.003 A 
ENDBRANCH  28  29
ENDBRANCH  27  28
ENDBRANCH  24  25
ENDBRANCH  23  24
TORSDOF 7
ENDMDL
MODEL 5
REMARK VINA RESULT:     -11.5      1.795      3.789
REMARK  Name = 
REMARK  7 active torsions:
REMARK  status: ('A' for Active; 'I' for Inactive)
REMARK    1  A    between atoms: O_2  and  C_3
REMARK    2  A    between atoms: C_3  and  C_4
REMARK    3  A    between atoms: C_13  and  C_15
REMARK    4  A    between atoms: C_23  and  C_24
REMARK    5  A    between atoms: C_24  and  C_25
REMARK    6  A    between atoms: N_27  and  C_28
REMARK    7  A    between atoms: C_28  and  C_29
REMARK                            x       y       z     vdW  Elec       q    Type
REMARK                         _______ _______ _______ _____ _____    ______ ____
ROOT
ATOM      4  C   UNL     1      -5.552   2.530  25.819  0.00  0.00    +0.277 C 
ATOM      5  O   UNL     1      -5.357   3.310  26.001  0.00  0.00    -0.270 OA
ATOM      6  N   UNL     1      -4.993   2.037  25.466  0.00  0.00    -0.152 NA
ATOM      7  C   UNL     1      -4.238   2.325  25.296  0.00  0.00    +0.185 A 
ATOM      8  N   UNL     1      -3.625   1.898  24.945  0.00  0.00    -0.227 NA
ATOM      9  C   UNL     1      -2.973   2.399  24.879  0.00  0.00    +0.063 A 
ATOM     10  C   UNL     1      -3.183   3.134  25.188  0.00  0.00    +0.023 A 
ATOM     11  C   UNL     1      -2.635   3.750  25.195  0.00  0.00    +0.034 C 
ATOM     12  C   UNL     1      -1.877   3.632  24.893  0.00  0.00    +0.010 C 
ATOM     13  C   UNL     1      -1.329   4.248  24.900  0.00  0.00    +0.059 C 
ATOM     14  C   UNL     1      -1.975   4.627  25.246  0.00  0.00    +0.005 C 
ATOM     17  C   UNL     1      -0.570   4.130  24.598  0.00  0.00    +0.154 C 
ATOM     18  O   UNL     1      -0.022   4.746  24.604  0.00  0.00    -0.223 OA
ATOM     19  C   UNL     1      -0.360   3.394  24.289  0.00  0.00    +0.033 C 
ATOM     20  C   UNL     1      -0.908   2.777  24.282  0.00  0.00    +0.003 C 
ATOM     21  C   UNL     1      -1.666   2.897  24.584  0.00  0.00    +0.006 C 
ATOM     22  C   UNL     1      -1.456   2.161  24.275  0.00  0.00    +0.000 C 
ATOM     23  C   UNL     1      -2.214   2.280  24.577  0.00  0.00    +0.050 C 
ATOM     35  S   UNL     1      -3.966   3.088  25.445  0.00  0.00    -0.054 S 
ENDROOT
BRANCH  13  15
ATOM     15  C   UNL     1      -1.005   4.996  25.027  0.00  0.00    +0.184 C 
ATOM     16  O   UNL     1      -1.493   5.629  25.230  0.00  0.00    -0.220 OA
ENDBRANCH  13  15
BRANCH   4   3
ATOM      3  C   UNL     1      -6.307   2.242  25.989  0.00  0.00    +0.229 C 
BRANCH   3   2
ATOM      1  C   UNL     1      -6.930   1.509  27.045  0.00  0.00    +0.175 C 
ATOM      2  O   UNL     1      -6.563   2.196  26.771  0.00  0.00    -0.342 OA
ENDBRANCH   3   2
ENDBRANCH   4   3
BRANCH  23  24
ATOM     24  C   UNL     1      -2.003   1.545  24.268  0.00  0.00    +0.093 C 
BRANCH  24  25
ATOM     25  C   UNL     1      -1.844   0.914  24.775  0.00  0.00    +0.242 C 
ATOM     26  O   UNL     1      -1.390   1.036  25.453  0.00  0.00    -0.273 OA
ATOM     27  N   UNL     1      -2.137   0.163  24.604  0.00  0.00    -0.201 NA
BRANCH  27  28
ATOM     28  C   UNL     1      -1.977  -0.467  25.112  0.00  0.00    +0.141 C 
BRANCH  28  29
ATOM     29  C   UNL     1      -2.325  -1.203  24.978  0.00  0.00    -0.001 A 
ATOM     30  C   UNL     1      -1.906  -1.791  24.576  0.00  0.00    -0.003 A 
ATOM     31  C   UNL     1      -2.253  -2.527  24.442  0.00  0.00    -0.000 A 
ATOM     32  C   UNL     1      -3.020  -2.677  24.709  0.00  0.00    -0.000 A 
ATOM     33  C   UNL     1      -3.438  -2.089  25.110  0.00  0.00    -0.000 A 
ATOM     34  C   UNL     1      -3.091  -1.353  25.244  0.00  0.00    -0.003 A 
ENDBRANCH  28  29
ENDBRANCH  27  28
ENDBRANCH  24  25
ENDBRANCH  23  24
TORSDOF 7
ENDMDL
MODEL 6
REMARK VINA RESULT:     -11.1      1.586      3.913
REMARK  Name = 
REMARK  7 active torsions:
REMARK  status: ('A' for Active; 'I' for Inactive)
REMARK    1  A    between atoms: O_2  and  C_3
REMARK    2  A    between atoms: C_3  and  C_4
REMARK    3  A    between atoms: C_13  and  C_15
REMARK    4  A    between atoms: C_23  and  C_24
REMARK    5  A    between atoms: C_24  and  C_25
REMARK    6  A    between atoms: N_27  and  C_28
REMARK    7  A    between atoms: C_28  and  C_29
REMARK                            x       y       z     vdW  Elec       q    Type
REMARK                         _______ _______ _______ _____ _____    ______ ____
ROOT
ATOM      4  C   UNL     1      -4.084  -1.518  24.135  0.00  0.00    +0.277 C 
ATOM      5  O   UNL     1      -4.790  -1.333  24.520  0.00  0.00    -0.270 OA
ATOM      6  N   UNL     1      -3.543  -0.920  23.961  0.00  0.00    -0.152 NA
ATOM      7  C   UNL     1      -3.706  -0.140  24.172  0.00  0.00    +0.185 A 
ATOM      8  N   UNL     1      -3.219   0.511  24.035  0.00  0.00    -0.227 NA
ATOM      9  C   UNL     1      -3.598   1.180  24.335  0.00  0.00    +0.063 A 
ATOM     10  C   UNL     1      -4.319   0.942  24.658  0.00  0.00    +0.023 A 
ATOM     11  C   UNL     1      -4.821   1.499  25.002  0.00  0.00    +0.034 C 
ATOM     12  C   UNL     1      -4.602   2.294  25.024  0.00  0.00    +0.010 C 
ATOM     13  C   UNL     1      -5.104   2.850  25.367  0.00  0.00    +0.059 C 
ATOM     14  C   UNL     1      -5.551   2.166  25.479  0.00  0.00    +0.005 C 
ATOM     17  C   UNL     1      -4.886   3.646  25.389  0.00  0.00    +0.154 C 
ATOM     18  O   UNL     1      -5.388   4.203  25.733  0.00  0.00    -0.223 OA
ATOM     19  C   UNL     1      -4.165   3.884  25.067  0.00  0.00    +0.033 C 
ATOM     20  C   UNL     1      -3.663   3.327  24.722  0.00  0.00    +0.003 C 
ATOM     21  C   UNL     1      -3.882   2.532  24.701  0.00  0.00    +0.006 C 
ATOM     22  C   UNL     1      -3.161   2.771  24.378  0.00  0.00    +0.000 C 
ATOM     23  C   UNL     1      -3.379   1.976  24.357  0.00  0.00    +0.050 C 
ATOM     35  S   UNL     1      -4.385   0.125  24.557  0.00  0.00    -0.054 S 
ENDROOT
BRANCH  13  15
ATOM     15  C   UNL     1      -5.762   3.170  25.750  0.00  0.00    +0.184 C 
ATOM     16  O   UNL     1      -6.193   2.711  26.283  0.00  0.00    -0.220 OA
ENDBRANCH  13  15
BRANCH   4   3
ATOM      3  C   UNL     1      -3.921  -2.298  23.924  0.00  0.00    +0.229 C 
BRANCH   3   2
ATOM      1  C   UNL     1      -3.370  -3.563  24.294  0.00  0.00    +0.175 C 
ATOM      2  O   UNL     1      -3.729  -2.851  24.505  0.00  0.00    -0.342 OA
ENDBRANCH   3   2
ENDBRANCH   4   3
BRANCH  23  24
ATOM     24  C   UNL     1      -2.659   2.214  24.035  0.00  0.00    +0.093 C 
BRANCH  24  25
ATOM     25  C   UNL     1      -1.956   2.066  24.440  0.00  0.00    +0.242 C 
ATOM     26  O   UNL     1      -1.907   2.218  25.249  0.00  0.00    -0.273 OA
ATOM     27  N   UNL     1      -1.302   1.765  24.036  0.00  0.00    -0.201 NA
BRANCH  27  28
ATOM     28  C   UNL     1      -0.600   1.617  24.441  0.00  0.00    +0.141 C 
BRANCH  28  29
ATOM     29  C   UNL     1       0.029   1.249  24.055  0.00  0.00    -0.001 A 
ATOM     30  C   UNL     1      -0.052   0.475  23.778  0.00  0.00    -0.003 A 
ATOM     31  C   UNL     1       0.577   0.107  23.392  0.00  0.00    -0.000 A 
ATOM     32  C   UNL     1       1.288   0.511  23.282  0.00  0.00    -0.000 A 
ATOM     33  C   UNL     1       1.369   1.284  23.560  0.00  0.00    -0.000 A 
ATOM     34  C   UNL     1       0.740   1.652  23.946  0.00  0.00    -0.003 A 
ENDBRANCH  28  29
ENDBRANCH  27  28
ENDBRANCH  24  25
ENDBRANCH  23  24
TORSDOF 7
ENDMDL
MODEL 7
REMARK VINA RESULT:     -10.3      1.613      4.403
REMARK  Name = 
REMARK  7 active torsions:
REMARK  status: ('A' for Active; 'I' for Inactive)
REMARK    1  A    between atoms: O_2  and  C_3
REMARK    2  A    between atoms: C_3  and  C_4
REMARK    3  A    between atoms: C_13  and  C_15
REMARK    4  A    between atoms: C_23  and  C_24
REMARK    5  A    between atoms: C_24  and  C_25
REMARK    6  A    between atoms: N_27  and  C_28
REMARK    7  A    between atoms: C_28  and  C_29
REMARK                            x       y       z     vdW  Elec       q    Type
REMARK                         _______ _______ _______ _____ _____    ______ ____
ROOT
ATOM      4  C   UNL     1      -2.922  -2.069  24.654  0.00  0.00    +0.277 C 
ATOM      5  O   UNL     1      -2.231  -2.329  24.288  0.00  0.00    -0.270 OA
ATOM      6  N   UNL     1      -2.995  -1.280  24.884  0.00  0.00    -0.152 NA
ATOM      7  C   UNL     1      -2.376  -0.752  24.748  0.00  0.00    +0.185 A 
ATOM      8  N   UNL     1      -2.370   0.049  24.947  0.00  0.00    -0.227 NA
ATOM      9  C   UNL     1      -1.644   0.364  24.710  0.00  0.00    +0.063 A 
ATOM     10  C   UNL     1      -1.203  -0.242  24.366  0.00  0.00    +0.023 A 
ATOM     11  C   UNL     1      -0.446  -0.087  24.076  0.00  0.00    +0.034 C 
ATOM     12  C   UNL     1      -0.131   0.673  24.130  0.00  0.00    +0.010 C 
ATOM     13  C   UNL     1       0.625   0.827  23.840  0.00  0.00    +0.059 C 
ATOM     14  C   UNL     1       0.566   0.023  23.664  0.00  0.00    +0.005 C 
ATOM     17  C   UNL     1       0.941   1.587  23.894  0.00  0.00    +0.154 C 
ATOM     18  O   UNL     1       1.698   1.742  23.604  0.00  0.00    -0.223 OA
ATOM     19  C   UNL     1       0.500   2.193  24.238  0.00  0.00    +0.033 C 
ATOM     20  C   UNL     1      -0.258   2.039  24.529  0.00  0.00    +0.003 C 
ATOM     21  C   UNL     1      -0.572   1.279  24.474  0.00  0.00    +0.006 C 
ATOM     22  C   UNL     1      -1.014   1.885  24.819  0.00  0.00    +0.000 C 
ATOM     23  C   UNL     1      -1.329   1.125  24.765  0.00  0.00    +0.050 C 
ATOM     35  S   UNL     1      -1.656  -0.932  24.389  0.00  0.00    -0.054 S 
ENDROOT
BRANCH  13  15
ATOM     15  C   UNL     1       1.362   0.703  23.489  0.00  0.00    +0.184 C 
ATOM     16  O   UNL     1       1.477   0.056  22.990  0.00  0.00    -0.220 OA
ENDBRANCH  13  15
BRANCH   4   3
ATOM      3  C   UNL     1      -3.541  -2.597  24.791  0.00  0.00    +0.229 C 
BRANCH   3   2
ATOM      1  C   UNL     1      -4.447  -3.274  23.917  0.00  0.00    +0.175 C 
ATOM      2  O   UNL     1      -3.695  -3.200  24.250  0.00  0.00    -0.342 OA
ENDBRANCH   3   2
ENDBRANCH   4   3
BRANCH  23  24
ATOM     24  C   UNL     1      -1.770   1.730  25.109  0.00  0.00    +0.093 C 
BRANCH  24  25
ATOM     25  C   UNL     1      -2.368   2.101  24.679  0.00  0.00    +0.242 C 
ATOM     26  O   UNL     1      -2.249   2.286  23.884  0.00  0.00    -0.273 OA
ATOM     27  N   UNL     1      -3.085   2.286  25.043  0.00  0.00    -0.201 NA
BRANCH  27  28
ATOM     28  C   UNL     1      -3.682   2.656  24.613  0.00  0.00    +0.141 C 
BRANCH  28  29
ATOM     29  C   UNL     1      -4.425   2.772  24.953  0.00  0.00    -0.001 A 
ATOM     30  C   UNL     1      -4.590   3.473  25.357  0.00  0.00    -0.003 A 
ATOM     31  C   UNL     1      -5.332   3.589  25.697  0.00  0.00    -0.000 A 
ATOM     32  C   UNL     1      -5.911   3.003  25.635  0.00  0.00    -0.000 A 
ATOM     33  C   UNL     1      -5.746   2.302  25.232  0.00  0.00    -0.000 A 
ATOM     34  C   UNL     1      -5.003   2.187  24.892  0.00  0.00    -0.003 A 
ENDBRANCH  28  29
ENDBRANCH  27  28
ENDBRANCH  24  25
ENDBRANCH  23  24
TORSDOF 7
ENDMDL
