REMARK  Name = 
REMARK  5 active torsions:
REMARK  status: ('A' for Active; 'I' for Inactive)
REMARK    1  A    between atoms: C_12  and  C_13
REMARK    2  A    between atoms: C_13  and  C_15
REMARK    3  A    between atoms: N_17  and  C_18
REMARK    4  A    between atoms: C_18  and  C_19
REMARK    5  A    between atoms: C_19  and  O_20
REMARK                            x       y       z     vdW  Elec       q    Type
REMARK                         _______ _______ _______ _____ _____    ______ ____
ROOT
ATOM      1  C   UNL     1      -3.658  -1.608   0.000  0.00  0.00    +0.138 C 
ATOM      2  N   UNL     1      -2.833  -1.608   0.000  0.00  0.00    -0.213 NA
ATOM      3  C   UNL     1      -2.421  -0.893   0.000  0.00  0.00    +0.179 A 
ATOM      4  N   UNL     1      -1.601  -0.807   0.000  0.00  0.00    -0.228 NA
ATOM      5  C   UNL     1      -1.429   0.000   0.000  0.00  0.00    +0.063 A 
ATOM      6  C   UNL     1      -2.143   0.412   0.000  0.00  0.00    +0.023 A 
ATOM      7  C   UNL     1      -2.143   1.238   0.000  0.00  0.00    +0.034 C 
ATOM      8  C   UNL     1      -1.429   1.650   0.000  0.00  0.00    +0.007 C 
ATOM      9  C   UNL     1      -2.143   2.062   0.000  0.00  0.00    +0.000 C 
ATOM     10  C   UNL     1      -1.429   2.475   0.000  0.00  0.00    +0.001 C 
ATOM     11  C   UNL     1      -0.715   2.888   0.000  0.00  0.00    +0.003 C 
ATOM     12  C   UNL     1       0.000   2.475   0.000  0.00  0.00    +0.039 C 
ATOM     22  C   UNL     1       0.000   1.650   0.000  0.00  0.00    +0.153 C 
ATOM     23  O   UNL     1       0.715   1.238   0.000  0.00  0.00    -0.223 OA
ATOM     24  C   UNL     1      -0.715   1.238   0.000  0.00  0.00    +0.036 C 
ATOM     25  C   UNL     1      -0.715   0.412   0.000  0.00  0.00    +0.043 C 
ATOM     26  C   UNL     1       0.000   0.000   0.000  0.00  0.00    +0.006 C 
ATOM     27  S   UNL     1      -2.756  -0.140   0.000  0.00  0.00    -0.055 S 
ENDROOT
BRANCH  12  13
ATOM     13  C   UNL     1       0.715   2.888   0.000  0.00  0.00    +0.081 C 
ATOM     14  C   UNL     1       0.715   3.712   0.000  0.00  0.00    +0.010 C 
BRANCH  13  15
ATOM     15  C   UNL     1       1.429   2.475   0.000  0.00  0.00    +0.241 C 
ATOM     16  O   UNL     1       1.429   1.650   0.000  0.00  0.00    -0.273 OA
ATOM     17  N   UNL     1       2.143   2.888   0.000  0.00  0.00    -0.203 NA
BRANCH  17  18
ATOM     18  C   UNL     1       2.858   2.475   0.000  0.00  0.00    +0.147 C 
BRANCH  18  19
ATOM     19  C   UNL     1       3.572   2.888   0.000  0.00  0.00    +0.166 C 
BRANCH  19  20
ATOM     20  O   UNL     1       4.287   2.475   0.000  0.00  0.00    -0.349 OA
ATOM     21  C   UNL     1       5.001   2.888   0.000  0.00  0.00    +0.174 C 
ENDBRANCH  19  20
ENDBRANCH  18  19
ENDBRANCH  17  18
ENDBRANCH  13  15
ENDBRANCH  12  13
TORSDOF 5
