MODEL 1
REMARK VINA RESULT:     -11.4      0.000      0.000
REMARK  Name = 
REMARK  7 active torsions:
REMARK  status: ('A' for Active; 'I' for Inactive)
REMARK    1  A    between atoms: C_2  and  C_5
REMARK    2  A    between atoms: C_8  and  C_11
REMARK    3  A    between atoms: N_13  and  C_14
REMARK    4  A    between atoms: C_14  and  C_15
REMARK    5  A    between atoms: C_22  and  C_23
REMARK    6  A    between atoms: C_23  and  N_24
REMARK    7  A    between atoms: N_27  and  C_30
REMARK                            x       y       z     vdW  Elec       q    Type
REMARK                         _______ _______ _______ _____ _____    ______ ____
ROOT
ATOM     15  C   UNL     1       0.396  -0.312  23.508  0.00  0.00    +0.079 C 
ATOM     16  C   UNL     1       0.114  -0.815  24.031  0.00  0.00    +0.018 C 
ATOM     17  C   UNL     1      -0.576  -0.728  24.445  0.00  0.00    +0.005 C 
ATOM     18  C   UNL     1      -0.724  -1.418  24.999  0.00  0.00    +0.017 C 
ATOM     19  C   UNL     1      -0.396  -1.074  24.550  0.00  0.00    +0.072 C 
ATOM     20  N   UNL     1      -0.307  -0.230  23.934  0.00  0.00    -0.272 NA
ATOM     21  C   UNL     1      -0.944   0.423  23.941  0.00  0.00    +0.073 C 
ATOM     22  C   UNL     1      -1.185  -0.096  24.446  0.00  0.00    +0.032 C 
ENDROOT
BRANCH  15  14
ATOM     14  C   UNL     1       0.956  -0.059  22.959  0.00  0.00    +0.131 C 
BRANCH  14  13
ATOM     11  C   UNL     1       2.334   0.045  22.594  0.00  0.00    +0.265 C 
ATOM     12  O   UNL     1       2.123   0.038  21.797  0.00  0.00    -0.268 OA
ATOM     13  N   UNL     1       1.750  -0.004  23.176  0.00  0.00    -0.200 NA
BRANCH  11   8
ATOM      5  C   UNL     1       4.716   0.212  23.243  0.00  0.00    +0.071 A 
ATOM      6  C   UNL     1       4.303  -0.492  23.368  0.00  0.00    +0.004 A 
ATOM      7  C   UNL     1       3.509  -0.547  23.152  0.00  0.00    +0.005 A 
ATOM      8  C   UNL     1       3.128   0.101  22.810  0.00  0.00    +0.055 A 
ATOM      9  C   UNL     1       3.541   0.803  22.686  0.00  0.00    +0.005 A 
ATOM     10  C   UNL     1       4.335   0.859  22.902  0.00  0.00    +0.004 A 
BRANCH   5   2
ATOM      1  F   UNL     1       6.304   0.321  23.676  0.00  0.00    -0.166 F 
ATOM      2  C   UNL     1       5.510   0.266  23.460  0.00  0.00    +0.419 C 
ATOM      3  F   UNL     1       5.729  -0.075  22.740  0.00  0.00    -0.166 F 
ATOM      4  F   UNL     1       5.291   0.607  24.178  0.00  0.00    -0.166 F 
ENDBRANCH   5   2
ENDBRANCH  11   8
ENDBRANCH  14  13
ENDBRANCH  15  14
BRANCH  22  23
ATOM     23  C   UNL     1      -1.875  -0.068  24.899  0.00  0.00    +0.074 C 
BRANCH  23  24
ATOM     24  N   UNL     1      -2.356   0.601  24.876  0.00  0.00    -0.270 NA
ATOM     25  C   UNL     1      -2.153   1.271  25.313  0.00  0.00    +0.094 C 
ATOM     26  C   UNL     1      -2.635   1.940  25.289  0.00  0.00    +0.108 C 
ATOM     27  N   UNL     1      -3.319   1.940  24.829  0.00  0.00    -0.305 N 
ATOM     28  C   UNL     1      -3.523   1.271  24.392  0.00  0.00    +0.108 C 
ATOM     29  C   UNL     1      -3.041   0.602  24.415  0.00  0.00    +0.094 C 
BRANCH  27  30
ATOM     30  C   UNL     1      -3.801   2.609  24.805  0.00  0.00    +0.048 A 
ATOM     31  C   UNL     1      -4.424   2.688  25.341  0.00  0.00    +0.015 A 
ATOM     32  C   UNL     1      -4.906   3.358  25.317  0.00  0.00    +0.001 A 
ATOM     33  C   UNL     1      -4.765   3.948  24.759  0.00  0.00    +0.000 A 
ATOM     34  C   UNL     1      -4.142   3.869  24.223  0.00  0.00    +0.001 A 
ATOM     35  C   UNL     1      -3.660   3.200  24.247  0.00  0.00    +0.015 A 
ENDBRANCH  27  30
ENDBRANCH  23  24
ENDBRANCH  22  23
TORSDOF 7
ENDMDL
MODEL 2
REMARK VINA RESULT:     -11.0      4.289      5.734
REMARK  Name = 
REMARK  7 active torsions:
REMARK  status: ('A' for Active; 'I' for Inactive)
REMARK    1  A    between atoms: C_2  and  C_5
REMARK    2  A    between atoms: C_8  and  C_11
REMARK    3  A    between atoms: N_13  and  C_14
REMARK    4  A    between atoms: C_14  and  C_15
REMARK    5  A    between atoms: C_22  and  C_23
REMARK    6  A    between atoms: C_23  and  N_24
REMARK    7  A    between atoms: N_27  and  C_30
REMARK                            x       y       z     vdW  Elec       q    Type
REMARK                         _______ _______ _______ _____ _____    ______ ____
ROOT
ATOM     15  C   UNL     1      -5.296   0.691  24.909  0.00  0.00    +0.079 C 
ATOM     16  C   UNL     1      -5.724   1.181  25.337  0.00  0.00    +0.018 C 
ATOM     17  C   UNL     1      -5.552   1.960  25.474  0.00  0.00    +0.005 C 
ATOM     18  C   UNL     1      -6.170   2.352  25.992  0.00  0.00    +0.017 C 
ATOM     19  C   UNL     1      -5.896   1.860  25.662  0.00  0.00    +0.072 C 
ATOM     20  N   UNL     1      -5.128   1.486  25.054  0.00  0.00    -0.272 NA
ATOM     21  C   UNL     1      -4.440   2.022  24.785  0.00  0.00    +0.073 C 
ATOM     22  C   UNL     1      -4.887   2.470  25.212  0.00  0.00    +0.032 C 
ENDROOT
BRANCH  15  14
ATOM     14  C   UNL     1      -5.136  -0.046  24.574  0.00  0.00    +0.131 C 
BRANCH  14  13
ATOM     11  C   UNL     1      -4.230  -1.124  24.335  0.00  0.00    +0.265 C 
ATOM     12  O   UNL     1      -4.773  -1.466  23.817  0.00  0.00    -0.268 OA
ATOM     13  N   UNL     1      -4.412  -0.414  24.714  0.00  0.00    -0.200 NA
BRANCH  11   8
ATOM      5  C   UNL     1      -2.056  -2.229  24.754  0.00  0.00    +0.071 A 
ATOM      6  C   UNL     1      -2.758  -2.604  24.974  0.00  0.00    +0.004 A 
ATOM      7  C   UNL     1      -3.483  -2.235  24.835  0.00  0.00    +0.005 A 
ATOM      8  C   UNL     1      -3.506  -1.493  24.475  0.00  0.00    +0.055 A 
ATOM      9  C   UNL     1      -2.804  -1.119  24.255  0.00  0.00    +0.005 A 
ATOM     10  C   UNL     1      -2.079  -1.488  24.395  0.00  0.00    +0.004 A 
BRANCH   5   2
ATOM      1  F   UNL     1      -0.607  -2.967  25.035  0.00  0.00    -0.166 F 
ATOM      2  C   UNL     1      -1.332  -2.599  24.894  0.00  0.00    +0.419 C 
ATOM      3  F   UNL     1      -1.210  -2.109  25.548  0.00  0.00    -0.166 F 
ATOM      4  F   UNL     1      -1.453  -3.087  24.241  0.00  0.00    -0.166 F 
ENDBRANCH   5   2
ENDBRANCH  11   8
ENDBRANCH  14  13
ENDBRANCH  15  14
BRANCH  22  23
ATOM     23  C   UNL     1      -4.771   3.268  25.390  0.00  0.00    +0.074 C 
BRANCH  23  24
ATOM     24  N   UNL     1      -4.025   3.606  25.297  0.00  0.00    -0.270 NA
ATOM     25  C   UNL     1      -3.773   3.851  24.550  0.00  0.00    +0.094 C 
ATOM     26  C   UNL     1      -3.027   4.189  24.457  0.00  0.00    +0.108 C 
ATOM     27  N   UNL     1      -2.531   4.282  25.109  0.00  0.00    -0.305 N 
ATOM     28  C   UNL     1      -2.782   4.038  25.856  0.00  0.00    +0.108 C 
ATOM     29  C   UNL     1      -3.529   3.699  25.950  0.00  0.00    +0.094 C 
BRANCH  27  30
ATOM     30  C   UNL     1      -1.785   4.620  25.016  0.00  0.00    +0.048 A 
ATOM     31  C   UNL     1      -1.120   4.137  24.938  0.00  0.00    +0.015 A 
ATOM     32  C   UNL     1      -0.373   4.475  24.845  0.00  0.00    +0.001 A 
ATOM     33  C   UNL     1      -0.290   5.296  24.829  0.00  0.00    +0.000 A 
ATOM     34  C   UNL     1      -0.955   5.779  24.907  0.00  0.00    +0.001 A 
ATOM     35  C   UNL     1      -1.702   5.441  25.000  0.00  0.00    +0.015 A 
ENDBRANCH  27  30
ENDBRANCH  23  24
ENDBRANCH  22  23
TORSDOF 7
ENDMDL
MODEL 3
REMARK VINA RESULT:     -11.0      4.207      6.258
REMARK  Name = 
REMARK  7 active torsions:
REMARK  status: ('A' for Active; 'I' for Inactive)
REMARK    1  A    between atoms: C_2  and  C_5
REMARK    2  A    between atoms: C_8  and  C_11
REMARK    3  A    between atoms: N_13  and  C_14
REMARK    4  A    between atoms: C_14  and  C_15
REMARK    5  A    between atoms: C_22  and  C_23
REMARK    6  A    between atoms: C_23  and  N_24
REMARK    7  A    between atoms: N_27  and  C_30
REMARK                            x       y       z     vdW  Elec       q    Type
REMARK                         _______ _______ _______ _____ _____    ______ ____
ROOT
ATOM     15  C   UNL     1      -4.881   2.962  25.641  0.00  0.00    +0.079 C 
ATOM     16  C   UNL     1      -5.534   2.621  25.391  0.00  0.00    +0.018 C 
ATOM     17  C   UNL     1      -5.602   1.851  25.150  0.00  0.00    +0.005 C 
ATOM     18  C   UNL     1      -6.440   1.651  24.899  0.00  0.00    +0.017 C 
ATOM     19  C   UNL     1      -5.960   2.036  25.122  0.00  0.00    +0.072 C 
ATOM     20  N   UNL     1      -4.958   2.178  25.394  0.00  0.00    -0.272 NA
ATOM     21  C   UNL     1      -4.356   1.495  25.334  0.00  0.00    +0.073 C 
ATOM     22  C   UNL     1      -5.017   1.198  25.095  0.00  0.00    +0.032 C 
ENDROOT
BRANCH  15  14
ATOM     14  C   UNL     1      -4.450   3.604  25.927  0.00  0.00    +0.131 C 
BRANCH  14  13
ATOM     11  C   UNL     1      -3.150   4.194  26.000  0.00  0.00    +0.265 C 
ATOM     12  O   UNL     1      -3.266   4.348  26.802  0.00  0.00    -0.268 OA
ATOM     13  N   UNL     1      -3.742   3.821  25.562  0.00  0.00    -0.200 NA
BRANCH  11   8
ATOM      5  C   UNL     1      -1.029   4.847  24.906  0.00  0.00    +0.071 A 
ATOM      6  C   UNL     1      -1.655   5.383  24.945  0.00  0.00    +0.004 A 
ATOM      7  C   UNL     1      -2.362   5.166  25.310  0.00  0.00    +0.005 A 
ATOM      8  C   UNL     1      -2.443   4.411  25.636  0.00  0.00    +0.055 A 
ATOM      9  C   UNL     1      -1.818   3.876  25.596  0.00  0.00    +0.005 A 
ATOM     10  C   UNL     1      -1.110   4.093  25.232  0.00  0.00    +0.004 A 
BRANCH   5   2
ATOM      1  F   UNL     1       0.385   5.284  24.177  0.00  0.00    -0.166 F 
ATOM      2  C   UNL     1      -0.322   5.065  24.541  0.00  0.00    +0.419 C 
ATOM      3  F   UNL     1      -0.341   5.788  24.941  0.00  0.00    -0.166 F 
ATOM      4  F   UNL     1      -0.304   4.343  24.142  0.00  0.00    -0.166 F 
ENDBRANCH   5   2
ENDBRANCH  11   8
ENDBRANCH  14  13
ENDBRANCH  15  14
BRANCH  22  23
ATOM     23  C   UNL     1      -5.154   0.426  24.838  0.00  0.00    +0.074 C 
BRANCH  23  24
ATOM     24  N   UNL     1      -4.527  -0.105  24.779  0.00  0.00    -0.270 NA
ATOM     25  C   UNL     1      -4.183  -0.258  24.044  0.00  0.00    +0.094 C 
ATOM     26  C   UNL     1      -3.555  -0.790  23.985  0.00  0.00    +0.108 C 
ATOM     27  N   UNL     1      -3.271  -1.169  24.659  0.00  0.00    -0.305 N 
ATOM     28  C   UNL     1      -3.613  -1.017  25.394  0.00  0.00    +0.108 C 
ATOM     29  C   UNL     1      -4.241  -0.485  25.454  0.00  0.00    +0.094 C 
BRANCH  27  30
ATOM     30  C   UNL     1      -2.643  -1.701  24.600  0.00  0.00    +0.048 A 
ATOM     31  C   UNL     1      -1.869  -1.440  24.719  0.00  0.00    +0.015 A 
ATOM     32  C   UNL     1      -1.241  -1.972  24.660  0.00  0.00    +0.001 A 
ATOM     33  C   UNL     1      -1.386  -2.764  24.482  0.00  0.00    +0.000 A 
ATOM     34  C   UNL     1      -2.160  -3.025  24.364  0.00  0.00    +0.001 A 
ATOM     35  C   UNL     1      -2.788  -2.493  24.423  0.00  0.00    +0.015 A 
ENDBRANCH  27  30
ENDBRANCH  23  24
ENDBRANCH  22  23
TORSDOF 7
ENDMDL
MODEL 4
REMARK VINA RESULT:     -10.3      4.175      6.703
REMARK  Name = 
REMARK  7 active torsions:
REMARK  status: ('A' for Active; 'I' for Inactive)
REMARK    1  A    between atoms: C_2  and  C_5
REMARK    2  A    between atoms: C_8  and  C_11
REMARK    3  A    between atoms: N_13  and  C_14
REMARK    4  A    between atoms: C_14  and  C_15
REMARK    5  A    between atoms: C_22  and  C_23
REMARK    6  A    between atoms: C_23  and  N_24
REMARK    7  A    between atoms: N_27  and  C_30
REMARK                            x       y       z     vdW  Elec       q    Type
REMARK                         _______ _______ _______ _____ _____    ______ ____
ROOT
ATOM     15  C   UNL     1      -0.461   2.853  24.786  0.00  0.00    +0.079 C 
ATOM     16  C   UNL     1       0.173   2.529  24.471  0.00  0.00    +0.018 C 
ATOM     17  C   UNL     1       0.293   1.735  24.366  0.00  0.00    +0.005 C 
ATOM     18  C   UNL     1       1.088   1.566  23.987  0.00  0.00    +0.017 C 
ATOM     19  C   UNL     1       0.613   1.943  24.230  0.00  0.00    +0.072 C 
ATOM     20  N   UNL     1      -0.331   2.046  24.675  0.00  0.00    -0.272 NA
ATOM     21  C   UNL     1      -0.841   1.313  24.866  0.00  0.00    +0.073 C 
ATOM     22  C   UNL     1      -0.202   1.035  24.552  0.00  0.00    +0.032 C 
ENDROOT
BRANCH  15  14
ATOM     14  C   UNL     1      -0.911   3.498  25.035  0.00  0.00    +0.131 C 
BRANCH  14  13
ATOM     11  C   UNL     1      -2.188   4.089  25.282  0.00  0.00    +0.265 C 
ATOM     12  O   UNL     1      -1.831   4.827  25.364  0.00  0.00    -0.268 OA
ATOM     13  N   UNL     1      -1.728   3.424  25.117  0.00  0.00    -0.200 NA
BRANCH  11   8
ATOM      5  C   UNL     1      -4.640   3.866  25.530  0.00  0.00    +0.071 A 
ATOM      6  C   UNL     1      -4.302   3.880  24.777  0.00  0.00    +0.004 A 
ATOM      7  C   UNL     1      -3.484   3.954  24.695  0.00  0.00    +0.005 A 
ATOM      8  C   UNL     1      -3.006   4.014  25.364  0.00  0.00    +0.055 A 
ATOM      9  C   UNL     1      -3.345   4.000  26.116  0.00  0.00    +0.005 A 
ATOM     10  C   UNL     1      -4.162   3.926  26.199  0.00  0.00    +0.004 A 
BRANCH   5   2
ATOM      1  F   UNL     1      -6.276   3.718  25.693  0.00  0.00    -0.166 F 
ATOM      2  C   UNL     1      -5.458   3.791  25.611  0.00  0.00    +0.419 C 
ATOM      3  F   UNL     1      -5.553   4.570  25.354  0.00  0.00    -0.166 F 
ATOM      4  F   UNL     1      -5.363   3.013  25.868  0.00  0.00    -0.166 F 
ENDBRANCH   5   2
ENDBRANCH  11   8
ENDBRANCH  14  13
ENDBRANCH  15  14
BRANCH  22  23
ATOM     23  C   UNL     1      -0.017   0.242  24.417  0.00  0.00    +0.074 C 
BRANCH  23  24
ATOM     24  N   UNL     1      -0.605  -0.333  24.471  0.00  0.00    -0.270 NA
ATOM     25  C   UNL     1      -0.634  -0.833  25.127  0.00  0.00    +0.094 C 
ATOM     26  C   UNL     1      -1.223  -1.409  25.181  0.00  0.00    +0.108 C 
ATOM     27  N   UNL     1      -1.782  -1.484  24.580  0.00  0.00    -0.305 N 
ATOM     28  C   UNL     1      -1.754  -0.985  23.924  0.00  0.00    +0.108 C 
ATOM     29  C   UNL     1      -1.165  -0.409  23.870  0.00  0.00    +0.094 C 
BRANCH  27  30
ATOM     30  C   UNL     1      -2.371  -2.060  24.634  0.00  0.00    +0.048 A 
ATOM     31  C   UNL     1      -3.063  -1.904  25.055  0.00  0.00    +0.015 A 
ATOM     32  C   UNL     1      -3.652  -2.479  25.109  0.00  0.00    +0.001 A 
ATOM     33  C   UNL     1      -3.548  -3.211  24.742  0.00  0.00    +0.000 A 
ATOM     34  C   UNL     1      -2.856  -3.367  24.321  0.00  0.00    +0.001 A 
ATOM     35  C   UNL     1      -2.267  -2.791  24.267  0.00  0.00    +0.015 A 
ENDBRANCH  27  30
ENDBRANCH  23  24
ENDBRANCH  22  23
TORSDOF 7
ENDMDL
MODEL 5
REMARK VINA RESULT:     -10.3      1.760      2.779
REMARK  Name = 
REMARK  7 active torsions:
REMARK  status: ('A' for Active; 'I' for Inactive)
REMARK    1  A    between atoms: C_2  and  C_5
REMARK    2  A    between atoms: C_8  and  C_11
REMARK    3  A    between atoms: N_13  and  C_14
REMARK    4  A    between atoms: C_14  and  C_15
REMARK    5  A    between atoms: C_22  and  C_23
REMARK    6  A    between atoms: C_23  and  N_24
REMARK    7  A    between atoms: N_27  and  C_30
REMARK                            x       y       z     vdW  Elec       q    Type
REMARK                         _______ _______ _______ _____ _____    ______ ____
ROOT
ATOM     15  C   UNL     1       1.013   1.335  23.703  0.00  0.00    +0.079 C 
ATOM     16  C   UNL     1       0.734   1.768  24.286  0.00  0.00    +0.018 C 
ATOM     17  C   UNL     1       0.041   1.635  24.683  0.00  0.00    +0.005 C 
ATOM     18  C   UNL     1      -0.101   2.249  25.321  0.00  0.00    +0.017 C 
ATOM     19  C   UNL     1       0.224   1.963  24.832  0.00  0.00    +0.072 C 
ATOM     20  N   UNL     1       0.308   1.206  24.112  0.00  0.00    -0.272 NA
ATOM     21  C   UNL     1      -0.336   0.564  24.031  0.00  0.00    +0.073 C 
ATOM     22  C   UNL     1      -0.575   1.015  24.600  0.00  0.00    +0.032 C 
ENDROOT
BRANCH  15  14
ATOM     14  C   UNL     1       1.573   1.150  23.127  0.00  0.00    +0.131 C 
BRANCH  14  13
ATOM     11  C   UNL     1       2.840   0.565  22.820  0.00  0.00    +0.265 C 
ATOM     12  O   UNL     1       2.563   0.358  22.071  0.00  0.00    -0.268 OA
ATOM     13  N   UNL     1       2.345   0.961  23.348  0.00  0.00    -0.200 NA
BRANCH  11   8
ATOM      5  C   UNL     1       5.156  -0.002  23.483  0.00  0.00    +0.071 A 
ATOM      6  C   UNL     1       4.558  -0.567  23.551  0.00  0.00    +0.004 A 
ATOM      7  C   UNL     1       3.786  -0.378  23.330  0.00  0.00    +0.005 A 
ATOM      8  C   UNL     1       3.612   0.376  23.041  0.00  0.00    +0.055 A 
ATOM      9  C   UNL     1       4.210   0.939  22.973  0.00  0.00    +0.005 A 
ATOM     10  C   UNL     1       4.982   0.750  23.194  0.00  0.00    +0.004 A 
BRANCH   5   2
ATOM      1  F   UNL     1       6.700  -0.382  23.925  0.00  0.00    -0.166 F 
ATOM      2  C   UNL     1       5.928  -0.192  23.704  0.00  0.00    +0.419 C 
ATOM      3  F   UNL     1       6.148  -0.218  22.909  0.00  0.00    -0.166 F 
ATOM      4  F   UNL     1       5.707  -0.167  24.499  0.00  0.00    -0.166 F 
ENDBRANCH   5   2
ENDBRANCH  11   8
ENDBRANCH  14  13
ENDBRANCH  15  14
BRANCH  22  23
ATOM     23  C   UNL     1      -1.267   0.936  25.043  0.00  0.00    +0.074 C 
BRANCH  23  24
ATOM     24  N   UNL     1      -1.787   0.316  24.887  0.00  0.00    -0.270 NA
ATOM     25  C   UNL     1      -2.411   0.424  24.357  0.00  0.00    +0.094 C 
ATOM     26  C   UNL     1      -2.931  -0.196  24.201  0.00  0.00    +0.108 C 
ATOM     27  N   UNL     1      -2.829  -0.925  24.573  0.00  0.00    -0.305 N 
ATOM     28  C   UNL     1      -2.206  -1.034  25.103  0.00  0.00    +0.108 C 
ATOM     29  C   UNL     1      -1.685  -0.413  25.259  0.00  0.00    +0.094 C 
BRANCH  27  30
ATOM     30  C   UNL     1      -3.350  -1.545  24.417  0.00  0.00    +0.048 A 
ATOM     31  C   UNL     1      -3.174  -2.307  24.681  0.00  0.00    +0.015 A 
ATOM     32  C   UNL     1      -3.695  -2.928  24.525  0.00  0.00    +0.001 A 
ATOM     33  C   UNL     1      -4.391  -2.787  24.105  0.00  0.00    +0.000 A 
ATOM     34  C   UNL     1      -4.566  -2.025  23.841  0.00  0.00    +0.001 A 
ATOM     35  C   UNL     1      -4.045  -1.404  23.997  0.00  0.00    +0.015 A 
ENDBRANCH  27  30
ENDBRANCH  23  24
ENDBRANCH  22  23
TORSDOF 7
ENDMDL
MODEL 6
REMARK VINA RESULT:     -10.3      3.844      5.015
REMARK  Name = 
REMARK  7 active torsions:
REMARK  status: ('A' for Active; 'I' for Inactive)
REMARK    1  A    between atoms: C_2  and  C_5
REMARK    2  A    between atoms: C_8  and  C_11
REMARK    3  A    between atoms: N_13  and  C_14
REMARK    4  A    between atoms: C_14  and  C_15
REMARK    5  A    between atoms: C_22  and  C_23
REMARK    6  A    between atoms: C_23  and  N_24
REMARK    7  A    between atoms: N_27  and  C_30
REMARK                            x       y       z     vdW  Elec       q    Type
REMARK                         _______ _______ _______ _____ _____    ______ ____
ROOT
ATOM     15  C   UNL     1      -0.186   0.808  24.593  0.00  0.00    +0.079 C 
ATOM     16  C   UNL     1       0.138   1.499  24.441  0.00  0.00    +0.018 C 
ATOM     17  C   UNL     1      -0.241   2.214  24.468  0.00  0.00    +0.005 C 
ATOM     18  C   UNL     1       0.309   2.891  24.259  0.00  0.00    +0.017 C 
ATOM     19  C   UNL     1       0.146   2.267  24.363  0.00  0.00    +0.072 C 
ATOM     20  N   UNL     1      -0.565   1.541  24.619  0.00  0.00    -0.272 NA
ATOM     21  C   UNL     1      -1.424   1.777  24.818  0.00  0.00    +0.073 C 
ATOM     22  C   UNL     1      -1.068   2.434  24.661  0.00  0.00    +0.032 C 
ENDROOT
BRANCH  15  14
ATOM     14  C   UNL     1      -0.167  -0.013  24.669  0.00  0.00    +0.131 C 
BRANCH  14  13
ATOM     11  C   UNL     1      -0.898  -1.224  24.870  0.00  0.00    +0.265 C 
ATOM     12  O   UNL     1      -0.244  -1.557  25.246  0.00  0.00    -0.268 OA
ATOM     13  N   UNL     1      -0.860  -0.452  24.582  0.00  0.00    -0.200 NA
BRANCH  11   8
ATOM      5  C   UNL     1      -2.976  -2.541  24.608  0.00  0.00    +0.071 A 
ATOM      6  C   UNL     1      -2.293  -2.765  24.205  0.00  0.00    +0.004 A 
ATOM      7  C   UNL     1      -1.600  -2.327  24.292  0.00  0.00    +0.005 A 
ATOM      8  C   UNL     1      -1.591  -1.663  24.783  0.00  0.00    +0.055 A 
ATOM      9  C   UNL     1      -2.274  -1.439  25.186  0.00  0.00    +0.005 A 
ATOM     10  C   UNL     1      -2.967  -1.878  25.098  0.00  0.00    +0.004 A 
BRANCH   5   2
ATOM      1  F   UNL     1      -4.362  -3.420  24.431  0.00  0.00    -0.166 F 
ATOM      2  C   UNL     1      -3.669  -2.980  24.520  0.00  0.00    +0.419 C 
ATOM      3  F   UNL     1      -3.794  -2.634  23.781  0.00  0.00    -0.166 F 
ATOM      4  F   UNL     1      -3.544  -3.327  25.258  0.00  0.00    -0.166 F 
ENDBRANCH   5   2
ENDBRANCH  11   8
ENDBRANCH  14  13
ENDBRANCH  15  14
BRANCH  22  23
ATOM     23  C   UNL     1      -1.394   3.192  24.670  0.00  0.00    +0.074 C 
BRANCH  23  24
ATOM     24  N   UNL     1      -2.194   3.295  24.840  0.00  0.00    -0.270 NA
ATOM     25  C   UNL     1      -2.757   3.198  24.244  0.00  0.00    +0.094 C 
ATOM     26  C   UNL     1      -3.558   3.301  24.414  0.00  0.00    +0.108 C 
ATOM     27  N   UNL     1      -3.796   3.500  25.178  0.00  0.00    -0.305 N 
ATOM     28  C   UNL     1      -3.233   3.597  25.774  0.00  0.00    +0.108 C 
ATOM     29  C   UNL     1      -2.432   3.495  25.604  0.00  0.00    +0.094 C 
BRANCH  27  30
ATOM     30  C   UNL     1      -4.597   3.603  25.347  0.00  0.00    +0.048 A 
ATOM     31  C   UNL     1      -5.065   2.951  25.539  0.00  0.00    +0.015 A 
ATOM     32  C   UNL     1      -5.866   3.054  25.708  0.00  0.00    +0.001 A 
ATOM     33  C   UNL     1      -6.198   3.808  25.687  0.00  0.00    +0.000 A 
ATOM     34  C   UNL     1      -5.730   4.460  25.495  0.00  0.00    +0.001 A 
ATOM     35  C   UNL     1      -4.929   4.358  25.326  0.00  0.00    +0.015 A 
ENDBRANCH  27  30
ENDBRANCH  23  24
ENDBRANCH  22  23
TORSDOF 7
ENDMDL
MODEL 7
REMARK VINA RESULT:      -9.3      1.482      1.993
REMARK  Name = 
REMARK  7 active torsions:
REMARK  status: ('A' for Active; 'I' for Inactive)
REMARK    1  A    between atoms: C_2  and  C_5
REMARK    2  A    between atoms: C_8  and  C_11
REMARK    3  A    between atoms: N_13  and  C_14
REMARK    4  A    between atoms: C_14  and  C_15
REMARK    5  A    between atoms: C_22  and  C_23
REMARK    6  A    between atoms: C_23  and  N_24
REMARK    7  A    between atoms: N_27  and  C_30
REMARK                            x       y       z     vdW  Elec       q    Type
REMARK                         _______ _______ _______ _____ _____    ______ ____
ROOT
ATOM     15  C   UNL     1       0.509   1.587  24.030  0.00  0.00    +0.079 C 
ATOM     16  C   UNL     1       0.482   2.069  24.641  0.00  0.00    +0.018 C 
ATOM     17  C   UNL     1      -0.145   2.539  24.844  0.00  0.00    +0.005 C 
ATOM     18  C   UNL     1       0.024   3.021  25.581  0.00  0.00    +0.017 C 
ATOM     19  C   UNL     1       0.157   2.590  25.108  0.00  0.00    +0.072 C 
ATOM     20  N   UNL     1      -0.127   2.068  24.244  0.00  0.00    -0.272 NA
ATOM     21  C   UNL     1      -0.950   2.193  23.871  0.00  0.00    +0.073 C 
ATOM     22  C   UNL     1      -0.936   2.654  24.480  0.00  0.00    +0.032 C 
ENDROOT
BRANCH  15  14
ATOM     14  C   UNL     1       0.880   1.031  23.548  0.00  0.00    +0.131 C 
BRANCH  14  13
ATOM     11  C   UNL     1       2.081   0.459  23.027  0.00  0.00    +0.265 C 
ATOM     12  O   UNL     1       1.646   0.077  22.441  0.00  0.00    -0.268 OA
ATOM     13  N   UNL     1       1.698   0.936  23.581  0.00  0.00    -0.200 NA
BRANCH  11   8
ATOM      5  C   UNL     1       4.538   0.176  23.127  0.00  0.00    +0.071 A 
ATOM      6  C   UNL     1       4.042  -0.441  23.360  0.00  0.00    +0.004 A 
ATOM      7  C   UNL     1       3.223  -0.347  23.327  0.00  0.00    +0.005 A 
ATOM      8  C   UNL     1       2.900   0.365  23.060  0.00  0.00    +0.055 A 
ATOM      9  C   UNL     1       3.396   0.981  22.827  0.00  0.00    +0.005 A 
ATOM     10  C   UNL     1       4.215   0.886  22.861  0.00  0.00    +0.004 A 
BRANCH   5   2
ATOM      1  F   UNL     1       6.175  -0.015  23.195  0.00  0.00    -0.166 F 
ATOM      2  C   UNL     1       5.357   0.081  23.160  0.00  0.00    +0.419 C 
ATOM      3  F   UNL     1       5.314   0.013  23.982  0.00  0.00    -0.166 F 
ATOM      4  F   UNL     1       5.399   0.148  22.339  0.00  0.00    -0.166 F 
ENDBRANCH   5   2
ENDBRANCH  11   8
ENDBRANCH  14  13
ENDBRANCH  15  14
BRANCH  22  23
ATOM     23  C   UNL     1      -1.537   3.155  24.742  0.00  0.00    +0.074 C 
BRANCH  23  24
ATOM     24  N   UNL     1      -2.314   2.882  24.778  0.00  0.00    -0.270 NA
ATOM     25  C   UNL     1      -2.627   2.623  25.497  0.00  0.00    +0.094 C 
ATOM     26  C   UNL     1      -3.404   2.350  25.533  0.00  0.00    +0.108 C 
ATOM     27  N   UNL     1      -3.869   2.335  24.852  0.00  0.00    -0.305 N 
ATOM     28  C   UNL     1      -3.557   2.594  24.133  0.00  0.00    +0.108 C 
ATOM     29  C   UNL     1      -2.779   2.867  24.097  0.00  0.00    +0.094 C 
BRANCH  27  30
ATOM     30  C   UNL     1      -4.647   2.062  24.889  0.00  0.00    +0.048 A 
ATOM     31  C   UNL     1      -4.808   1.260  24.776  0.00  0.00    +0.015 A 
ATOM     32  C   UNL     1      -5.585   0.987  24.813  0.00  0.00    +0.001 A 
ATOM     33  C   UNL     1      -6.202   1.514  24.962  0.00  0.00    +0.000 A 
ATOM     34  C   UNL     1      -6.041   2.316  25.074  0.00  0.00    +0.001 A 
ATOM     35  C   UNL     1      -5.263   2.589  25.038  0.00  0.00    +0.015 A 
ENDBRANCH  27  30
ENDBRANCH  23  24
ENDBRANCH  22  23
TORSDOF 7
ENDMDL
MODEL 8
REMARK VINA RESULT:      -9.2      3.932      5.580
REMARK  Name = 
REMARK  7 active torsions:
REMARK  status: ('A' for Active; 'I' for Inactive)
REMARK    1  A    between atoms: C_2  and  C_5
REMARK    2  A    between atoms: C_8  and  C_11
REMARK    3  A    between atoms: N_13  and  C_14
REMARK    4  A    between atoms: C_14  and  C_15
REMARK    5  A    between atoms: C_22  and  C_23
REMARK    6  A    between atoms: C_23  and  N_24
REMARK    7  A    between atoms: N_27  and  C_30
REMARK                            x       y       z     vdW  Elec       q    Type
REMARK                         _______ _______ _______ _____ _____    ______ ____
ROOT
ATOM     15  C   UNL     1      -0.012  -0.810  24.144  0.00  0.00    +0.079 C 
ATOM     16  C   UNL     1       0.519  -0.468  23.689  0.00  0.00    +0.018 C 
ATOM     17  C   UNL     1       0.689   0.323  23.677  0.00  0.00    +0.005 C 
ATOM     18  C   UNL     1       1.333   0.517  23.082  0.00  0.00    +0.017 C 
ATOM     19  C   UNL     1       0.922   0.128  23.410  0.00  0.00    +0.072 C 
ATOM     20  N   UNL     1       0.167  -0.004  24.125  0.00  0.00    -0.272 NA
ATOM     21  C   UNL     1      -0.165   0.706  24.591  0.00  0.00    +0.073 C 
ATOM     22  C   UNL     1       0.365   1.002  24.128  0.00  0.00    +0.032 C 
ENDROOT
BRANCH  15  14
ATOM     14  C   UNL     1      -0.429  -1.464  24.425  0.00  0.00    +0.131 C 
BRANCH  14  13
ATOM     11  C   UNL     1      -1.683  -2.117  24.627  0.00  0.00    +0.265 C 
ATOM     12  O   UNL     1      -1.355  -2.560  25.240  0.00  0.00    -0.268 OA
ATOM     13  N   UNL     1      -1.221  -1.568  24.220  0.00  0.00    -0.200 NA
BRANCH  11   8
ATOM      5  C   UNL     1      -4.059  -2.430  24.011  0.00  0.00    +0.071 A 
ATOM      6  C   UNL     1      -3.790  -1.688  24.251  0.00  0.00    +0.004 A 
ATOM      7  C   UNL     1      -2.998  -1.583  24.457  0.00  0.00    +0.005 A 
ATOM      8  C   UNL     1      -2.475  -2.221  24.422  0.00  0.00    +0.055 A 
ATOM      9  C   UNL     1      -2.745  -2.962  24.181  0.00  0.00    +0.005 A 
ATOM     10  C   UNL     1      -3.537  -3.067  23.975  0.00  0.00    +0.004 A 
BRANCH   5   2
ATOM      1  F   UNL     1      -5.644  -2.638  23.600  0.00  0.00    -0.166 F 
ATOM      2  C   UNL     1      -4.852  -2.533  23.805  0.00  0.00    +0.419 C 
ATOM      3  F   UNL     1      -4.721  -3.344  23.715  0.00  0.00    -0.166 F 
ATOM      4  F   UNL     1      -4.982  -1.724  23.896  0.00  0.00    -0.166 F 
ENDBRANCH   5   2
ENDBRANCH  11   8
ENDBRANCH  14  13
ENDBRANCH  15  14
BRANCH  22  23
ATOM     23  C   UNL     1       0.587   1.795  24.066  0.00  0.00    +0.074 C 
BRANCH  23  24
ATOM     24  N   UNL     1       0.079   2.387  24.334  0.00  0.00    -0.270 NA
ATOM     25  C   UNL     1       0.109   2.631  25.122  0.00  0.00    +0.094 C 
ATOM     26  C   UNL     1      -0.399   3.223  25.390  0.00  0.00    +0.108 C 
ATOM     27  N   UNL     1      -0.937   3.571  24.870  0.00  0.00    -0.305 N 
ATOM     28  C   UNL     1      -0.967   3.328  24.083  0.00  0.00    +0.108 C 
ATOM     29  C   UNL     1      -0.459   2.736  23.815  0.00  0.00    +0.094 C 
BRANCH  27  30
ATOM     30  C   UNL     1      -1.445   4.164  25.138  0.00  0.00    +0.048 A 
ATOM     31  C   UNL     1      -1.272   4.956  24.983  0.00  0.00    +0.015 A 
ATOM     32  C   UNL     1      -1.780   5.548  25.251  0.00  0.00    +0.001 A 
ATOM     33  C   UNL     1      -2.460   5.349  25.674  0.00  0.00    +0.000 A 
ATOM     34  C   UNL     1      -2.632   4.557  25.829  0.00  0.00    +0.001 A 
ATOM     35  C   UNL     1      -2.124   3.965  25.561  0.00  0.00    +0.015 A 
ENDBRANCH  27  30
ENDBRANCH  23  24
ENDBRANCH  22  23
TORSDOF 7
ENDMDL
MODEL 9
REMARK VINA RESULT:      -8.9      3.032      4.299
REMARK  Name = 
REMARK  7 active torsions:
REMARK  status: ('A' for Active; 'I' for Inactive)
REMARK    1  A    between atoms: C_2  and  C_5
REMARK    2  A    between atoms: C_8  and  C_11
REMARK    3  A    between atoms: N_13  and  C_14
REMARK    4  A    between atoms: C_14  and  C_15
REMARK    5  A    between atoms: C_22  and  C_23
REMARK    6  A    between atoms: C_23  and  N_24
REMARK    7  A    between atoms: N_27  and  C_30
REMARK                            x       y       z     vdW  Elec       q    Type
REMARK                         _______ _______ _______ _____ _____    ______ ____
ROOT
ATOM     15  C   UNL     1      -0.227   3.028  24.574  0.00  0.00    +0.079 C 
ATOM     16  C   UNL     1      -0.336   3.787  24.706  0.00  0.00    +0.018 C 
ATOM     17  C   UNL     1      -1.050   4.145  24.840  0.00  0.00    +0.005 C 
ATOM     18  C   UNL     1      -0.962   5.027  24.971  0.00  0.00    +0.017 C 
ATOM     19  C   UNL     1      -0.754   4.420  24.852  0.00  0.00    +0.072 C 
ATOM     20  N   UNL     1      -0.951   3.400  24.711  0.00  0.00    -0.272 NA
ATOM     21  C   UNL     1      -1.805   3.079  24.751  0.00  0.00    +0.073 C 
ATOM     22  C   UNL     1      -1.868   3.829  24.878  0.00  0.00    +0.032 C 
ENDROOT
BRANCH  15  14
ATOM     14  C   UNL     1       0.242   2.368  24.418  0.00  0.00    +0.131 C 
BRANCH  14  13
ATOM     11  C   UNL     1       0.292   0.959  24.185  0.00  0.00    +0.265 C 
ATOM     12  O   UNL     1       0.927   1.066  23.670  0.00  0.00    -0.268 OA
ATOM     13  N   UNL     1      -0.051   1.610  24.559  0.00  0.00    -0.200 NA
BRANCH  11   8
ATOM      5  C   UNL     1      -0.588  -1.314  24.609  0.00  0.00    +0.071 A 
ATOM      6  C   UNL     1      -0.747  -0.705  25.142  0.00  0.00    +0.004 A 
ATOM      7  C   UNL     1      -0.454   0.053  25.001  0.00  0.00    +0.005 A 
ATOM      8  C   UNL     1      -0.002   0.201  24.326  0.00  0.00    +0.055 A 
ATOM      9  C   UNL     1       0.157  -0.408  23.794  0.00  0.00    +0.005 A 
ATOM     10  C   UNL     1      -0.136  -1.166  23.935  0.00  0.00    +0.004 A 
BRANCH   5   2
ATOM      1  F   UNL     1      -1.176  -2.830  24.892  0.00  0.00    -0.166 F 
ATOM      2  C   UNL     1      -0.882  -2.072  24.751  0.00  0.00    +0.419 C 
ATOM      3  F   UNL     1      -1.452  -1.960  24.164  0.00  0.00    -0.166 F 
ATOM      4  F   UNL     1      -0.312  -2.184  25.337  0.00  0.00    -0.166 F 
ENDBRANCH   5   2
ENDBRANCH  11   8
ENDBRANCH  14  13
ENDBRANCH  15  14
BRANCH  22  23
ATOM     23  C   UNL     1      -2.561   4.254  25.020  0.00  0.00    +0.074 C 
BRANCH  23  24
ATOM     24  N   UNL     1      -3.275   3.856  25.126  0.00  0.00    -0.270 NA
ATOM     25  C   UNL     1      -3.711   3.609  24.470  0.00  0.00    +0.094 C 
ATOM     26  C   UNL     1      -4.425   3.210  24.576  0.00  0.00    +0.108 C 
ATOM     27  N   UNL     1      -4.703   3.057  25.337  0.00  0.00    -0.305 N 
ATOM     28  C   UNL     1      -4.268   3.303  25.993  0.00  0.00    +0.108 C 
ATOM     29  C   UNL     1      -3.554   3.702  25.887  0.00  0.00    +0.094 C 
BRANCH  27  30
ATOM     30  C   UNL     1      -5.417   2.658  25.443  0.00  0.00    +0.048 A 
ATOM     31  C   UNL     1      -5.785   2.659  26.182  0.00  0.00    +0.015 A 
ATOM     32  C   UNL     1      -6.499   2.260  26.288  0.00  0.00    +0.001 A 
ATOM     33  C   UNL     1      -6.846   1.859  25.656  0.00  0.00    +0.000 A 
ATOM     34  C   UNL     1      -6.478   1.858  24.917  0.00  0.00    +0.001 A 
ATOM     35  C   UNL     1      -5.764   2.257  24.811  0.00  0.00    +0.015 A 
ENDBRANCH  27  30
ENDBRANCH  23  24
ENDBRANCH  22  23
TORSDOF 7
ENDMDL
MODEL 10
REMARK VINA RESULT:      -8.8      4.588      7.355
REMARK  Name = 
REMARK  7 active torsions:
REMARK  status: ('A' for Active; 'I' for Inactive)
REMARK    1  A    between atoms: C_2  and  C_5
REMARK    2  A    between atoms: C_8  and  C_11
REMARK    3  A    between atoms: N_13  and  C_14
REMARK    4  A    between atoms: C_14  and  C_15
REMARK    5  A    between atoms: C_22  and  C_23
REMARK    6  A    between atoms: C_23  and  N_24
REMARK    7  A    between atoms: N_27  and  C_30
REMARK                            x       y       z     vdW  Elec       q    Type
REMARK                         _______ _______ _______ _____ _____    ______ ____
ROOT
ATOM     15  C   UNL     1      -1.902   3.953  25.014  0.00  0.00    +0.079 C 
ATOM     16  C   UNL     1      -1.127   4.031  25.026  0.00  0.00    +0.018 C 
ATOM     17  C   UNL     1      -0.592   3.423  25.010  0.00  0.00    +0.005 C 
ATOM     18  C   UNL     1       0.253   3.722  25.031  0.00  0.00    +0.017 C 
ATOM     19  C   UNL     1      -0.398   3.778  25.025  0.00  0.00    +0.072 C 
ATOM     20  N   UNL     1      -1.350   3.339  24.998  0.00  0.00    -0.272 NA
ATOM     21  C   UNL     1      -1.446   2.432  24.964  0.00  0.00    +0.073 C 
ATOM     22  C   UNL     1      -0.692   2.552  24.977  0.00  0.00    +0.032 C 
ENDROOT
BRANCH  15  14
ATOM     14  C   UNL     1      -2.671   4.250  25.015  0.00  0.00    +0.131 C 
BRANCH  14  13
ATOM     11  C   UNL     1      -4.032   3.865  24.816  0.00  0.00    +0.265 C 
ATOM     12  O   UNL     1      -4.125   4.475  24.269  0.00  0.00    -0.268 OA
ATOM     13  N   UNL     1      -3.305   3.752  25.189  0.00  0.00    -0.200 NA
BRANCH  11   8
ATOM      5  C   UNL     1      -5.935   2.372  25.338  0.00  0.00    +0.071 A 
ATOM      6  C   UNL     1      -5.399   2.165  24.746  0.00  0.00    +0.004 A 
ATOM      7  C   UNL     1      -4.765   2.663  24.572  0.00  0.00    +0.005 A 
ATOM      8  C   UNL     1      -4.667   3.367  24.990  0.00  0.00    +0.055 A 
ATOM      9  C   UNL     1      -5.203   3.574  25.582  0.00  0.00    +0.005 A 
ATOM     10  C   UNL     1      -5.837   3.076  25.756  0.00  0.00    +0.004 A 
BRANCH   5   2
ATOM      1  F   UNL     1      -7.203   1.375  25.686  0.00  0.00    -0.166 F 
ATOM      2  C   UNL     1      -6.570   1.873  25.512  0.00  0.00    +0.419 C 
ATOM      3  F   UNL     1      -6.322   1.834  26.298  0.00  0.00    -0.166 F 
ATOM      4  F   UNL     1      -6.816   1.913  24.725  0.00  0.00    -0.166 F 
ENDBRANCH   5   2
ENDBRANCH  11   8
ENDBRANCH  14  13
ENDBRANCH  15  14
BRANCH  22  23
ATOM     23  C   UNL     1      -0.096   1.981  24.964  0.00  0.00    +0.074 C 
BRANCH  23  24
ATOM     24  N   UNL     1      -0.292   1.182  24.927  0.00  0.00    -0.270 NA
ATOM     25  C   UNL     1      -0.172   0.759  24.228  0.00  0.00    +0.094 C 
ATOM     26  C   UNL     1      -0.368  -0.041  24.191  0.00  0.00    +0.108 C 
ATOM     27  N   UNL     1      -0.685  -0.420  24.852  0.00  0.00    -0.305 N 
ATOM     28  C   UNL     1      -0.806   0.002  25.551  0.00  0.00    +0.108 C 
ATOM     29  C   UNL     1      -0.609   0.802  25.588  0.00  0.00    +0.094 C 
BRANCH  27  30
ATOM     30  C   UNL     1      -0.882  -1.220  24.815  0.00  0.00    +0.048 A 
ATOM     31  C   UNL     1      -1.608  -1.452  24.499  0.00  0.00    +0.015 A 
ATOM     32  C   UNL     1      -1.805  -2.253  24.462  0.00  0.00    +0.001 A 
ATOM     33  C   UNL     1      -1.276  -2.821  24.741  0.00  0.00    +0.000 A 
ATOM     34  C   UNL     1      -0.549  -2.589  25.057  0.00  0.00    +0.001 A 
ATOM     35  C   UNL     1      -0.353  -1.788  25.094  0.00  0.00    +0.015 A 
ENDBRANCH  27  30
ENDBRANCH  23  24
ENDBRANCH  22  23
TORSDOF 7
ENDMDL
