MODEL 1
REMARK VINA RESULT:      -8.9      0.000      0.000
REMARK  Name = 
REMARK  5 active torsions:
REMARK  status: ('A' for Active; 'I' for Inactive)
REMARK    1  A    between atoms: C_7  and  N_10
REMARK    2  A    between atoms: N_10  and  C_11
REMARK    3  A    between atoms: C_14  and  C_15
REMARK    4  A    between atoms: C_15  and  N_16
REMARK    5  A    between atoms: N_16  and  S_17
REMARK                            x       y       z     vdW  Elec       q    Type
REMARK                         _______ _______ _______ _____ _____    ______ ____
ROOT
ATOM     11  C   UNL     1      -3.473   1.390  24.794  0.00  0.00    +0.135 C 
ATOM     12  C   UNL     1      -2.702   1.171  24.991  0.00  0.00    +0.162 C 
ATOM     13  O   UNL     1      -2.243   1.857  25.026  0.00  0.00    -0.350 OA
ATOM     14  C   UNL     1      -2.731   2.499  24.851  0.00  0.00    +0.166 C 
ATOM     21  C   UNL     1      -3.491   2.210  24.707  0.00  0.00    +0.199 C 
ATOM     22  O   UNL     1      -4.152   2.663  24.511  0.00  0.00    -0.219 OA
ENDROOT
BRANCH  11  10
ATOM     10  N   UNL     1      -4.113   0.878  24.700  0.00  0.00    -0.216 NA
BRANCH  10   7
ATOM      1  C   UNL     1      -3.628  -2.808  24.017  0.00  0.00    +0.095 C 
ATOM      2  C   UNL     1      -3.630  -2.386  24.726  0.00  0.00    +0.226 C 
ATOM      3  O   UNL     1      -3.512  -2.780  25.442  0.00  0.00    -0.275 OA
ATOM      4  N   UNL     1      -3.751  -1.570  24.720  0.00  0.00    -0.279 N 
ATOM      5  C   UNL     1      -3.753  -1.148  25.429  0.00  0.00    +0.095 C 
ATOM      6  C   UNL     1      -3.874  -0.332  25.422  0.00  0.00    +0.039 C 
ATOM      7  C   UNL     1      -3.992   0.062  24.707  0.00  0.00    +0.076 C 
ATOM      8  C   UNL     1      -3.990  -0.360  23.999  0.00  0.00    +0.039 C 
ATOM      9  C   UNL     1      -3.869  -1.176  24.004  0.00  0.00    +0.095 C 
ENDBRANCH  10   7
ENDBRANCH  11  10
BRANCH  14  15
ATOM     15  C   UNL     1      -2.500   3.290  24.823  0.00  0.00    +0.147 C 
BRANCH  15  16
ATOM     16  N   UNL     1      -1.818   3.536  25.219  0.00  0.00    -0.079 NA
BRANCH  16  17
ATOM     17  S   UNL     1      -1.564   4.318  25.157  0.00  0.00    +0.059 S 
ATOM     18  C   UNL     1      -1.309   5.100  25.094  0.00  0.00    +0.197 C 
ATOM     19  O   UNL     1      -2.095   4.538  25.746  0.00  0.00    -0.156 OA
ATOM     20  O   UNL     1      -1.031   4.097  24.566  0.00  0.00    -0.156 OA
ENDBRANCH  16  17
ENDBRANCH  15  16
ENDBRANCH  14  15
TORSDOF 5
ENDMDL
MODEL 2
REMARK VINA RESULT:      -8.2      2.229      5.446
REMARK  Name = 
REMARK  5 active torsions:
REMARK  status: ('A' for Active; 'I' for Inactive)
REMARK    1  A    between atoms: C_7  and  N_10
REMARK    2  A    between atoms: N_10  and  C_11
REMARK    3  A    between atoms: C_14  and  C_15
REMARK    4  A    between atoms: C_15  and  N_16
REMARK    5  A    between atoms: N_16  and  S_17
REMARK                            x       y       z     vdW  Elec       q    Type
REMARK                         _______ _______ _______ _____ _____    ______ ____
ROOT
ATOM     11  C   UNL     1      -1.172   0.741  25.213  0.00  0.00    +0.135 C 
ATOM     12  C   UNL     1      -1.529   0.840  24.476  0.00  0.00    +0.162 C 
ATOM     13  O   UNL     1      -1.965   0.159  24.311  0.00  0.00    -0.350 OA
ATOM     14  C   UNL     1      -1.878  -0.361  24.946  0.00  0.00    +0.166 C 
ATOM     21  C   UNL     1      -1.387  -0.001  25.503  0.00  0.00    +0.199 C 
ATOM     22  O   UNL     1      -1.153  -0.326  26.225  0.00  0.00    -0.219 OA
ENDROOT
BRANCH  11  10
ATOM     10  N   UNL     1      -0.684   1.287  25.593  0.00  0.00    -0.216 NA
BRANCH  10   7
ATOM      1  C   UNL     1      -1.679   4.928  25.375  0.00  0.00    +0.095 C 
ATOM      2  C   UNL     1      -1.064   4.514  25.013  0.00  0.00    +0.226 C 
ATOM      3  O   UNL     1      -0.544   4.906  24.505  0.00  0.00    -0.275 OA
ATOM      4  N   UNL     1      -0.969   3.707  25.158  0.00  0.00    -0.279 N 
ATOM      5  C   UNL     1      -0.354   3.293  24.795  0.00  0.00    +0.095 C 
ATOM      6  C   UNL     1      -0.260   2.486  24.941  0.00  0.00    +0.039 C 
ATOM      7  C   UNL     1      -0.779   2.094  25.448  0.00  0.00    +0.076 C 
ATOM      8  C   UNL     1      -1.393   2.509  25.810  0.00  0.00    +0.039 C 
ATOM      9  C   UNL     1      -1.489   3.315  25.665  0.00  0.00    +0.095 C 
ENDBRANCH  10   7
ENDBRANCH  11  10
BRANCH  14  15
ATOM     15  C   UNL     1      -2.220  -1.108  25.012  0.00  0.00    +0.147 C 
BRANCH  15  16
ATOM     16  N   UNL     1      -2.776  -1.359  24.456  0.00  0.00    -0.079 NA
BRANCH  16  17
ATOM     17  S   UNL     1      -3.141  -2.093  24.539  0.00  0.00    +0.059 S 
ATOM     18  C   UNL     1      -3.508  -2.828  24.623  0.00  0.00    +0.197 C 
ATOM     19  O   UNL     1      -2.463  -2.464  24.253  0.00  0.00    -0.156 OA
ATOM     20  O   UNL     1      -3.820  -1.722  24.826  0.00  0.00    -0.156 OA
ENDBRANCH  16  17
ENDBRANCH  15  16
ENDBRANCH  14  15
TORSDOF 5
ENDMDL
MODEL 3
REMARK VINA RESULT:      -8.1      1.930      5.078
REMARK  Name = 
REMARK  5 active torsions:
REMARK  status: ('A' for Active; 'I' for Inactive)
REMARK    1  A    between atoms: C_7  and  N_10
REMARK    2  A    between atoms: N_10  and  C_11
REMARK    3  A    between atoms: C_14  and  C_15
REMARK    4  A    between atoms: C_15  and  N_16
REMARK    5  A    between atoms: N_16  and  S_17
REMARK                            x       y       z     vdW  Elec       q    Type
REMARK                         _______ _______ _______ _____ _____    ______ ____
ROOT
ATOM     11  C   UNL     1      -4.052   1.153  24.329  0.00  0.00    +0.135 C 
ATOM     12  C   UNL     1      -4.325   0.909  25.069  0.00  0.00    +0.162 C 
ATOM     13  O   UNL     1      -4.210   0.093  25.127  0.00  0.00    -0.350 OA
ATOM     14  C   UNL     1      -3.866  -0.166  24.423  0.00  0.00    +0.166 C 
ATOM     21  C   UNL     1      -3.768   0.489  23.930  0.00  0.00    +0.199 C 
ATOM     22  O   UNL     1      -3.444   0.481  23.171  0.00  0.00    -0.219 OA
ENDROOT
BRANCH  11  10
ATOM     10  N   UNL     1      -4.061   1.925  24.040  0.00  0.00    -0.216 NA
BRANCH  10   7
ATOM      1  C   UNL     1      -1.736   4.535  25.479  0.00  0.00    +0.095 C 
ATOM      2  C   UNL     1      -2.504   4.322  25.690  0.00  0.00    +0.226 C 
ATOM      3  O   UNL     1      -2.884   4.708  26.313  0.00  0.00    -0.275 OA
ATOM      4  N   UNL     1      -2.894   3.723  25.278  0.00  0.00    -0.279 N 
ATOM      5  C   UNL     1      -3.663   3.510  25.488  0.00  0.00    +0.095 C 
ATOM      6  C   UNL     1      -4.052   2.910  25.075  0.00  0.00    +0.039 C 
ATOM      7  C   UNL     1      -3.673   2.525  24.453  0.00  0.00    +0.076 C 
ATOM      8  C   UNL     1      -2.904   2.738  24.242  0.00  0.00    +0.039 C 
ATOM      9  C   UNL     1      -2.514   3.337  24.654  0.00  0.00    +0.095 C 
ENDBRANCH  10   7
ENDBRANCH  11  10
BRANCH  14  15
ATOM     15  C   UNL     1      -3.656  -0.943  24.243  0.00  0.00    +0.147 C 
BRANCH  15  16
ATOM     16  N   UNL     1      -3.871  -1.557  24.752  0.00  0.00    -0.079 NA
BRANCH  16  17
ATOM     17  S   UNL     1      -3.627  -2.329  24.593  0.00  0.00    +0.059 S 
ATOM     18  C   UNL     1      -3.383  -3.101  24.434  0.00  0.00    +0.197 C 
ATOM     19  O   UNL     1      -4.246  -2.415  24.055  0.00  0.00    -0.156 OA
ATOM     20  O   UNL     1      -3.007  -2.243  25.131  0.00  0.00    -0.156 OA
ENDBRANCH  16  17
ENDBRANCH  15  16
ENDBRANCH  14  15
TORSDOF 5
ENDMDL
MODEL 4
REMARK VINA RESULT:      -8.1      1.670      2.121
REMARK  Name = 
REMARK  5 active torsions:
REMARK  status: ('A' for Active; 'I' for Inactive)
REMARK    1  A    between atoms: C_7  and  N_10
REMARK    2  A    between atoms: N_10  and  C_11
REMARK    3  A    between atoms: C_14  and  C_15
REMARK    4  A    between atoms: C_15  and  N_16
REMARK    5  A    between atoms: N_16  and  S_17
REMARK                            x       y       z     vdW  Elec       q    Type
REMARK                         _______ _______ _______ _____ _____    ______ ____
ROOT
ATOM     11  C   UNL     1      -1.086   1.047  25.368  0.00  0.00    +0.135 C 
ATOM     12  C   UNL     1      -1.538   1.197  24.694  0.00  0.00    +0.162 C 
ATOM     13  O   UNL     1      -1.560   2.014  24.578  0.00  0.00    -0.350 OA
ATOM     14  C   UNL     1      -1.122   2.368  25.181  0.00  0.00    +0.166 C 
ATOM     21  C   UNL     1      -0.829   1.771  25.669  0.00  0.00    +0.199 C 
ATOM     22  O   UNL     1      -0.361   1.878  26.340  0.00  0.00    -0.219 OA
ENDROOT
BRANCH  11  10
ATOM     10  N   UNL     1      -0.920   0.304  25.685  0.00  0.00    -0.216 NA
BRANCH  10   7
ATOM      1  C   UNL     1      -3.336  -2.500  24.913  0.00  0.00    +0.095 C 
ATOM      2  C   UNL     1      -2.578  -2.346  24.626  0.00  0.00    +0.226 C 
ATOM      3  O   UNL     1      -2.234  -2.854  24.073  0.00  0.00    -0.275 OA
ATOM      4  N   UNL     1      -2.163  -1.684  24.890  0.00  0.00    -0.279 N 
ATOM      5  C   UNL     1      -1.405  -1.529  24.603  0.00  0.00    +0.095 C 
ATOM      6  C   UNL     1      -0.991  -0.867  24.868  0.00  0.00    +0.039 C 
ATOM      7  C   UNL     1      -1.334  -0.359  25.420  0.00  0.00    +0.076 C 
ATOM      8  C   UNL     1      -2.092  -0.514  25.707  0.00  0.00    +0.039 C 
ATOM      9  C   UNL     1      -2.507  -1.176  25.443  0.00  0.00    +0.095 C 
ENDBRANCH  10   7
ENDBRANCH  11  10
BRANCH  14  15
ATOM     15  C   UNL     1      -0.999   3.178  25.279  0.00  0.00    +0.147 C 
BRANCH  15  16
ATOM     16  N   UNL     1      -1.464   3.720  24.865  0.00  0.00    -0.079 NA
BRANCH  16  17
ATOM     17  S   UNL     1      -1.374   4.529  25.000  0.00  0.00    +0.059 S 
ATOM     18  C   UNL     1      -1.285   5.338  25.135  0.00  0.00    +0.197 C 
ATOM     19  O   UNL     1      -0.655   4.517  24.596  0.00  0.00    -0.156 OA
ATOM     20  O   UNL     1      -2.094   4.540  25.403  0.00  0.00    -0.156 OA
ENDBRANCH  16  17
ENDBRANCH  15  16
ENDBRANCH  14  15
TORSDOF 5
ENDMDL
MODEL 5
REMARK VINA RESULT:      -7.9      2.964      3.909
REMARK  Name = 
REMARK  5 active torsions:
REMARK  status: ('A' for Active; 'I' for Inactive)
REMARK    1  A    between atoms: C_7  and  N_10
REMARK    2  A    between atoms: N_10  and  C_11
REMARK    3  A    between atoms: C_14  and  C_15
REMARK    4  A    between atoms: C_15  and  N_16
REMARK    5  A    between atoms: N_16  and  S_17
REMARK                            x       y       z     vdW  Elec       q    Type
REMARK                         _______ _______ _______ _____ _____    ______ ____
ROOT
ATOM     11  C   UNL     1      -2.403   2.341  24.040  0.00  0.00    +0.135 C 
ATOM     12  C   UNL     1      -2.070   2.185  24.779  0.00  0.00    +0.162 C 
ATOM     13  O   UNL     1      -1.414   1.697  24.665  0.00  0.00    -0.350 OA
ATOM     14  C   UNL     1      -1.342   1.552  23.856  0.00  0.00    +0.166 C 
ATOM     21  C   UNL     1      -1.953   1.950  23.470  0.00  0.00    +0.199 C 
ATOM     22  O   UNL     1      -2.091   1.956  22.656  0.00  0.00    -0.219 OA
ENDROOT
BRANCH  11  10
ATOM     10  N   UNL     1      -3.069   2.807  23.898  0.00  0.00    -0.216 NA
BRANCH  10   7
ATOM      1  C   UNL     1      -6.279   1.905  25.680  0.00  0.00    +0.095 C 
ATOM      2  C   UNL     1      -5.732   2.506  25.823  0.00  0.00    +0.226 C 
ATOM      3  O   UNL     1      -5.851   3.033  26.448  0.00  0.00    -0.275 OA
ATOM      4  N   UNL     1      -5.066   2.582  25.342  0.00  0.00    -0.279 N 
ATOM      5  C   UNL     1      -4.520   3.183  25.485  0.00  0.00    +0.095 C 
ATOM      6  C   UNL     1      -3.854   3.258  25.003  0.00  0.00    +0.039 C 
ATOM      7  C   UNL     1      -3.735   2.732  24.380  0.00  0.00    +0.076 C 
ATOM      8  C   UNL     1      -4.281   2.131  24.237  0.00  0.00    +0.039 C 
ATOM      9  C   UNL     1      -4.947   2.055  24.718  0.00  0.00    +0.095 C 
ENDBRANCH  10   7
ENDBRANCH  11  10
BRANCH  14  15
ATOM     15  C   UNL     1      -0.761   1.090  23.495  0.00  0.00    +0.147 C 
BRANCH  15  16
ATOM     16  N   UNL     1      -0.220   0.672  23.957  0.00  0.00    -0.079 NA
BRANCH  16  17
ATOM     17  S   UNL     1       0.352   0.200  23.597  0.00  0.00    +0.059 S 
ATOM     18  C   UNL     1       0.925  -0.273  23.237  0.00  0.00    +0.197 C 
ATOM     19  O   UNL     1      -0.117  -0.466  23.724  0.00  0.00    -0.156 OA
ATOM     20  O   UNL     1       0.822   0.866  23.470  0.00  0.00    -0.156 OA
ENDBRANCH  16  17
ENDBRANCH  15  16
ENDBRANCH  14  15
TORSDOF 5
ENDMDL
