MODEL 1
REMARK VINA RESULT:     -13.6      0.000      0.000
REMARK  Name = 
REMARK  5 active torsions:
REMARK  status: ('A' for Active; 'I' for Inactive)
REMARK    1  A    between atoms: C_5  and  S_8
REMARK    2  A    between atoms: S_8  and  N_11
REMARK    3  A    between atoms: C_16  and  C_17
REMARK    4  A    between atoms: N_19  and  C_20
REMARK    5  A    between atoms: C_27  and  C_29
REMARK                            x       y       z     vdW  Elec       q    Type
REMARK                         _______ _______ _______ _____ _____    ______ ____
ROOT
ATOM     11  N   UNL     1      -4.187   0.591  24.937  0.00  0.00    -0.145 NA
ATOM     12  C   UNL     1      -4.904   0.871  25.234  0.00  0.00    +0.118 C 
ATOM     13  C   UNL     1      -4.997   1.675  25.395  0.00  0.00    +0.113 C 
ATOM     14  N   UNL     1      -4.373   2.198  25.260  0.00  0.00    -0.273 N 
ATOM     15  C   UNL     1      -3.657   1.917  24.963  0.00  0.00    +0.121 C 
ATOM     16  C   UNL     1      -3.564   1.114  24.801  0.00  0.00    +0.177 C 
ATOM     27  C   UNL     1      -4.466   3.001  25.421  0.00  0.00    +0.251 C 
ATOM     28  O   UNL     1      -5.184   3.282  25.718  0.00  0.00    -0.270 OA
ENDROOT
BRANCH  27  29
ATOM     29  C   UNL     1      -3.843   3.525  25.285  0.00  0.00    +0.073 A 
ATOM     30  C   UNL     1      -3.721   3.835  24.531  0.00  0.00    +0.103 A 
ATOM     31  N   UNL     1      -3.097   4.358  24.397  0.00  0.00    -0.242 NA
ATOM     32  C   UNL     1      -2.597   4.572  25.016  0.00  0.00    +0.099 A 
ATOM     33  C   UNL     1      -2.719   4.262  25.771  0.00  0.00    +0.021 A 
ATOM     34  C   UNL     1      -3.342   3.738  25.906  0.00  0.00    +0.008 A 
ENDBRANCH  27  29
BRANCH  11   8
ATOM      8  S   UNL     1      -4.093  -0.213  24.775  0.00  0.00    +0.064 S 
ATOM      9  O   UNL     1      -3.939  -0.356  25.573  0.00  0.00    -0.153 OA
ATOM     10  O   UNL     1      -4.248  -0.071  23.977  0.00  0.00    -0.153 OA
BRANCH   8   5
ATOM      1  F   UNL     1      -3.720  -3.428  24.130  0.00  0.00    -0.204 F 
ATOM      2  C   UNL     1      -3.814  -2.624  24.291  0.00  0.00    +0.140 A 
ATOM      3  C   UNL     1      -3.596  -2.323  25.029  0.00  0.00    +0.031 A 
ATOM      4  C   UNL     1      -3.690  -1.520  25.190  0.00  0.00    +0.022 A 
ATOM      5  C   UNL     1      -4.000  -1.017  24.614  0.00  0.00    +0.122 A 
ATOM      6  C   UNL     1      -4.217  -1.317  23.877  0.00  0.00    +0.022 A 
ATOM      7  C   UNL     1      -4.124  -2.121  23.716  0.00  0.00    +0.031 A 
ENDBRANCH   8   5
ENDBRANCH  11   8
BRANCH  16  17
ATOM     17  C   UNL     1      -2.846   0.834  24.504  0.00  0.00    +0.260 C 
ATOM     18  O   UNL     1      -2.820   0.476  23.760  0.00  0.00    -0.272 OA
ATOM     19  N   UNL     1      -2.157   0.910  24.949  0.00  0.00    -0.197 NA
BRANCH  19  20
ATOM     20  C   UNL     1      -1.440   0.630  24.652  0.00  0.00    +0.173 C 
ATOM     21  C   UNL     1      -1.275   0.691  23.847  0.00  0.00    +0.033 C 
ATOM     22  C   UNL     1      -0.558   0.411  23.551  0.00  0.00    +0.026 C 
ATOM     23  C   UNL     1      -0.005   0.069  24.061  0.00  0.00    +0.115 C 
ATOM     24  N   UNL     1      -0.171   0.009  24.866  0.00  0.00    -0.204 NA
ATOM     25  C   UNL     1      -0.887   0.289  25.163  0.00  0.00    +0.261 C 
ATOM     26  O   UNL     1      -1.053   0.228  25.969  0.00  0.00    -0.271 OA
ENDBRANCH  19  20
ENDBRANCH  16  17
TORSDOF 5
ENDMDL
MODEL 2
REMARK VINA RESULT:     -11.7      1.453      3.130
REMARK  Name = 
REMARK  5 active torsions:
REMARK  status: ('A' for Active; 'I' for Inactive)
REMARK    1  A    between atoms: C_5  and  S_8
REMARK    2  A    between atoms: S_8  and  N_11
REMARK    3  A    between atoms: C_16  and  C_17
REMARK    4  A    between atoms: N_19  and  C_20
REMARK    5  A    between atoms: C_27  and  C_29
REMARK                            x       y       z     vdW  Elec       q    Type
REMARK                         _______ _______ _______ _____ _____    ______ ____
ROOT
ATOM     11  N   UNL     1      -2.341   1.576  24.662  0.00  0.00    -0.145 NA
ATOM     12  C   UNL     1      -2.234   2.373  24.851  0.00  0.00    +0.118 C 
ATOM     13  C   UNL     1      -2.882   2.834  25.071  0.00  0.00    +0.113 C 
ATOM     14  N   UNL     1      -3.636   2.500  25.101  0.00  0.00    -0.273 N 
ATOM     15  C   UNL     1      -3.741   1.704  24.912  0.00  0.00    +0.121 C 
ATOM     16  C   UNL     1      -3.094   1.242  24.692  0.00  0.00    +0.177 C 
ATOM     27  C   UNL     1      -4.283   2.961  25.320  0.00  0.00    +0.251 C 
ATOM     28  O   UNL     1      -4.177   3.758  25.509  0.00  0.00    -0.270 OA
ENDROOT
BRANCH  27  29
ATOM     29  C   UNL     1      -5.036   2.628  25.351  0.00  0.00    +0.073 A 
ATOM     30  C   UNL     1      -5.464   2.508  24.655  0.00  0.00    +0.103 A 
ATOM     31  N   UNL     1      -6.218   2.175  24.687  0.00  0.00    -0.242 NA
ATOM     32  C   UNL     1      -6.544   1.960  25.413  0.00  0.00    +0.099 A 
ATOM     33  C   UNL     1      -6.117   2.080  26.108  0.00  0.00    +0.021 A 
ATOM     34  C   UNL     1      -5.363   2.413  26.078  0.00  0.00    +0.008 A 
ENDBRANCH  27  29
BRANCH  11   8
ATOM      8  S   UNL     1      -1.693   1.114  24.442  0.00  0.00    +0.064 S 
ATOM      9  O   UNL     1      -1.521   0.977  25.238  0.00  0.00    -0.153 OA
ATOM     10  O   UNL     1      -1.865   1.251  23.647  0.00  0.00    -0.153 OA
BRANCH   8   5
ATOM      1  F   UNL     1       0.897  -0.733  23.565  0.00  0.00    -0.204 F 
ATOM      2  C   UNL     1       0.249  -0.271  23.785  0.00  0.00    +0.140 A 
ATOM      3  C   UNL     1      -0.016  -0.278  24.566  0.00  0.00    +0.031 A 
ATOM      4  C   UNL     1      -0.664   0.184  24.785  0.00  0.00    +0.022 A 
ATOM      5  C   UNL     1      -1.045   0.652  24.223  0.00  0.00    +0.122 A 
ATOM      6  C   UNL     1      -0.780   0.659  23.443  0.00  0.00    +0.022 A 
ATOM      7  C   UNL     1      -0.132   0.197  23.223  0.00  0.00    +0.031 A 
ENDBRANCH   8   5
ENDBRANCH  11   8
BRANCH  16  17
ATOM     17  C   UNL     1      -3.201   0.446  24.503  0.00  0.00    +0.260 C 
ATOM     18  O   UNL     1      -3.011   0.173  23.747  0.00  0.00    -0.272 OA
ATOM     19  N   UNL     1      -3.496  -0.076  25.068  0.00  0.00    -0.197 NA
BRANCH  19  20
ATOM     20  C   UNL     1      -3.603  -0.872  24.879  0.00  0.00    +0.173 C 
ATOM     21  C   UNL     1      -3.827  -1.089  24.116  0.00  0.00    +0.033 C 
ATOM     22  C   UNL     1      -3.934  -1.885  23.928  0.00  0.00    +0.026 C 
ATOM     23  C   UNL     1      -3.816  -2.465  24.504  0.00  0.00    +0.115 C 
ATOM     24  N   UNL     1      -3.592  -2.248  25.267  0.00  0.00    -0.204 NA
ATOM     25  C   UNL     1      -3.486  -1.452  25.455  0.00  0.00    +0.261 C 
ATOM     26  O   UNL     1      -3.262  -1.235  26.219  0.00  0.00    -0.271 OA
ENDBRANCH  19  20
ENDBRANCH  16  17
TORSDOF 5
ENDMDL
MODEL 3
REMARK VINA RESULT:     -11.6      2.299      5.169
REMARK  Name = 
REMARK  5 active torsions:
REMARK  status: ('A' for Active; 'I' for Inactive)
REMARK    1  A    between atoms: C_5  and  S_8
REMARK    2  A    between atoms: S_8  and  N_11
REMARK    3  A    between atoms: C_16  and  C_17
REMARK    4  A    between atoms: N_19  and  C_20
REMARK    5  A    between atoms: C_27  and  C_29
REMARK                            x       y       z     vdW  Elec       q    Type
REMARK                         _______ _______ _______ _____ _____    ______ ____
ROOT
ATOM     11  N   UNL     1      -1.150   1.086  24.847  0.00  0.00    -0.145 NA
ATOM     12  C   UNL     1      -0.510   0.572  24.760  0.00  0.00    +0.118 C 
ATOM     13  C   UNL     1      -0.637  -0.243  24.731  0.00  0.00    +0.113 C 
ATOM     14  N   UNL     1      -1.404  -0.544  24.789  0.00  0.00    -0.273 N 
ATOM     15  C   UNL     1      -2.042  -0.029  24.876  0.00  0.00    +0.121 C 
ATOM     16  C   UNL     1      -1.916   0.785  24.905  0.00  0.00    +0.177 C 
ATOM     27  C   UNL     1      -1.530  -1.357  24.760  0.00  0.00    +0.251 C 
ATOM     28  O   UNL     1      -0.890  -1.872  24.674  0.00  0.00    -0.270 OA
ENDROOT
BRANCH  27  29
ATOM     29  C   UNL     1      -2.296  -1.659  24.818  0.00  0.00    +0.073 A 
ATOM     30  C   UNL     1      -2.644  -1.761  25.559  0.00  0.00    +0.103 A 
ATOM     31  N   UNL     1      -3.410  -2.063  25.616  0.00  0.00    -0.242 NA
ATOM     32  C   UNL     1      -3.827  -2.262  24.933  0.00  0.00    +0.099 A 
ATOM     33  C   UNL     1      -3.479  -2.159  24.192  0.00  0.00    +0.021 A 
ATOM     34  C   UNL     1      -2.713  -1.858  24.134  0.00  0.00    +0.008 A 
ENDBRANCH  27  29
BRANCH  11   8
ATOM      8  S   UNL     1      -1.024   1.901  24.875  0.00  0.00    +0.064 S 
ATOM      9  O   UNL     1      -1.042   1.875  25.700  0.00  0.00    -0.153 OA
ATOM     10  O   UNL     1      -1.005   1.928  24.051  0.00  0.00    -0.153 OA
BRANCH   8   5
ATOM      1  F   UNL     1      -0.517   5.160  24.990  0.00  0.00    -0.204 F 
ATOM      2  C   UNL     1      -0.644   4.345  24.961  0.00  0.00    +0.140 A 
ATOM      3  C   UNL     1      -0.621   3.949  24.237  0.00  0.00    +0.031 A 
ATOM      4  C   UNL     1      -0.748   3.135  24.209  0.00  0.00    +0.022 A 
ATOM      5  C   UNL     1      -0.897   2.716  24.904  0.00  0.00    +0.122 A 
ATOM      6  C   UNL     1      -0.920   3.111  25.627  0.00  0.00    +0.022 A 
ATOM      7  C   UNL     1      -0.793   3.926  25.656  0.00  0.00    +0.031 A 
ENDBRANCH   8   5
ENDBRANCH  11   8
BRANCH  16  17
ATOM     17  C   UNL     1      -2.556   1.299  24.991  0.00  0.00    +0.260 C 
ATOM     18  O   UNL     1      -2.618   1.769  25.667  0.00  0.00    -0.272 OA
ATOM     19  N   UNL     1      -3.133   1.343  24.404  0.00  0.00    -0.197 NA
BRANCH  19  20
ATOM     20  C   UNL     1      -3.773   1.857  24.491  0.00  0.00    +0.173 C 
ATOM     21  C   UNL     1      -4.130   1.950  25.228  0.00  0.00    +0.033 C 
ATOM     22  C   UNL     1      -4.770   2.463  25.314  0.00  0.00    +0.026 C 
ATOM     23  C   UNL     1      -5.052   2.884  24.662  0.00  0.00    +0.115 C 
ATOM     24  N   UNL     1      -4.695   2.790  23.925  0.00  0.00    -0.204 NA
ATOM     25  C   UNL     1      -4.055   2.277  23.838  0.00  0.00    +0.261 C 
ATOM     26  O   UNL     1      -3.697   2.183  23.101  0.00  0.00    -0.271 OA
ENDBRANCH  19  20
ENDBRANCH  16  17
TORSDOF 5
ENDMDL
MODEL 4
REMARK VINA RESULT:     -11.5      1.459      3.192
REMARK  Name = 
REMARK  5 active torsions:
REMARK  status: ('A' for Active; 'I' for Inactive)
REMARK    1  A    between atoms: C_5  and  S_8
REMARK    2  A    between atoms: S_8  and  N_11
REMARK    3  A    between atoms: C_16  and  C_17
REMARK    4  A    between atoms: N_19  and  C_20
REMARK    5  A    between atoms: C_27  and  C_29
REMARK                            x       y       z     vdW  Elec       q    Type
REMARK                         _______ _______ _______ _____ _____    ______ ____
ROOT
ATOM     11  N   UNL     1      -1.859   0.162  24.565  0.00  0.00    -0.145 NA
ATOM     12  C   UNL     1      -1.062   0.033  24.395  0.00  0.00    +0.118 C 
ATOM     13  C   UNL     1      -0.523   0.655  24.451  0.00  0.00    +0.113 C 
ATOM     14  N   UNL     1      -0.781   1.406  24.678  0.00  0.00    -0.273 N 
ATOM     15  C   UNL     1      -1.578   1.534  24.848  0.00  0.00    +0.121 C 
ATOM     16  C   UNL     1      -2.117   0.912  24.792  0.00  0.00    +0.177 C 
ATOM     27  C   UNL     1      -0.243   2.027  24.734  0.00  0.00    +0.251 C 
ATOM     28  O   UNL     1       0.555   1.899  24.563  0.00  0.00    -0.270 OA
ENDROOT
BRANCH  27  29
ATOM     29  C   UNL     1      -0.500   2.778  24.961  0.00  0.00    +0.073 A 
ATOM     30  C   UNL     1      -0.606   2.954  25.760  0.00  0.00    +0.103 A 
ATOM     31  N   UNL     1      -0.863   3.705  25.985  0.00  0.00    -0.242 NA
ATOM     32  C   UNL     1      -1.015   4.279  25.413  0.00  0.00    +0.099 A 
ATOM     33  C   UNL     1      -0.910   4.102  24.614  0.00  0.00    +0.021 A 
ATOM     34  C   UNL     1      -0.652   3.352  24.387  0.00  0.00    +0.008 A 
ENDBRANCH  27  29
BRANCH  11   8
ATOM      8  S   UNL     1      -2.399  -0.461  24.509  0.00  0.00    +0.064 S 
ATOM      9  O   UNL     1      -2.269  -0.645  25.302  0.00  0.00    -0.153 OA
ATOM     10  O   UNL     1      -2.529  -0.276  23.715  0.00  0.00    -0.153 OA
BRANCH   8   5
ATOM      1  F   UNL     1      -4.555  -2.949  24.284  0.00  0.00    -0.204 F 
ATOM      2  C   UNL     1      -4.015  -2.326  24.340  0.00  0.00    +0.140 A 
ATOM      3  C   UNL     1      -3.533  -2.258  25.006  0.00  0.00    +0.031 A 
ATOM      4  C   UNL     1      -2.994  -1.636  25.062  0.00  0.00    +0.022 A 
ATOM      5  C   UNL     1      -2.938  -1.083  24.453  0.00  0.00    +0.122 A 
ATOM      6  C   UNL     1      -3.420  -1.151  23.788  0.00  0.00    +0.022 A 
ATOM      7  C   UNL     1      -3.959  -1.773  23.731  0.00  0.00    +0.031 A 
ENDBRANCH   8   5
ENDBRANCH  11   8
BRANCH  16  17
ATOM     17  C   UNL     1      -2.914   1.040  24.962  0.00  0.00    +0.260 C 
ATOM     18  O   UNL     1      -3.290   0.590  25.544  0.00  0.00    -0.272 OA
ATOM     19  N   UNL     1      -3.336   1.618  24.553  0.00  0.00    -0.197 NA
BRANCH  19  20
ATOM     20  C   UNL     1      -4.133   1.747  24.723  0.00  0.00    +0.173 C 
ATOM     21  C   UNL     1      -4.457   1.458  25.424  0.00  0.00    +0.033 C 
ATOM     22  C   UNL     1      -5.254   1.587  25.594  0.00  0.00    +0.026 C 
ATOM     23  C   UNL     1      -5.727   2.006  25.062  0.00  0.00    +0.115 C 
ATOM     24  N   UNL     1      -5.403   2.294  24.361  0.00  0.00    -0.204 NA
ATOM     25  C   UNL     1      -4.607   2.165  24.191  0.00  0.00    +0.261 C 
ATOM     26  O   UNL     1      -4.282   2.454  23.490  0.00  0.00    -0.271 OA
ENDBRANCH  19  20
ENDBRANCH  16  17
TORSDOF 5
ENDMDL
MODEL 5
REMARK VINA RESULT:     -10.7      2.159      4.310
REMARK  Name = 
REMARK  5 active torsions:
REMARK  status: ('A' for Active; 'I' for Inactive)
REMARK    1  A    between atoms: C_5  and  S_8
REMARK    2  A    between atoms: S_8  and  N_11
REMARK    3  A    between atoms: C_16  and  C_17
REMARK    4  A    between atoms: N_19  and  C_20
REMARK    5  A    between atoms: C_27  and  C_29
REMARK                            x       y       z     vdW  Elec       q    Type
REMARK                         _______ _______ _______ _____ _____    ______ ____
ROOT
ATOM     11  N   UNL     1      -3.395   2.514  25.015  0.00  0.00    -0.145 NA
ATOM     12  C   UNL     1      -4.186   2.502  25.250  0.00  0.00    +0.118 C 
ATOM     13  C   UNL     1      -4.606   1.791  25.248  0.00  0.00    +0.113 C 
ATOM     14  N   UNL     1      -4.234   1.093  25.012  0.00  0.00    -0.273 N 
ATOM     15  C   UNL     1      -3.443   1.107  24.777  0.00  0.00    +0.121 C 
ATOM     16  C   UNL     1      -3.024   1.817  24.779  0.00  0.00    +0.177 C 
ATOM     27  C   UNL     1      -4.652   0.383  25.010  0.00  0.00    +0.251 C 
ATOM     28  O   UNL     1      -5.444   0.370  25.245  0.00  0.00    -0.270 OA
ENDROOT
BRANCH  27  29
ATOM     29  C   UNL     1      -4.281  -0.315  24.774  0.00  0.00    +0.073 A 
ATOM     30  C   UNL     1      -3.895  -0.786  25.330  0.00  0.00    +0.103 A 
ATOM     31  N   UNL     1      -3.524  -1.484  25.093  0.00  0.00    -0.242 NA
ATOM     32  C   UNL     1      -3.539  -1.710  24.301  0.00  0.00    +0.099 A 
ATOM     33  C   UNL     1      -3.925  -1.239  23.744  0.00  0.00    +0.021 A 
ATOM     34  C   UNL     1      -4.296  -0.541  23.980  0.00  0.00    +0.008 A 
ENDBRANCH  27  29
BRANCH  11   8
ATOM      8  S   UNL     1      -2.976   3.226  25.017  0.00  0.00    +0.064 S 
ATOM      9  O   UNL     1      -2.832   3.139  25.824  0.00  0.00    -0.153 OA
ATOM     10  O   UNL     1      -3.119   3.312  24.209  0.00  0.00    -0.153 OA
BRANCH   8   5
ATOM      1  F   UNL     1      -1.299   6.068  25.023  0.00  0.00    -0.204 F 
ATOM      2  C   UNL     1      -1.719   5.356  25.021  0.00  0.00    +0.140 A 
ATOM      3  C   UNL     1      -1.816   4.934  25.724  0.00  0.00    +0.031 A 
ATOM      4  C   UNL     1      -2.236   4.223  25.722  0.00  0.00    +0.022 A 
ATOM      5  C   UNL     1      -2.557   3.936  25.018  0.00  0.00    +0.122 A 
ATOM      6  C   UNL     1      -2.459   4.358  24.317  0.00  0.00    +0.022 A 
ATOM      7  C   UNL     1      -2.040   5.069  24.319  0.00  0.00    +0.031 A 
ENDBRANCH   8   5
ENDBRANCH  11   8
BRANCH  16  17
ATOM     17  C   UNL     1      -2.233   1.829  24.544  0.00  0.00    +0.260 C 
ATOM     18  O   UNL     1      -2.013   2.231  23.857  0.00  0.00    -0.272 OA
ATOM     19  N   UNL     1      -1.662   1.441  24.995  0.00  0.00    -0.197 NA
BRANCH  19  20
ATOM     20  C   UNL     1      -0.871   1.453  24.760  0.00  0.00    +0.173 C 
ATOM     21  C   UNL     1      -0.677   1.405  23.961  0.00  0.00    +0.033 C 
ATOM     22  C   UNL     1       0.113   1.417  23.727  0.00  0.00    +0.026 C 
ATOM     23  C   UNL     1       0.711   1.478  24.294  0.00  0.00    +0.115 C 
ATOM     24  N   UNL     1       0.517   1.527  25.093  0.00  0.00    -0.204 NA
ATOM     25  C   UNL     1      -0.274   1.515  25.327  0.00  0.00    +0.261 C 
ATOM     26  O   UNL     1      -0.469   1.564  26.128  0.00  0.00    -0.271 OA
ENDBRANCH  19  20
ENDBRANCH  16  17
TORSDOF 5
ENDMDL
MODEL 6
REMARK VINA RESULT:     -10.7      2.015      4.305
REMARK  Name = 
REMARK  5 active torsions:
REMARK  status: ('A' for Active; 'I' for Inactive)
REMARK    1  A    between atoms: C_5  and  S_8
REMARK    2  A    between atoms: S_8  and  N_11
REMARK    3  A    between atoms: C_16  and  C_17
REMARK    4  A    between atoms: N_19  and  C_20
REMARK    5  A    between atoms: C_27  and  C_29
REMARK                            x       y       z     vdW  Elec       q    Type
REMARK                         _______ _______ _______ _____ _____    ______ ____
ROOT
ATOM     11  N   UNL     1      -3.895   0.762  24.420  0.00  0.00    -0.145 NA
ATOM     12  C   UNL     1      -4.539   0.312  24.168  0.00  0.00    +0.118 C 
ATOM     13  C   UNL     1      -4.476  -0.510  24.127  0.00  0.00    +0.113 C 
ATOM     14  N   UNL     1      -3.770  -0.881  24.339  0.00  0.00    -0.273 N 
ATOM     15  C   UNL     1      -3.127  -0.430  24.592  0.00  0.00    +0.121 C 
ATOM     16  C   UNL     1      -3.190   0.392  24.632  0.00  0.00    +0.177 C 
ATOM     27  C   UNL     1      -3.708  -1.702  24.299  0.00  0.00    +0.251 C 
ATOM     28  O   UNL     1      -4.351  -2.153  24.046  0.00  0.00    -0.270 OA
ENDROOT
BRANCH  27  29
ATOM     29  C   UNL     1      -3.002  -2.073  24.511  0.00  0.00    +0.073 A 
ATOM     30  C   UNL     1      -2.424  -2.217  23.941  0.00  0.00    +0.103 A 
ATOM     31  N   UNL     1      -1.718  -2.589  24.154  0.00  0.00    -0.242 NA
ATOM     32  C   UNL     1      -1.592  -2.816  24.936  0.00  0.00    +0.099 A 
ATOM     33  C   UNL     1      -2.170  -2.672  25.507  0.00  0.00    +0.021 A 
ATOM     34  C   UNL     1      -2.876  -2.301  25.295  0.00  0.00    +0.008 A 
ENDBRANCH  27  29
BRANCH  11   8
ATOM      8  S   UNL     1      -3.958   1.585  24.461  0.00  0.00    +0.064 S 
ATOM      9  O   UNL     1      -4.175   1.529  25.255  0.00  0.00    -0.153 OA
ATOM     10  O   UNL     1      -3.740   1.640  23.667  0.00  0.00    -0.153 OA
BRANCH   8   5
ATOM      1  F   UNL     1      -4.208   4.871  24.623  0.00  0.00    -0.204 F 
ATOM      2  C   UNL     1      -4.146   4.048  24.582  0.00  0.00    +0.140 A 
ATOM      3  C   UNL     1      -3.910   3.687  23.878  0.00  0.00    +0.031 A 
ATOM      4  C   UNL     1      -3.847   2.866  23.838  0.00  0.00    +0.022 A 
ATOM      5  C   UNL     1      -4.020   2.406  24.501  0.00  0.00    +0.122 A 
ATOM      6  C   UNL     1      -4.256   2.767  25.204  0.00  0.00    +0.022 A 
ATOM      7  C   UNL     1      -4.319   3.589  25.244  0.00  0.00    +0.031 A 
ENDBRANCH   8   5
ENDBRANCH  11   8
BRANCH  16  17
ATOM     17  C   UNL     1      -2.546   0.842  24.885  0.00  0.00    +0.260 C 
ATOM     18  O   UNL     1      -2.612   1.312  25.561  0.00  0.00    -0.272 OA
ATOM     19  N   UNL     1      -1.838   0.823  24.464  0.00  0.00    -0.197 NA
BRANCH  19  20
ATOM     20  C   UNL     1      -1.194   1.273  24.717  0.00  0.00    +0.173 C 
ATOM     21  C   UNL     1      -1.096   1.440  25.518  0.00  0.00    +0.033 C 
ATOM     22  C   UNL     1      -0.453   1.890  25.770  0.00  0.00    +0.026 C 
ATOM     23  C   UNL     1       0.093   2.173  25.219  0.00  0.00    +0.115 C 
ATOM     24  N   UNL     1      -0.005   2.006  24.418  0.00  0.00    -0.204 NA
ATOM     25  C   UNL     1      -0.648   1.556  24.166  0.00  0.00    +0.261 C 
ATOM     26  O   UNL     1      -0.746   1.389  23.364  0.00  0.00    -0.271 OA
ENDBRANCH  19  20
ENDBRANCH  16  17
TORSDOF 5
ENDMDL
