MODEL 1
REMARK VINA RESULT:     -12.3      0.000      0.000
REMARK  Name = 
REMARK  6 active torsions:
REMARK  status: ('A' for Active; 'I' for Inactive)
REMARK    1  A    between atoms: C_2  and  C_4
REMARK    2  A    between atoms: C_4  and  C_5
REMARK    3  A    between atoms: C_7  and  C_25
REMARK    4  A    between atoms: N_11  and  C_12
REMARK    5  A    between atoms: C_12  and  C_13
REMARK    6  A    between atoms: N_27  and  C_28
REMARK                            x       y       z     vdW  Elec       q    Type
REMARK                         _______ _______ _______ _____ _____    ______ ____
ROOT
ATOM      5  C   UNL     1      -3.319   2.795  24.884  0.00  0.00    +0.095 C 
ATOM      6  N   UNL     1      -2.520   2.728  24.689  0.00  0.00    -0.207 NA
ATOM      7  C   UNL     1      -2.103   2.056  24.452  0.00  0.00    +0.155 C 
ATOM      8  C   UNL     1      -2.382   1.287  24.352  0.00  0.00    +0.055 C 
ATOM      9  C   UNL     1      -3.147   0.998  24.463  0.00  0.00    -0.002 A 
ATOM     10  C   UNL     1      -3.357   0.209  24.344  0.00  0.00    +0.072 A 
ATOM     11  N   UNL     1      -4.162   0.131  24.509  0.00  0.00    -0.321 N 
ATOM     19  C   UNL     1      -4.449   0.872  24.732  0.00  0.00    +0.060 A 
ATOM     20  C   UNL     1      -3.821   1.408  24.703  0.00  0.00    +0.011 A 
ATOM     21  C   UNL     1      -3.897   2.208  24.891  0.00  0.00    -0.005 A 
ATOM     22  C   UNL     1      -4.697   2.455  25.124  0.00  0.00    -0.003 A 
ATOM     23  C   UNL     1      -5.324   1.921  25.152  0.00  0.00    +0.001 A 
ATOM     24  C   UNL     1      -5.200   1.129  24.956  0.00  0.00    +0.017 A 
ENDROOT
BRANCH   7  25
ATOM     25  C   UNL     1      -1.301   2.170  24.295  0.00  0.00    +0.257 C 
ATOM     26  O   UNL     1      -1.067   2.555  23.602  0.00  0.00    -0.272 OA
ATOM     27  N   UNL     1      -0.734   1.900  24.828  0.00  0.00    -0.206 NA
BRANCH  27  28
ATOM     28  C   UNL     1       0.068   2.014  24.670  0.00  0.00    +0.095 C 
ATOM     29  C   UNL     1       0.455   2.683  24.961  0.00  0.00    +0.023 C 
ATOM     30  C   UNL     1       0.484   1.461  24.222  0.00  0.00    +0.023 C 
ENDBRANCH  27  28
ENDBRANCH   7  25
BRANCH   5   4
ATOM      4  C   UNL     1      -3.571   3.550  25.102  0.00  0.00    +0.022 C 
BRANCH   4   2
ATOM      1  C   UNL     1      -2.670   4.659  25.137  0.00  0.00    +0.000 C 
ATOM      2  C   UNL     1      -3.066   4.047  25.525  0.00  0.00    +0.002 C 
ATOM      3  C   UNL     1      -2.958   3.933  26.335  0.00  0.00    +0.000 C 
ENDBRANCH   4   2
ENDBRANCH   5   4
BRANCH  11  12
ATOM     12  C   UNL     1      -4.602  -0.564  24.461  0.00  0.00    +0.152 C 
BRANCH  12  13
ATOM     13  C   UNL     1      -4.224  -1.296  24.501  0.00  0.00    +0.082 A 
ATOM     14  N   UNL     1      -3.888  -1.548  25.211  0.00  0.00    -0.246 NA
ATOM     15  C   UNL     1      -3.510  -2.281  25.250  0.00  0.00    +0.099 A 
ATOM     16  C   UNL     1      -3.468  -2.760  24.580  0.00  0.00    +0.021 A 
ATOM     17  C   UNL     1      -3.804  -2.507  23.870  0.00  0.00    +0.003 A 
ATOM     18  C   UNL     1      -4.182  -1.775  23.830  0.00  0.00    +0.017 A 
ENDBRANCH  12  13
ENDBRANCH  11  12
TORSDOF 6
ENDMDL
MODEL 2
REMARK VINA RESULT:     -12.0      1.419      4.246
REMARK  Name = 
REMARK  6 active torsions:
REMARK  status: ('A' for Active; 'I' for Inactive)
REMARK    1  A    between atoms: C_2  and  C_4
REMARK    2  A    between atoms: C_4  and  C_5
REMARK    3  A    between atoms: C_7  and  C_25
REMARK    4  A    between atoms: N_11  and  C_12
REMARK    5  A    between atoms: C_12  and  C_13
REMARK    6  A    between atoms: N_27  and  C_28
REMARK                            x       y       z     vdW  Elec       q    Type
REMARK                         _______ _______ _______ _____ _____    ______ ____
ROOT
ATOM      5  C   UNL     1      -3.570  -0.329  24.949  0.00  0.00    +0.095 C 
ATOM      6  N   UNL     1      -2.769  -0.529  24.947  0.00  0.00    -0.207 NA
ATOM      7  C   UNL     1      -2.114  -0.029  24.919  0.00  0.00    +0.155 C 
ATOM      8  C   UNL     1      -2.097   0.795  24.885  0.00  0.00    +0.055 C 
ATOM      9  C   UNL     1      -2.731   1.323  24.872  0.00  0.00    -0.002 A 
ATOM     10  C   UNL     1      -2.641   2.142  24.838  0.00  0.00    +0.072 A 
ATOM     11  N   UNL     1      -3.393   2.482  24.834  0.00  0.00    -0.321 N 
ATOM     19  C   UNL     1      -3.948   1.873  24.866  0.00  0.00    +0.060 A 
ATOM     20  C   UNL     1      -3.539   1.156  24.889  0.00  0.00    +0.011 A 
ATOM     21  C   UNL     1      -3.912   0.420  24.923  0.00  0.00    -0.005 A 
ATOM     22  C   UNL     1      -4.780   0.450  24.933  0.00  0.00    -0.003 A 
ATOM     23  C   UNL     1      -5.189   1.166  24.910  0.00  0.00    +0.001 A 
ATOM     24  C   UNL     1      -4.773   1.877  24.876  0.00  0.00    +0.017 A 
ENDROOT
BRANCH   7  25
ATOM     25  C   UNL     1      -1.378  -0.402  24.924  0.00  0.00    +0.257 C 
ATOM     26  O   UNL     1      -1.034  -0.625  25.641  0.00  0.00    -0.272 OA
ATOM     27  N   UNL     1      -0.987  -0.553  24.214  0.00  0.00    -0.206 NA
BRANCH  27  28
ATOM     28  C   UNL     1      -0.251  -0.927  24.221  0.00  0.00    +0.095 C 
ATOM     29  C   UNL     1       0.400  -0.562  23.869  0.00  0.00    +0.023 C 
ATOM     30  C   UNL     1      -0.166  -1.665  24.579  0.00  0.00    +0.023 C 
ENDBRANCH  27  28
ENDBRANCH   7  25
BRANCH   5   4
ATOM      4  C   UNL     1      -4.096  -0.963  24.981  0.00  0.00    +0.022 C 
BRANCH   4   2
ATOM      1  C   UNL     1      -3.637  -2.316  24.988  0.00  0.00    +0.000 C 
ATOM      2  C   UNL     1      -3.926  -1.662  24.577  0.00  0.00    +0.002 C 
ATOM      3  C   UNL     1      -4.044  -1.705  23.761  0.00  0.00    +0.000 C 
ENDBRANCH   4   2
ENDBRANCH   5   4
BRANCH  11  12
ATOM     12  C   UNL     1      -3.560   3.289  24.804  0.00  0.00    +0.152 C 
BRANCH  12  13
ATOM     13  C   UNL     1      -2.987   3.839  25.027  0.00  0.00    +0.082 A 
ATOM     14  N   UNL     1      -2.455   4.129  24.468  0.00  0.00    -0.246 NA
ATOM     15  C   UNL     1      -1.882   4.679  24.692  0.00  0.00    +0.099 A 
ATOM     16  C   UNL     1      -1.842   4.938  25.474  0.00  0.00    +0.021 A 
ATOM     17  C   UNL     1      -2.375   4.647  26.033  0.00  0.00    +0.003 A 
ATOM     18  C   UNL     1      -2.947   4.097  25.810  0.00  0.00    +0.017 A 
ENDBRANCH  12  13
ENDBRANCH  11  12
TORSDOF 6
ENDMDL
MODEL 3
REMARK VINA RESULT:     -11.7      1.285      3.043
REMARK  Name = 
REMARK  6 active torsions:
REMARK  status: ('A' for Active; 'I' for Inactive)
REMARK    1  A    between atoms: C_2  and  C_4
REMARK    2  A    between atoms: C_4  and  C_5
REMARK    3  A    between atoms: C_7  and  C_25
REMARK    4  A    between atoms: N_11  and  C_12
REMARK    5  A    between atoms: C_12  and  C_13
REMARK    6  A    between atoms: N_27  and  C_28
REMARK                            x       y       z     vdW  Elec       q    Type
REMARK                         _______ _______ _______ _____ _____    ______ ____
ROOT
ATOM      5  C   UNL     1      -1.932   2.551  24.851  0.00  0.00    +0.095 C 
ATOM      6  N   UNL     1      -2.736   2.737  24.830  0.00  0.00    -0.207 NA
ATOM      7  C   UNL     1      -3.381   2.225  24.779  0.00  0.00    +0.155 C 
ATOM      8  C   UNL     1      -3.382   1.401  24.738  0.00  0.00    +0.055 C 
ATOM      9  C   UNL     1      -2.738   0.886  24.737  0.00  0.00    -0.002 A 
ATOM     10  C   UNL     1      -2.812   0.065  24.694  0.00  0.00    +0.072 A 
ATOM     11  N   UNL     1      -2.054  -0.261  24.706  0.00  0.00    -0.321 N 
ATOM     19  C   UNL     1      -1.511   0.358  24.758  0.00  0.00    +0.060 A 
ATOM     20  C   UNL     1      -1.933   1.067  24.777  0.00  0.00    +0.011 A 
ATOM     21  C   UNL     1      -1.575   1.809  24.828  0.00  0.00    -0.005 A 
ATOM     22  C   UNL     1      -0.708   1.795  24.861  0.00  0.00    -0.003 A 
ATOM     23  C   UNL     1      -0.285   1.087  24.842  0.00  0.00    +0.001 A 
ATOM     24  C   UNL     1      -0.687   0.368  24.790  0.00  0.00    +0.017 A 
ENDROOT
BRANCH   7  25
ATOM     25  C   UNL     1      -4.123   2.585  24.769  0.00  0.00    +0.257 C 
ATOM     26  O   UNL     1      -4.408   2.924  24.072  0.00  0.00    -0.272 OA
ATOM     27  N   UNL     1      -4.581   2.607  25.455  0.00  0.00    -0.206 NA
BRANCH  27  28
ATOM     28  C   UNL     1      -5.323   2.967  25.443  0.00  0.00    +0.095 C 
ATOM     29  C   UNL     1      -6.002   2.509  25.340  0.00  0.00    +0.023 C 
ATOM     30  C   UNL     1      -5.387   3.784  25.535  0.00  0.00    +0.023 C 
ENDBRANCH  27  28
ENDBRANCH   7  25
BRANCH   5   4
ATOM      4  C   UNL     1      -1.418   3.194  24.903  0.00  0.00    +0.022 C 
BRANCH   4   2
ATOM      1  C   UNL     1      -1.666   3.765  26.190  0.00  0.00    +0.000 C 
ATOM      2  C   UNL     1      -1.618   3.845  25.370  0.00  0.00    +0.002 C 
ATOM      3  C   UNL     1      -1.769   4.576  25.016  0.00  0.00    +0.000 C 
ENDBRANCH   4   2
ENDBRANCH   5   4
BRANCH  11  12
ATOM     12  C   UNL     1      -1.871  -1.064  24.673  0.00  0.00    +0.152 C 
BRANCH  12  13
ATOM     13  C   UNL     1      -2.473  -1.627  24.705  0.00  0.00    +0.082 A 
ATOM     14  N   UNL     1      -2.828  -1.890  24.009  0.00  0.00    -0.246 NA
ATOM     15  C   UNL     1      -3.431  -2.454  24.041  0.00  0.00    +0.099 A 
ATOM     16  C   UNL     1      -3.677  -2.753  24.769  0.00  0.00    +0.021 A 
ATOM     17  C   UNL     1      -3.321  -2.489  25.466  0.00  0.00    +0.003 A 
ATOM     18  C   UNL     1      -2.719  -1.926  25.434  0.00  0.00    +0.017 A 
ENDBRANCH  12  13
ENDBRANCH  11  12
TORSDOF 6
ENDMDL
MODEL 4
REMARK VINA RESULT:     -11.3      1.588      2.376
REMARK  Name = 
REMARK  6 active torsions:
REMARK  status: ('A' for Active; 'I' for Inactive)
REMARK    1  A    between atoms: C_2  and  C_4
REMARK    2  A    between atoms: C_4  and  C_5
REMARK    3  A    between atoms: C_7  and  C_25
REMARK    4  A    between atoms: N_11  and  C_12
REMARK    5  A    between atoms: C_12  and  C_13
REMARK    6  A    between atoms: N_27  and  C_28
REMARK                            x       y       z     vdW  Elec       q    Type
REMARK                         _______ _______ _______ _____ _____    ______ ____
ROOT
ATOM      5  C   UNL     1      -4.168   2.372  24.939  0.00  0.00    +0.095 C 
ATOM      6  N   UNL     1      -3.568   2.906  25.127  0.00  0.00    -0.207 NA
ATOM      7  C   UNL     1      -2.758   2.764  25.200  0.00  0.00    +0.155 C 
ATOM      8  C   UNL     1      -2.349   2.055  25.103  0.00  0.00    +0.055 C 
ATOM      9  C   UNL     1      -2.648   1.311  24.908  0.00  0.00    -0.002 A 
ATOM     10  C   UNL     1      -2.177   0.639  24.826  0.00  0.00    +0.072 A 
ATOM     11  N   UNL     1      -2.668   0.005  24.630  0.00  0.00    -0.321 N 
ATOM     19  C   UNL     1      -3.443   0.286  24.591  0.00  0.00    +0.060 A 
ATOM     20  C   UNL     1      -3.431   1.093  24.762  0.00  0.00    +0.011 A 
ATOM     21  C   UNL     1      -4.107   1.566  24.776  0.00  0.00    -0.005 A 
ATOM     22  C   UNL     1      -4.848   1.151  24.595  0.00  0.00    -0.003 A 
ATOM     23  C   UNL     1      -4.861   0.344  24.423  0.00  0.00    +0.001 A 
ATOM     24  C   UNL     1      -4.158  -0.088  24.421  0.00  0.00    +0.017 A 
ENDROOT
BRANCH   7  25
ATOM     25  C   UNL     1      -2.296   3.420  25.397  0.00  0.00    +0.257 C 
ATOM     26  O   UNL     1      -2.122   3.579  26.188  0.00  0.00    -0.272 OA
ATOM     27  N   UNL     1      -2.010   3.915  24.804  0.00  0.00    -0.206 NA
BRANCH  27  28
ATOM     28  C   UNL     1      -1.549   4.571  25.001  0.00  0.00    +0.095 C 
ATOM     29  C   UNL     1      -0.726   4.519  24.974  0.00  0.00    +0.023 C 
ATOM     30  C   UNL     1      -1.910   5.277  25.227  0.00  0.00    +0.023 C 
ENDBRANCH  27  28
ENDBRANCH   7  25
BRANCH   5   4
ATOM      4  C   UNL     1      -4.929   2.687  24.908  0.00  0.00    +0.022 C 
BRANCH   4   2
ATOM      1  C   UNL     1      -5.374   2.937  26.243  0.00  0.00    +0.000 C 
ATOM      2  C   UNL     1      -5.181   3.215  25.491  0.00  0.00    +0.002 C 
ATOM      3  C   UNL     1      -5.239   4.021  25.320  0.00  0.00    +0.000 C 
ENDBRANCH   4   2
ENDBRANCH   5   4
BRANCH  11  12
ATOM     12  C   UNL     1      -2.428  -0.772  24.496  0.00  0.00    +0.152 C 
BRANCH  12  13
ATOM     13  C   UNL     1      -1.652  -0.998  24.659  0.00  0.00    +0.082 A 
ATOM     14  N   UNL     1      -1.063  -0.887  24.093  0.00  0.00    -0.246 NA
ATOM     15  C   UNL     1      -0.285  -1.113  24.256  0.00  0.00    +0.099 A 
ATOM     16  C   UNL     1      -0.099  -1.451  24.985  0.00  0.00    +0.021 A 
ATOM     17  C   UNL     1      -0.689  -1.562  25.552  0.00  0.00    +0.003 A 
ATOM     18  C   UNL     1      -1.465  -1.336  25.389  0.00  0.00    +0.017 A 
ENDBRANCH  12  13
ENDBRANCH  11  12
TORSDOF 6
ENDMDL
MODEL 5
REMARK VINA RESULT:     -11.0      1.725      4.708
REMARK  Name = 
REMARK  6 active torsions:
REMARK  status: ('A' for Active; 'I' for Inactive)
REMARK    1  A    between atoms: C_2  and  C_4
REMARK    2  A    between atoms: C_4  and  C_5
REMARK    3  A    between atoms: C_7  and  C_25
REMARK    4  A    between atoms: N_11  and  C_12
REMARK    5  A    between atoms: C_12  and  C_13
REMARK    6  A    between atoms: N_27  and  C_28
REMARK                            x       y       z     vdW  Elec       q    Type
REMARK                         _______ _______ _______ _____ _____    ______ ____
ROOT
ATOM      5  C   UNL     1      -1.366  -0.130  25.197  0.00  0.00    +0.095 C 
ATOM      6  N   UNL     1      -1.979  -0.675  25.111  0.00  0.00    -0.207 NA
ATOM      7  C   UNL     1      -2.778  -0.531  24.962  0.00  0.00    +0.155 C 
ATOM      8  C   UNL     1      -3.160   0.193  24.863  0.00  0.00    +0.055 C 
ATOM      9  C   UNL     1      -2.839   0.952  24.889  0.00  0.00    -0.002 A 
ATOM     10  C   UNL     1      -3.284   1.638  24.780  0.00  0.00    +0.072 A 
ATOM     11  N   UNL     1      -2.776   2.285  24.844  0.00  0.00    -0.321 N 
ATOM     19  C   UNL     1      -2.016   1.999  24.992  0.00  0.00    +0.060 A 
ATOM     20  C   UNL     1      -2.055   1.175  25.019  0.00  0.00    +0.011 A 
ATOM     21  C   UNL     1      -1.400   0.692  25.157  0.00  0.00    -0.005 A 
ATOM     22  C   UNL     1      -0.651   1.117  25.273  0.00  0.00    -0.003 A 
ATOM     23  C   UNL     1      -0.611   1.940  25.246  0.00  0.00    +0.001 A 
ATOM     24  C   UNL     1      -1.294   2.381  25.105  0.00  0.00    +0.017 A 
ENDROOT
BRANCH   7  25
ATOM     25  C   UNL     1      -3.257  -1.201  24.904  0.00  0.00    +0.257 C 
ATOM     26  O   UNL     1      -3.615  -1.511  25.580  0.00  0.00    -0.272 OA
ATOM     27  N   UNL     1      -3.377  -1.560  24.171  0.00  0.00    -0.206 NA
BRANCH  27  28
ATOM     28  C   UNL     1      -3.857  -2.229  24.115  0.00  0.00    +0.095 C 
ATOM     29  C   UNL     1      -4.597  -2.176  23.755  0.00  0.00    +0.023 C 
ATOM     30  C   UNL     1      -3.596  -2.951  24.417  0.00  0.00    +0.023 C 
ENDBRANCH  27  28
ENDBRANCH   7  25
BRANCH   5   4
ATOM      4  C   UNL     1      -0.620  -0.451  25.344  0.00  0.00    +0.022 C 
BRANCH   4   2
ATOM      1  C   UNL     1      -0.354  -1.855  25.383  0.00  0.00    +0.000 C 
ATOM      2  C   UNL     1      -0.388  -1.146  24.963  0.00  0.00    +0.002 C 
ATOM      3  C   UNL     1      -0.191  -1.130  24.162  0.00  0.00    +0.000 C 
ENDBRANCH   4   2
ENDBRANCH   5   4
BRANCH  11  12
ATOM     12  C   UNL     1      -2.989   3.079  24.773  0.00  0.00    +0.152 C 
BRANCH  12  13
ATOM     13  C   UNL     1      -3.726   3.334  25.039  0.00  0.00    +0.082 A 
ATOM     14  N   UNL     1      -3.832   3.534  25.832  0.00  0.00    -0.246 NA
ATOM     15  C   UNL     1      -4.570   3.790  26.098  0.00  0.00    +0.099 A 
ATOM     16  C   UNL     1      -5.202   3.844  25.571  0.00  0.00    +0.021 A 
ATOM     17  C   UNL     1      -5.096   3.644  24.777  0.00  0.00    +0.003 A 
ATOM     18  C   UNL     1      -4.358   3.388  24.511  0.00  0.00    +0.017 A 
ENDBRANCH  12  13
ENDBRANCH  11  12
TORSDOF 6
ENDMDL
