MODEL 1
REMARK VINA RESULT:     -10.1      0.000      0.000
REMARK  Name = 
REMARK  10 active torsions:
REMARK  status: ('A' for Active; 'I' for Inactive)
REMARK    1  A    between atoms: C_2  and  C_4
REMARK    2  A    between atoms: C_6  and  C_7
REMARK    3  A    between atoms: C_7  and  C_8
REMARK    4  A    between atoms: N_10  and  C_11
REMARK    5  A    between atoms: C_11  and  C_12
REMARK    6  A    between atoms: C_12  and  N_13
REMARK    7  A    between atoms: C_22  and  C_23
REMARK    8  A    between atoms: C_23  and  N_24
REMARK    9  A    between atoms: N_24  and  S_25
REMARK   10  A    between atoms: S_25  and  C_28
REMARK                            x       y       z     vdW  Elec       q    Type
REMARK                         _______ _______ _______ _____ _____    ______ ____
ROOT
ATOM      4  C   UNL     1      -3.780   1.507  24.158  0.00  0.00    +0.006 C 
ATOM      5  C   UNL     1      -3.975   2.288  24.340  0.00  0.00    +0.005 C 
ATOM      6  C   UNL     1      -4.613   2.448  24.840  0.00  0.00    +0.027 C 
ATOM     19  C   UNL     1      -5.055   1.827  25.156  0.00  0.00    -0.048 C 
ATOM     20  C   UNL     1      -5.692   1.987  25.654  0.00  0.00    +0.026 C 
ATOM     21  C   UNL     1      -4.859   1.047  24.973  0.00  0.00    -0.033 C 
ATOM     22  C   UNL     1      -4.222   0.886  24.474  0.00  0.00    +0.041 C 
ENDROOT
BRANCH   4   2
ATOM      1  C   UNL     1      -2.398   1.193  23.979  0.00  0.00    +0.000 C 
ATOM      2  C   UNL     1      -3.143   1.347  23.659  0.00  0.00    +0.000 C 
ATOM      3  C   UNL     1      -3.249   1.343  22.841  0.00  0.00    +0.000 C 
ENDBRANCH   4   2
BRANCH   6   7
ATOM      7  C   UNL     1      -4.808   3.228  25.022  0.00  0.00    +0.091 C 
BRANCH   7   8
ATOM      8  C   UNL     1      -4.254   3.828  24.907  0.00  0.00    +0.242 C 
ATOM      9  O   UNL     1      -4.276   4.285  24.220  0.00  0.00    -0.273 OA
ATOM     10  N   UNL     1      -3.676   3.971  25.479  0.00  0.00    -0.204 NA
BRANCH  10  11
ATOM     11  C   UNL     1      -3.122   4.571  25.364  0.00  0.00    +0.132 C 
BRANCH  11  12
ATOM     12  C   UNL     1      -2.430   4.584  25.814  0.00  0.00    +0.096 C 
BRANCH  12  13
ATOM     13  N   UNL     1      -1.699   4.679  25.444  0.00  0.00    -0.267 NA
ATOM     14  C   UNL     1      -1.167   4.048  25.412  0.00  0.00    +0.105 C 
ATOM     15  C   UNL     1      -0.437   4.144  25.042  0.00  0.00    +0.159 C 
ATOM     16  O   UNL     1      -0.237   4.869  24.702  0.00  0.00    -0.351 OA
ATOM     17  C   UNL     1      -0.768   5.499  24.734  0.00  0.00    +0.159 C 
ATOM     18  C   UNL     1      -1.500   5.404  25.104  0.00  0.00    +0.105 C 
ENDBRANCH  12  13
ENDBRANCH  11  12
ENDBRANCH  10  11
ENDBRANCH   7   8
ENDBRANCH   6   7
BRANCH  22  23
ATOM     23  C   UNL     1      -4.027   0.106  24.292  0.00  0.00    +0.120 C 
BRANCH  23  24
ATOM     24  N   UNL     1      -4.419  -0.516  24.666  0.00  0.00    -0.077 NA
BRANCH  24  25
ATOM     25  S   UNL     1      -4.141  -1.287  24.584  0.00  0.00    +0.077 S 
ATOM     26  O   UNL     1      -3.750  -1.225  25.308  0.00  0.00    -0.152 OA
ATOM     27  O   UNL     1      -4.531  -1.351  23.860  0.00  0.00    -0.152 OA
BRANCH  25  28
ATOM     28  C   UNL     1      -3.862  -2.060  24.501  0.00  0.00    +0.124 A 
ATOM     29  C   UNL     1      -3.327  -2.367  25.048  0.00  0.00    +0.020 A 
ATOM     30  C   UNL     1      -3.049  -3.138  24.965  0.00  0.00    +0.001 A 
ATOM     31  C   UNL     1      -3.307  -3.605  24.335  0.00  0.00    +0.000 A 
ATOM     32  C   UNL     1      -3.842  -3.298  23.788  0.00  0.00    +0.001 A 
ATOM     33  C   UNL     1      -4.121  -2.525  23.871  0.00  0.00    +0.020 A 
ENDBRANCH  25  28
ENDBRANCH  24  25
ENDBRANCH  23  24
ENDBRANCH  22  23
TORSDOF 10
ENDMDL
MODEL 2
REMARK VINA RESULT:      -9.4      3.546      5.232
REMARK  Name = 
REMARK  10 active torsions:
REMARK  status: ('A' for Active; 'I' for Inactive)
REMARK    1  A    between atoms: C_2  and  C_4
REMARK    2  A    between atoms: C_6  and  C_7
REMARK    3  A    between atoms: C_7  and  C_8
REMARK    4  A    between atoms: N_10  and  C_11
REMARK    5  A    between atoms: C_11  and  C_12
REMARK    6  A    between atoms: C_12  and  N_13
REMARK    7  A    between atoms: C_22  and  C_23
REMARK    8  A    between atoms: C_23  and  N_24
REMARK    9  A    between atoms: N_24  and  S_25
REMARK   10  A    between atoms: S_25  and  C_28
REMARK                            x       y       z     vdW  Elec       q    Type
REMARK                         _______ _______ _______ _____ _____    ______ ____
ROOT
ATOM      4  C   UNL     1      -1.783   1.265  23.612  0.00  0.00    +0.006 C 
ATOM      5  C   UNL     1      -1.096   0.833  23.460  0.00  0.00    +0.005 C 
ATOM      6  C   UNL     1      -0.937   0.146  23.888  0.00  0.00    +0.027 C 
ATOM     19  C   UNL     1      -1.464  -0.111  24.468  0.00  0.00    -0.048 C 
ATOM     20  C   UNL     1      -1.305  -0.797  24.896  0.00  0.00    +0.026 C 
ATOM     21  C   UNL     1      -2.151   0.321  24.621  0.00  0.00    -0.033 C 
ATOM     22  C   UNL     1      -2.311   1.009  24.193  0.00  0.00    +0.041 C 
ENDROOT
BRANCH   4   2
ATOM      1  C   UNL     1      -2.361   1.907  22.475  0.00  0.00    +0.000 C 
ATOM      2  C   UNL     1      -1.942   1.952  23.184  0.00  0.00    +0.000 C 
ATOM      3  C   UNL     1      -1.681   2.682  23.465  0.00  0.00    +0.000 C 
ENDBRANCH   4   2
BRANCH   6   7
ATOM      7  C   UNL     1      -0.250  -0.285  23.735  0.00  0.00    +0.091 C 
BRANCH   7   8
ATOM      8  C   UNL     1       0.478   0.101  23.700  0.00  0.00    +0.242 C 
ATOM      9  O   UNL     1       0.651   0.706  24.233  0.00  0.00    -0.273 OA
ATOM     10  N   UNL     1       1.035  -0.119  23.131  0.00  0.00    -0.204 NA
BRANCH  10  11
ATOM     11  C   UNL     1       1.763   0.267  23.096  0.00  0.00    +0.132 C 
BRANCH  11  12
ATOM     12  C   UNL     1       2.347  -0.002  22.578  0.00  0.00    +0.096 C 
BRANCH  12  13
ATOM     13  N   UNL     1       3.140   0.173  22.726  0.00  0.00    -0.267 NA
ATOM     14  C   UNL     1       3.449   0.904  22.500  0.00  0.00    +0.105 C 
ATOM     15  C   UNL     1       4.242   1.079  22.647  0.00  0.00    +0.159 C 
ATOM     16  O   UNL     1       4.725   0.524  23.020  0.00  0.00    -0.351 OA
ATOM     17  C   UNL     1       4.416  -0.206  23.245  0.00  0.00    +0.159 C 
ATOM     18  C   UNL     1       3.623  -0.382  23.098  0.00  0.00    +0.105 C 
ENDBRANCH  12  13
ENDBRANCH  11  12
ENDBRANCH  10  11
ENDBRANCH   7   8
ENDBRANCH   6   7
BRANCH  22  23
ATOM     23  C   UNL     1      -2.997   1.439  24.345  0.00  0.00    +0.120 C 
BRANCH  23  24
ATOM     24  N   UNL     1      -3.548   1.158  24.890  0.00  0.00    -0.077 NA
BRANCH  24  25
ATOM     25  S   UNL     1      -4.213   1.609  25.075  0.00  0.00    +0.077 S 
ATOM     26  O   UNL     1      -3.764   2.056  25.603  0.00  0.00    -0.152 OA
ATOM     27  O   UNL     1      -4.663   1.162  24.546  0.00  0.00    -0.152 OA
BRANCH  25  28
ATOM     28  C   UNL     1      -4.879   2.061  25.259  0.00  0.00    +0.124 A 
ATOM     29  C   UNL     1      -5.623   1.706  25.286  0.00  0.00    +0.020 A 
ATOM     30  C   UNL     1      -6.288   2.157  25.470  0.00  0.00    +0.001 A 
ATOM     31  C   UNL     1      -6.210   2.964  25.627  0.00  0.00    +0.000 A 
ATOM     32  C   UNL     1      -5.466   3.318  25.600  0.00  0.00    +0.001 A 
ATOM     33  C   UNL     1      -4.799   2.867  25.416  0.00  0.00    +0.020 A 
ENDBRANCH  25  28
ENDBRANCH  24  25
ENDBRANCH  23  24
ENDBRANCH  22  23
TORSDOF 10
ENDMDL
MODEL 3
REMARK VINA RESULT:      -8.9      1.621      5.545
REMARK  Name = 
REMARK  10 active torsions:
REMARK  status: ('A' for Active; 'I' for Inactive)
REMARK    1  A    between atoms: C_2  and  C_4
REMARK    2  A    between atoms: C_6  and  C_7
REMARK    3  A    between atoms: C_7  and  C_8
REMARK    4  A    between atoms: N_10  and  C_11
REMARK    5  A    between atoms: C_11  and  C_12
REMARK    6  A    between atoms: C_12  and  N_13
REMARK    7  A    between atoms: C_22  and  C_23
REMARK    8  A    between atoms: C_23  and  N_24
REMARK    9  A    between atoms: N_24  and  S_25
REMARK   10  A    between atoms: S_25  and  C_28
REMARK                            x       y       z     vdW  Elec       q    Type
REMARK                         _______ _______ _______ _____ _____    ______ ____
ROOT
ATOM      4  C   UNL     1      -3.278   1.299  23.756  0.00  0.00    +0.006 C 
ATOM      5  C   UNL     1      -3.693   0.585  23.773  0.00  0.00    +0.005 C 
ATOM      6  C   UNL     1      -4.269   0.456  24.351  0.00  0.00    +0.027 C 
ATOM     19  C   UNL     1      -4.429   1.040  24.911  0.00  0.00    -0.048 C 
ATOM     20  C   UNL     1      -5.004   0.911  25.488  0.00  0.00    +0.026 C 
ATOM     21  C   UNL     1      -4.014   1.753  24.894  0.00  0.00    -0.033 C 
ATOM     22  C   UNL     1      -3.439   1.883  24.317  0.00  0.00    +0.041 C 
ENDROOT
BRANCH   4   2
ATOM      1  C   UNL     1      -2.900   1.829  22.486  0.00  0.00    +0.000 C 
ATOM      2  C   UNL     1      -2.704   1.427  23.179  0.00  0.00    +0.000 C 
ATOM      3  C   UNL     1      -1.934   1.154  23.294  0.00  0.00    +0.000 C 
ENDBRANCH   4   2
BRANCH   6   7
ATOM      7  C   UNL     1      -4.683  -0.257  24.367  0.00  0.00    +0.091 C 
BRANCH   7   8
ATOM      8  C   UNL     1      -4.287  -0.966  24.221  0.00  0.00    +0.242 C 
ATOM      9  O   UNL     1      -4.355  -1.333  23.485  0.00  0.00    -0.273 OA
ATOM     10  N   UNL     1      -3.823  -1.309  24.812  0.00  0.00    -0.204 NA
BRANCH  10  11
ATOM     11  C   UNL     1      -3.428  -2.017  24.666  0.00  0.00    +0.132 C 
BRANCH  11  12
ATOM     12  C   UNL     1      -2.881  -2.305  25.213  0.00  0.00    +0.096 C 
BRANCH  12  13
ATOM     13  N   UNL     1      -2.073  -2.204  25.081  0.00  0.00    -0.267 NA
ATOM     14  C   UNL     1      -1.629  -1.724  25.585  0.00  0.00    +0.105 C 
ATOM     15  C   UNL     1      -0.822  -1.623  25.452  0.00  0.00    +0.159 C 
ATOM     16  O   UNL     1      -0.457  -2.000  24.816  0.00  0.00    -0.351 OA
ATOM     17  C   UNL     1      -0.900  -2.479  24.312  0.00  0.00    +0.159 C 
ATOM     18  C   UNL     1      -1.709  -2.581  24.444  0.00  0.00    +0.105 C 
ENDBRANCH  12  13
ENDBRANCH  11  12
ENDBRANCH  10  11
ENDBRANCH   7   8
ENDBRANCH   6   7
BRANCH  22  23
ATOM     23  C   UNL     1      -3.024   2.595  24.300  0.00  0.00    +0.120 C 
BRANCH  23  24
ATOM     24  N   UNL     1      -2.997   3.072  24.972  0.00  0.00    -0.077 NA
BRANCH  24  25
ATOM     25  S   UNL     1      -2.488   3.720  24.997  0.00  0.00    +0.077 S 
ATOM     26  O   UNL     1      -1.962   3.291  25.465  0.00  0.00    -0.152 OA
ATOM     27  O   UNL     1      -3.013   4.151  24.528  0.00  0.00    -0.152 OA
BRANCH  25  28
ATOM     28  C   UNL     1      -1.979   4.370  25.021  0.00  0.00    +0.124 A 
ATOM     29  C   UNL     1      -2.282   5.128  25.143  0.00  0.00    +0.020 A 
ATOM     30  C   UNL     1      -1.773   5.776  25.168  0.00  0.00    +0.001 A 
ATOM     31  C   UNL     1      -0.961   5.668  25.070  0.00  0.00    +0.000 A 
ATOM     32  C   UNL     1      -0.658   4.910  24.948  0.00  0.00    +0.001 A 
ATOM     33  C   UNL     1      -1.167   4.261  24.923  0.00  0.00    +0.020 A 
ENDBRANCH  25  28
ENDBRANCH  24  25
ENDBRANCH  23  24
ENDBRANCH  22  23
TORSDOF 10
ENDMDL
MODEL 4
REMARK VINA RESULT:      -8.2      3.397      5.336
REMARK  Name = 
REMARK  10 active torsions:
REMARK  status: ('A' for Active; 'I' for Inactive)
REMARK    1  A    between atoms: C_2  and  C_4
REMARK    2  A    between atoms: C_6  and  C_7
REMARK    3  A    between atoms: C_7  and  C_8
REMARK    4  A    between atoms: N_10  and  C_11
REMARK    5  A    between atoms: C_11  and  C_12
REMARK    6  A    between atoms: C_12  and  N_13
REMARK    7  A    between atoms: C_22  and  C_23
REMARK    8  A    between atoms: C_23  and  N_24
REMARK    9  A    between atoms: N_24  and  S_25
REMARK   10  A    between atoms: S_25  and  C_28
REMARK                            x       y       z     vdW  Elec       q    Type
REMARK                         _______ _______ _______ _____ _____    ______ ____
ROOT
ATOM      4  C   UNL     1      -0.970   0.315  24.413  0.00  0.00    +0.006 C 
ATOM      5  C   UNL     1      -1.687   0.039  24.714  0.00  0.00    +0.005 C 
ATOM      6  C   UNL     1      -1.877  -0.763  24.659  0.00  0.00    +0.027 C 
ATOM     19  C   UNL     1      -1.350  -1.288  24.301  0.00  0.00    -0.048 C 
ATOM     20  C   UNL     1      -1.540  -2.088  24.246  0.00  0.00    +0.026 C 
ATOM     21  C   UNL     1      -0.634  -1.011  24.000  0.00  0.00    -0.033 C 
ATOM     22  C   UNL     1      -0.443  -0.210  24.055  0.00  0.00    +0.041 C 
ENDROOT
BRANCH   4   2
ATOM      1  C   UNL     1      -0.367   1.396  25.125  0.00  0.00    +0.000 C 
ATOM      2  C   UNL     1      -0.781   1.116  24.469  0.00  0.00    +0.000 C 
ATOM      3  C   UNL     1      -1.006   1.636  23.869  0.00  0.00    +0.000 C 
ENDBRANCH   4   2
BRANCH   6   7
ATOM      7  C   UNL     1      -2.594  -1.038  24.960  0.00  0.00    +0.091 C 
BRANCH   7   8
ATOM      8  C   UNL     1      -3.118  -0.513  25.319  0.00  0.00    +0.242 C 
ATOM      9  O   UNL     1      -3.039  -0.331  26.120  0.00  0.00    -0.273 OA
ATOM     10  N   UNL     1      -3.723  -0.167  24.875  0.00  0.00    -0.204 NA
BRANCH  10  11
ATOM     11  C   UNL     1      -4.248   0.359  25.234  0.00  0.00    +0.132 C 
BRANCH  11  12
ATOM     12  C   UNL     1      -4.788   0.780  24.773  0.00  0.00    +0.096 C 
BRANCH  12  13
ATOM     13  N   UNL     1      -5.041   1.527  25.015  0.00  0.00    -0.267 NA
ATOM     14  C   UNL     1      -4.652   2.203  24.743  0.00  0.00    +0.105 C 
ATOM     15  C   UNL     1      -4.905   2.949  24.985  0.00  0.00    +0.159 C 
ATOM     16  O   UNL     1      -5.546   3.022  25.499  0.00  0.00    -0.351 OA
ATOM     17  C   UNL     1      -5.934   2.347  25.771  0.00  0.00    +0.159 C 
ATOM     18  C   UNL     1      -5.682   1.599  25.530  0.00  0.00    +0.105 C 
ENDBRANCH  12  13
ENDBRANCH  11  12
ENDBRANCH  10  11
ENDBRANCH   7   8
ENDBRANCH   6   7
BRANCH  22  23
ATOM     23  C   UNL     1       0.273   0.066  23.754  0.00  0.00    +0.120 C 
BRANCH  23  24
ATOM     24  N   UNL     1       0.729  -0.418  23.267  0.00  0.00    -0.077 NA
BRANCH  24  25
ATOM     25  S   UNL     1       1.460  -0.154  22.992  0.00  0.00    +0.077 S 
ATOM     26  O   UNL     1       1.817  -0.414  23.689  0.00  0.00    -0.152 OA
ATOM     27  O   UNL     1       1.105   0.105  22.294  0.00  0.00    -0.152 OA
BRANCH  25  28
ATOM     28  C   UNL     1       2.192   0.110  22.716  0.00  0.00    +0.124 A 
ATOM     29  C   UNL     1       2.647   0.621  23.178  0.00  0.00    +0.020 A 
ATOM     30  C   UNL     1       3.378   0.885  22.902  0.00  0.00    +0.001 A 
ATOM     31  C   UNL     1       3.655   0.638  22.165  0.00  0.00    +0.000 A 
ATOM     32  C   UNL     1       3.201   0.127  21.704  0.00  0.00    +0.001 A 
ATOM     33  C   UNL     1       2.469  -0.137  21.980  0.00  0.00    +0.020 A 
ENDBRANCH  25  28
ENDBRANCH  24  25
ENDBRANCH  23  24
ENDBRANCH  22  23
TORSDOF 10
ENDMDL
MODEL 5
REMARK VINA RESULT:      -6.8     14.202     16.669
REMARK  Name = 
REMARK  10 active torsions:
REMARK  status: ('A' for Active; 'I' for Inactive)
REMARK    1  A    between atoms: C_2  and  C_4
REMARK    2  A    between atoms: C_6  and  C_7
REMARK    3  A    between atoms: C_7  and  C_8
REMARK    4  A    between atoms: N_10  and  C_11
REMARK    5  A    between atoms: C_11  and  C_12
REMARK    6  A    between atoms: C_12  and  N_13
REMARK    7  A    between atoms: C_22  and  C_23
REMARK    8  A    between atoms: C_23  and  N_24
REMARK    9  A    between atoms: N_24  and  S_25
REMARK   10  A    between atoms: S_25  and  C_28
REMARK                            x       y       z     vdW  Elec       q    Type
REMARK                         _______ _______ _______ _____ _____    ______ ____
ROOT
ATOM      4  C   UNL     1      -6.113 -10.201  13.472  0.00  0.00    +0.006 C 
ATOM      5  C   UNL     1      -6.201 -10.313  14.285  0.00  0.00    +0.005 C 
ATOM      6  C   UNL     1      -5.538 -10.460  14.756  0.00  0.00    +0.027 C 
ATOM     19  C   UNL     1      -4.789 -10.496  14.413  0.00  0.00    -0.048 C 
ATOM     20  C   UNL     1      -4.128 -10.644  14.882  0.00  0.00    +0.026 C 
ATOM     21  C   UNL     1      -4.702 -10.385  13.600  0.00  0.00    -0.033 C 
ATOM     22  C   UNL     1      -5.364 -10.238  13.129  0.00  0.00    +0.041 C 
ENDROOT
BRANCH   4   2
ATOM      1  C   UNL     1      -7.009  -9.277  12.853  0.00  0.00    +0.000 C 
ATOM      2  C   UNL     1      -6.775 -10.054  13.003  0.00  0.00    +0.000 C 
ATOM      3  C   UNL     1      -7.203 -10.683  12.683  0.00  0.00    +0.000 C 
ENDBRANCH   4   2
BRANCH   6   7
ATOM      7  C   UNL     1      -5.627 -10.571  15.568  0.00  0.00    +0.091 C 
BRANCH   7   8
ATOM      8  C   UNL     1      -6.067 -10.033  16.011  0.00  0.00    +0.242 C 
ATOM      9  O   UNL     1      -5.810  -9.252  16.087  0.00  0.00    -0.273 OA
ATOM     10  N   UNL     1      -6.765 -10.276  16.379  0.00  0.00    -0.204 NA
BRANCH  10  11
ATOM     11  C   UNL     1      -7.205  -9.737  16.823  0.00  0.00    +0.132 C 
BRANCH  11  12
ATOM     12  C   UNL     1      -7.730 -10.009  17.400  0.00  0.00    +0.096 C 
BRANCH  12  13
ATOM     13  N   UNL     1      -8.475  -9.664  17.475  0.00  0.00    -0.267 NA
ATOM     14  C   UNL     1      -8.564  -8.849  17.373  0.00  0.00    +0.105 C 
ATOM     15  C   UNL     1      -9.309  -8.504  17.448  0.00  0.00    +0.159 C 
ATOM     16  O   UNL     1      -9.965  -8.971  17.625  0.00  0.00    -0.351 OA
ATOM     17  C   UNL     1      -9.876  -9.785  17.726  0.00  0.00    +0.159 C 
ATOM     18  C   UNL     1      -9.131 -10.132  17.651  0.00  0.00    +0.105 C 
ENDBRANCH  12  13
ENDBRANCH  11  12
ENDBRANCH  10  11
ENDBRANCH   7   8
ENDBRANCH   6   7
BRANCH  22  23
ATOM     23  C   UNL     1      -5.276 -10.126  12.317  0.00  0.00    +0.120 C 
BRANCH  23  24
ATOM     24  N   UNL     1      -4.524 -10.133  11.978  0.00  0.00    -0.077 NA
BRANCH  24  25
ATOM     25  S   UNL     1      -4.432  -9.972  11.175  0.00  0.00    +0.077 S 
ATOM     26  O   UNL     1      -4.425  -9.163  11.337  0.00  0.00    -0.152 OA
ATOM     27  O   UNL     1      -4.439 -10.781  11.012  0.00  0.00    -0.152 OA
BRANCH  25  28
ATOM     28  C   UNL     1      -4.340  -9.811  10.371  0.00  0.00    +0.124 A 
ATOM     29  C   UNL     1      -3.891  -9.163  10.128  0.00  0.00    +0.020 A 
ATOM     30  C   UNL     1      -3.799  -9.003   9.325  0.00  0.00    +0.001 A 
ATOM     31  C   UNL     1      -4.157  -9.490   8.762  0.00  0.00    +0.000 A 
ATOM     32  C   UNL     1      -4.606 -10.137   9.005  0.00  0.00    +0.001 A 
ATOM     33  C   UNL     1      -4.698 -10.298   9.810  0.00  0.00    +0.020 A 
ENDBRANCH  25  28
ENDBRANCH  24  25
ENDBRANCH  23  24
ENDBRANCH  22  23
TORSDOF 10
ENDMDL
MODEL 6
REMARK VINA RESULT:      -6.3     14.576     16.265
REMARK  Name = 
REMARK  10 active torsions:
REMARK  status: ('A' for Active; 'I' for Inactive)
REMARK    1  A    between atoms: C_2  and  C_4
REMARK    2  A    between atoms: C_6  and  C_7
REMARK    3  A    between atoms: C_7  and  C_8
REMARK    4  A    between atoms: N_10  and  C_11
REMARK    5  A    between atoms: C_11  and  C_12
REMARK    6  A    between atoms: C_12  and  N_13
REMARK    7  A    between atoms: C_22  and  C_23
REMARK    8  A    between atoms: C_23  and  N_24
REMARK    9  A    between atoms: N_24  and  S_25
REMARK   10  A    between atoms: S_25  and  C_28
REMARK                            x       y       z     vdW  Elec       q    Type
REMARK                         _______ _______ _______ _____ _____    ______ ____
ROOT
ATOM      4  C   UNL     1      -6.829 -10.157  14.994  0.00  0.00    +0.006 C 
ATOM      5  C   UNL     1      -6.398 -10.351  14.317  0.00  0.00    +0.005 C 
ATOM      6  C   UNL     1      -6.780 -10.407  13.587  0.00  0.00    +0.027 C 
ATOM     19  C   UNL     1      -7.591 -10.268  13.534  0.00  0.00    -0.048 C 
ATOM     20  C   UNL     1      -7.972 -10.323  12.805  0.00  0.00    +0.026 C 
ATOM     21  C   UNL     1      -8.021 -10.073  14.211  0.00  0.00    -0.033 C 
ATOM     22  C   UNL     1      -7.640 -10.018  14.941  0.00  0.00    +0.041 C 
ENDROOT
BRANCH   4   2
ATOM      1  C   UNL     1      -6.319 -10.781  16.173  0.00  0.00    +0.000 C 
ATOM      2  C   UNL     1      -6.447 -10.102  15.723  0.00  0.00    +0.000 C 
ATOM      3  C   UNL     1      -6.194  -9.368  16.002  0.00  0.00    +0.000 C 
ENDBRANCH   4   2
BRANCH   6   7
ATOM      7  C   UNL     1      -6.349 -10.601  12.911  0.00  0.00    +0.091 C 
BRANCH   7   8
ATOM      8  C   UNL     1      -5.620 -10.242  12.770  0.00  0.00    +0.242 C 
ATOM      9  O   UNL     1      -5.555  -9.420  12.786  0.00  0.00    -0.273 OA
ATOM     10  N   UNL     1      -4.955 -10.706  12.613  0.00  0.00    -0.204 NA
BRANCH  10  11
ATOM     11  C   UNL     1      -4.226 -10.347  12.472  0.00  0.00    +0.132 C 
BRANCH  11  12
ATOM     12  C   UNL     1      -3.613 -10.779  12.127  0.00  0.00    +0.096 C 
BRANCH  12  13
ATOM     13  N   UNL     1      -2.887 -10.417  11.977  0.00  0.00    -0.267 NA
ATOM     14  C   UNL     1      -2.755 -10.044  11.252  0.00  0.00    +0.105 C 
ATOM     15  C   UNL     1      -2.030  -9.682  11.102  0.00  0.00    +0.159 C 
ATOM     16  O   UNL     1      -1.436  -9.692  11.675  0.00  0.00    -0.351 OA
ATOM     17  C   UNL     1      -1.569 -10.064  12.398  0.00  0.00    +0.159 C 
ATOM     18  C   UNL     1      -2.294 -10.427  12.550  0.00  0.00    +0.105 C 
ENDBRANCH  12  13
ENDBRANCH  11  12
ENDBRANCH  10  11
ENDBRANCH   7   8
ENDBRANCH   6   7
BRANCH  22  23
ATOM     23  C   UNL     1      -8.070  -9.823  15.617  0.00  0.00    +0.120 C 
BRANCH  23  24
ATOM     24  N   UNL     1      -8.881  -9.682  15.564  0.00  0.00    -0.077 NA
BRANCH  24  25
ATOM     25  S   UNL     1      -9.319  -9.531  16.246  0.00  0.00    +0.077 S 
ATOM     26  O   UNL     1      -9.480 -10.337  16.322  0.00  0.00    -0.152 OA
ATOM     27  O   UNL     1      -9.158  -8.725  16.171  0.00  0.00    -0.152 OA
BRANCH  25  28
ATOM     28  C   UNL     1      -9.757  -9.379  16.929  0.00  0.00    +0.124 A 
ATOM     29  C   UNL     1     -10.213  -8.694  16.983  0.00  0.00    +0.020 A 
ATOM     30  C   UNL     1     -10.650  -8.543  17.665  0.00  0.00    +0.001 A 
ATOM     31  C   UNL     1     -10.633  -9.076  18.294  0.00  0.00    +0.000 A 
ATOM     32  C   UNL     1     -10.177  -9.762  18.240  0.00  0.00    +0.001 A 
ATOM     33  C   UNL     1      -9.738  -9.914  17.557  0.00  0.00    +0.020 A 
ENDBRANCH  25  28
ENDBRANCH  24  25
ENDBRANCH  23  24
ENDBRANCH  22  23
TORSDOF 10
ENDMDL
