MODEL 1
REMARK VINA RESULT:      -8.3      0.000      0.000
REMARK  Name = 
REMARK  5 active torsions:
REMARK  status: ('A' for Active; 'I' for Inactive)
REMARK    1  A    between atoms: N_2  and  C_4
REMARK    2  A    between atoms: C_7  and  C_8
REMARK    3  A    between atoms: C_8  and  N_9
REMARK    4  A    between atoms: C_10  and  C_12
REMARK    5  A    between atoms: C_12  and  C_13
REMARK                            x       y       z     vdW  Elec       q    Type
REMARK                         _______ _______ _______ _____ _____    ______ ____
ROOT
ATOM      4  C   UNL     1      -4.160   2.692  24.834  0.00  0.00    +0.121 C 
ATOM      5  C   UNL     1      -4.905   2.349  24.748  0.00  0.00    +0.161 C 
ATOM      6  O   UNL     1      -4.800   1.545  24.598  0.00  0.00    -0.350 OA
ATOM      7  C   UNL     1      -3.989   1.392  24.590  0.00  0.00    +0.168 C 
ATOM     17  C   UNL     1      -3.594   2.100  24.736  0.00  0.00    +0.198 C 
ATOM     18  O   UNL     1      -2.776   2.200  24.777  0.00  0.00    -0.219 OA
ENDROOT
BRANCH   4   2
ATOM      1  C   UNL     1      -4.041   3.771  25.763  0.00  0.00    +0.090 C 
ATOM      2  N   UNL     1      -4.008   3.488  24.989  0.00  0.00    -0.267 NA
ATOM      3  C   UNL     1      -3.822   4.002  24.370  0.00  0.00    +0.090 C 
ENDBRANCH   4   2
BRANCH   7   8
ATOM      8  C   UNL     1      -3.636   0.657  24.460  0.00  0.00    +0.147 C 
BRANCH   8   9
ATOM      9  N   UNL     1      -4.059  -0.036  24.608  0.00  0.00    -0.203 NA
ATOM     10  C   UNL     1      -3.710  -0.770  24.469  0.00  0.00    +0.241 C 
ATOM     11  O   UNL     1      -2.938  -0.812  24.180  0.00  0.00    -0.273 OA
BRANCH  10  12
ATOM     12  C   UNL     1      -4.132  -1.462  24.618  0.00  0.00    +0.087 C 
BRANCH  12  13
ATOM     13  C   UNL     1      -3.784  -2.197  24.477  0.00  0.00    +0.009 C 
ATOM     14  C   UNL     1      -3.436  -2.931  24.339  0.00  0.00    +0.000 C 
ATOM     15  C   UNL     1      -4.152  -2.232  23.740  0.00  0.00    +0.000 C 
ATOM     16  C   UNL     1      -3.416  -2.162  25.215  0.00  0.00    +0.000 C 
ENDBRANCH  12  13
ENDBRANCH  10  12
ENDBRANCH   8   9
ENDBRANCH   7   8
TORSDOF 5
ENDMDL
MODEL 2
REMARK VINA RESULT:      -7.8      1.965      2.212
REMARK  Name = 
REMARK  5 active torsions:
REMARK  status: ('A' for Active; 'I' for Inactive)
REMARK    1  A    between atoms: N_2  and  C_4
REMARK    2  A    between atoms: C_7  and  C_8
REMARK    3  A    between atoms: C_8  and  N_9
REMARK    4  A    between atoms: C_10  and  C_12
REMARK    5  A    between atoms: C_12  and  C_13
REMARK                            x       y       z     vdW  Elec       q    Type
REMARK                         _______ _______ _______ _____ _____    ______ ____
ROOT
ATOM      4  C   UNL     1      -1.274   2.102  25.139  0.00  0.00    +0.121 C 
ATOM      5  C   UNL     1      -2.090   2.218  25.113  0.00  0.00    +0.161 C 
ATOM      6  O   UNL     1      -2.448   1.486  24.985  0.00  0.00    -0.350 OA
ATOM      7  C   UNL     1      -1.853   0.917  24.932  0.00  0.00    +0.168 C 
ATOM     17  C   UNL     1      -1.127   1.297  25.028  0.00  0.00    +0.198 C 
ATOM     18  O   UNL     1      -0.386   0.937  25.014  0.00  0.00    -0.219 OA
ENDROOT
BRANCH   4   2
ATOM      1  C   UNL     1      -0.300   2.731  25.974  0.00  0.00    +0.090 C 
ATOM      2  N   UNL     1      -0.705   2.687  25.256  0.00  0.00    -0.267 NA
ATOM      3  C   UNL     1      -0.540   3.229  24.656  0.00  0.00    +0.090 C 
ENDBRANCH   4   2
BRANCH   7   8
ATOM      8  C   UNL     1      -1.964   0.109  24.806  0.00  0.00    +0.147 C 
BRANCH   8   9
ATOM      9  N   UNL     1      -2.711  -0.225  24.911  0.00  0.00    -0.203 NA
ATOM     10  C   UNL     1      -2.834  -1.022  24.738  0.00  0.00    +0.241 C 
ATOM     11  O   UNL     1      -2.210  -1.486  24.460  0.00  0.00    -0.273 OA
BRANCH  10  12
ATOM     12  C   UNL     1      -3.580  -1.357  24.843  0.00  0.00    +0.087 C 
BRANCH  12  13
ATOM     13  C   UNL     1      -3.760  -2.083  24.495  0.00  0.00    +0.009 C 
ATOM     14  C   UNL     1      -3.940  -2.810  24.149  0.00  0.00    +0.000 C 
ATOM     15  C   UNL     1      -4.123  -1.693  23.865  0.00  0.00    +0.000 C 
ATOM     16  C   UNL     1      -3.397  -2.473  25.125  0.00  0.00    +0.000 C 
ENDBRANCH  12  13
ENDBRANCH  10  12
ENDBRANCH   8   9
ENDBRANCH   7   8
TORSDOF 5
ENDMDL
MODEL 3
REMARK VINA RESULT:      -7.6      1.651      4.623
REMARK  Name = 
REMARK  5 active torsions:
REMARK  status: ('A' for Active; 'I' for Inactive)
REMARK    1  A    between atoms: N_2  and  C_4
REMARK    2  A    between atoms: C_7  and  C_8
REMARK    3  A    between atoms: C_8  and  N_9
REMARK    4  A    between atoms: C_10  and  C_12
REMARK    5  A    between atoms: C_12  and  C_13
REMARK                            x       y       z     vdW  Elec       q    Type
REMARK                         _______ _______ _______ _____ _____    ______ ____
ROOT
ATOM      4  C   UNL     1      -3.736  -0.174  24.758  0.00  0.00    +0.121 C 
ATOM      5  C   UNL     1      -4.287   0.380  25.025  0.00  0.00    +0.161 C 
ATOM      6  O   UNL     1      -3.946   1.128  24.965  0.00  0.00    -0.350 OA
ATOM      7  C   UNL     1      -3.184   1.037  24.660  0.00  0.00    +0.168 C 
ATOM     17  C   UNL     1      -3.054   0.233  24.533  0.00  0.00    +0.198 C 
ATOM     18  O   UNL     1      -2.365  -0.105  24.233  0.00  0.00    -0.219 OA
ENDROOT
BRANCH   4   2
ATOM      1  C   UNL     1      -4.187  -1.332  24.053  0.00  0.00    +0.090 C 
ATOM      2  N   UNL     1      -3.848  -0.990  24.723  0.00  0.00    -0.267 NA
ATOM      3  C   UNL     1      -3.619  -1.466  25.357  0.00  0.00    +0.090 C 
ENDBRANCH   4   2
BRANCH   7   8
ATOM      8  C   UNL     1      -2.647   1.646  24.510  0.00  0.00    +0.147 C 
BRANCH   8   9
ATOM      9  N   UNL     1      -2.515   2.229  25.078  0.00  0.00    -0.203 NA
ATOM     10  C   UNL     1      -2.032   2.874  24.903  0.00  0.00    +0.241 C 
ATOM     11  O   UNL     1      -1.681   2.937  24.159  0.00  0.00    -0.273 OA
BRANCH  10  12
ATOM     12  C   UNL     1      -1.900   3.457  25.471  0.00  0.00    +0.087 C 
BRANCH  12  13
ATOM     13  C   UNL     1      -1.513   4.156  25.264  0.00  0.00    +0.009 C 
ATOM     14  C   UNL     1      -1.128   4.855  25.057  0.00  0.00    +0.000 C 
ATOM     15  C   UNL     1      -0.785   3.788  25.379  0.00  0.00    +0.000 C 
ATOM     16  C   UNL     1      -2.243   4.524  25.148  0.00  0.00    +0.000 C 
ENDBRANCH  12  13
ENDBRANCH  10  12
ENDBRANCH   8   9
ENDBRANCH   7   8
TORSDOF 5
ENDMDL
MODEL 4
REMARK VINA RESULT:      -7.5      1.115      4.481
REMARK  Name = 
REMARK  5 active torsions:
REMARK  status: ('A' for Active; 'I' for Inactive)
REMARK    1  A    between atoms: N_2  and  C_4
REMARK    2  A    between atoms: C_7  and  C_8
REMARK    3  A    between atoms: C_8  and  N_9
REMARK    4  A    between atoms: C_10  and  C_12
REMARK    5  A    between atoms: C_12  and  C_13
REMARK                            x       y       z     vdW  Elec       q    Type
REMARK                         _______ _______ _______ _____ _____    ______ ____
ROOT
ATOM      4  C   UNL     1      -3.447  -1.715  24.498  0.00  0.00    +0.121 C 
ATOM      5  C   UNL     1      -4.060  -1.561  23.968  0.00  0.00    +0.161 C 
ATOM      6  O   UNL     1      -4.279  -0.771  24.055  0.00  0.00    -0.350 OA
ATOM      7  C   UNL     1      -3.802  -0.437  24.639  0.00  0.00    +0.168 C 
ATOM     17  C   UNL     1      -3.287  -1.020  24.913  0.00  0.00    +0.198 C 
ATOM     18  O   UNL     1      -2.714  -0.925  25.498  0.00  0.00    -0.219 OA
ENDROOT
BRANCH   4   2
ATOM      1  C   UNL     1      -2.279  -2.525  24.347  0.00  0.00    +0.090 C 
ATOM      2  N   UNL     1      -3.061  -2.438  24.596  0.00  0.00    -0.267 NA
ATOM      3  C   UNL     1      -3.456  -3.073  24.944  0.00  0.00    +0.090 C 
ENDBRANCH   4   2
BRANCH   7   8
ATOM      8  C   UNL     1      -3.834   0.345  24.902  0.00  0.00    +0.147 C 
BRANCH   8   9
ATOM      9  N   UNL     1      -4.506   0.801  24.760  0.00  0.00    -0.203 NA
ATOM     10  C   UNL     1      -4.513   1.600  24.962  0.00  0.00    +0.241 C 
ATOM     11  O   UNL     1      -3.848   1.945  25.307  0.00  0.00    -0.273 OA
BRANCH  10  12
ATOM     12  C   UNL     1      -5.185   2.056  24.819  0.00  0.00    +0.087 C 
BRANCH  12  13
ATOM     13  C   UNL     1      -5.290   2.773  25.214  0.00  0.00    +0.009 C 
ATOM     14  C   UNL     1      -5.394   3.490  25.607  0.00  0.00    +0.000 C 
ATOM     15  C   UNL     1      -5.758   2.395  25.778  0.00  0.00    +0.000 C 
ATOM     16  C   UNL     1      -4.822   3.152  24.649  0.00  0.00    +0.000 C 
ENDBRANCH  12  13
ENDBRANCH  10  12
ENDBRANCH   8   9
ENDBRANCH   7   8
TORSDOF 5
ENDMDL
