MODEL 1
REMARK VINA RESULT:     -10.2      0.000      0.000
REMARK  Name = 
REMARK  7 active torsions:
REMARK  status: ('A' for Active; 'I' for Inactive)
REMARK    1  A    between atoms: C_2  and  C_3
REMARK    2  A    between atoms: C_3  and  S_4
REMARK    3  A    between atoms: S_4  and  N_7
REMARK    4  A    between atoms: C_12  and  C_13
REMARK    5  A    between atoms: C_13  and  O_15
REMARK    6  A    between atoms: N_19  and  C_20
REMARK    7  A    between atoms: C_20  and  C_21
REMARK                            x       y       z     vdW  Elec       q    Type
REMARK                         _______ _______ _______ _____ _____    ______ ____
ROOT
ATOM      7  N   UNL     1      -3.524   2.637  24.910  0.00  0.00    -0.144 NA
ATOM      8  C   UNL     1      -3.718   1.837  24.864  0.00  0.00    +0.141 C 
ATOM      9  C   UNL     1      -3.141   1.283  24.662  0.00  0.00    +0.070 A 
ATOM     10  C   UNL     1      -2.369   1.530  24.506  0.00  0.00    +0.076 A 
ATOM     11  C   UNL     1      -2.174   2.331  24.553  0.00  0.00    +0.076 C 
ATOM     12  C   UNL     1      -2.752   2.884  24.755  0.00  0.00    +0.184 C 
ATOM     17  N   UNL     1      -1.920   0.863  24.322  0.00  0.00    -0.229 NA
ATOM     18  C   UNL     1      -2.414   0.204  24.363  0.00  0.00    +0.178 A 
ATOM     19  N   UNL     1      -3.168   0.464  24.573  0.00  0.00    -0.307 N 
ENDROOT
BRANCH   7   4
ATOM      4  S   UNL     1      -4.101   3.190  25.112  0.00  0.00    +0.045 S 
ATOM      5  O   UNL     1      -4.281   3.295  24.314  0.00  0.00    -0.157 OA
ATOM      6  O   UNL     1      -3.921   3.086  25.911  0.00  0.00    -0.157 OA
BRANCH   4   3
ATOM      3  C   UNL     1      -4.678   3.744  25.315  0.00  0.00    +0.169 C 
BRANCH   3   2
ATOM      1  C   UNL     1      -6.022   4.046  25.695  0.00  0.00    +0.002 C 
ATOM      2  C   UNL     1      -5.432   3.491  25.534  0.00  0.00    +0.027 C 
ENDBRANCH   3   2
ENDBRANCH   4   3
ENDBRANCH   7   4
BRANCH  12  13
ATOM     13  C   UNL     1      -2.557   3.684  24.801  0.00  0.00    +0.334 C 
ATOM     14  O   UNL     1      -2.809   4.204  24.212  0.00  0.00    -0.249 OA
BRANCH  13  15
ATOM     15  O   UNL     1      -2.111   3.964  25.436  0.00  0.00    -0.443 OA
ATOM     16  C   UNL     1      -1.591   4.596  25.327  0.00  0.00    +0.256 C 
ENDBRANCH  13  15
ENDBRANCH  12  13
BRANCH  19  20
ATOM     20  C   UNL     1      -3.834  -0.013  24.677  0.00  0.00    +0.134 C 
BRANCH  20  21
ATOM     21  C   UNL     1      -3.757  -0.834  24.681  0.00  0.00    +0.000 A 
ATOM     22  C   UNL     1      -3.484  -1.219  25.357  0.00  0.00    -0.002 A 
ATOM     23  C   UNL     1      -3.407  -2.041  25.362  0.00  0.00    +0.011 A 
ATOM     24  C   UNL     1      -3.603  -2.477  24.690  0.00  0.00    +0.058 A 
ATOM     25 CL   UNL     1      -3.527  -3.298  24.693  0.00  0.00    -0.082 Cl
ATOM     26  C   UNL     1      -3.877  -2.091  24.013  0.00  0.00    +0.011 A 
ATOM     27  C   UNL     1      -3.953  -1.271  24.009  0.00  0.00    -0.002 A 
ENDBRANCH  20  21
ENDBRANCH  19  20
TORSDOF 7
ENDMDL
MODEL 2
REMARK VINA RESULT:      -9.8      0.896      2.248
REMARK  Name = 
REMARK  7 active torsions:
REMARK  status: ('A' for Active; 'I' for Inactive)
REMARK    1  A    between atoms: C_2  and  C_3
REMARK    2  A    between atoms: C_3  and  S_4
REMARK    3  A    between atoms: S_4  and  N_7
REMARK    4  A    between atoms: C_12  and  C_13
REMARK    5  A    between atoms: C_13  and  O_15
REMARK    6  A    between atoms: N_19  and  C_20
REMARK    7  A    between atoms: C_20  and  C_21
REMARK                            x       y       z     vdW  Elec       q    Type
REMARK                         _______ _______ _______ _____ _____    ______ ____
ROOT
ATOM      7  N   UNL     1      -3.604   2.596  25.010  0.00  0.00    -0.144 NA
ATOM      8  C   UNL     1      -3.486   1.818  24.762  0.00  0.00    +0.141 C 
ATOM      9  C   UNL     1      -4.104   1.273  24.805  0.00  0.00    +0.070 A 
ATOM     10  C   UNL     1      -4.840   1.506  25.096  0.00  0.00    +0.076 A 
ATOM     11  C   UNL     1      -4.958   2.285  25.345  0.00  0.00    +0.076 C 
ATOM     12  C   UNL     1      -4.339   2.829  25.302  0.00  0.00    +0.184 C 
ATOM     17  N   UNL     1      -5.342   0.852  25.074  0.00  0.00    -0.229 NA
ATOM     18  C   UNL     1      -4.917   0.215  24.768  0.00  0.00    +0.178 A 
ATOM     19  N   UNL     1      -4.152   0.476  24.602  0.00  0.00    -0.307 N 
ENDROOT
BRANCH   7   4
ATOM      4  S   UNL     1      -2.986   3.140  24.967  0.00  0.00    +0.045 S 
ATOM      5  O   UNL     1      -2.754   2.938  25.733  0.00  0.00    -0.157 OA
ATOM      6  O   UNL     1      -3.217   3.343  24.201  0.00  0.00    -0.157 OA
BRANCH   4   3
ATOM      3  C   UNL     1      -2.368   3.685  24.924  0.00  0.00    +0.169 C 
BRANCH   3   2
ATOM      1  C   UNL     1      -0.970   3.964  24.818  0.00  0.00    +0.002 C 
ATOM      2  C   UNL     1      -1.593   3.422  24.823  0.00  0.00    +0.027 C 
ENDBRANCH   3   2
ENDBRANCH   4   3
ENDBRANCH   7   4
BRANCH  12  13
ATOM     13  C   UNL     1      -4.457   3.606  25.550  0.00  0.00    +0.334 C 
ATOM     14  O   UNL     1      -4.121   3.868  26.257  0.00  0.00    -0.249 OA
BRANCH  13  15
ATOM     15  O   UNL     1      -4.911   4.122  25.093  0.00  0.00    -0.443 OA
ATOM     16  C   UNL     1      -5.465   4.615  25.455  0.00  0.00    +0.256 C 
ENDBRANCH  13  15
ENDBRANCH  12  13
BRANCH  19  20
ATOM     20  C   UNL     1      -3.541   0.018  24.288  0.00  0.00    +0.134 C 
BRANCH  20  21
ATOM     21  C   UNL     1      -3.540  -0.800  24.398  0.00  0.00    +0.000 A 
ATOM     22  C   UNL     1      -3.937  -1.289  23.865  0.00  0.00    -0.002 A 
ATOM     23  C   UNL     1      -3.936  -2.106  23.975  0.00  0.00    +0.011 A 
ATOM     24  C   UNL     1      -3.537  -2.436  24.617  0.00  0.00    +0.058 A 
ATOM     25 CL   UNL     1      -3.535  -3.253  24.728  0.00  0.00    -0.082 Cl
ATOM     26  C   UNL     1      -3.140  -1.947  25.151  0.00  0.00    +0.011 A 
ATOM     27  C   UNL     1      -3.141  -1.130  25.041  0.00  0.00    -0.002 A 
ENDBRANCH  20  21
ENDBRANCH  19  20
TORSDOF 7
ENDMDL
MODEL 3
REMARK VINA RESULT:      -9.4      2.916      5.223
REMARK  Name = 
REMARK  7 active torsions:
REMARK  status: ('A' for Active; 'I' for Inactive)
REMARK    1  A    between atoms: C_2  and  C_3
REMARK    2  A    between atoms: C_3  and  S_4
REMARK    3  A    between atoms: S_4  and  N_7
REMARK    4  A    between atoms: C_12  and  C_13
REMARK    5  A    between atoms: C_13  and  O_15
REMARK    6  A    between atoms: N_19  and  C_20
REMARK    7  A    between atoms: C_20  and  C_21
REMARK                            x       y       z     vdW  Elec       q    Type
REMARK                         _______ _______ _______ _____ _____    ______ ____
ROOT
ATOM      7  N   UNL     1      -2.476  -0.162  24.979  0.00  0.00    -0.144 NA
ATOM      8  C   UNL     1      -2.162   0.592  25.094  0.00  0.00    +0.141 C 
ATOM      9  C   UNL     1      -2.641   1.257  25.001  0.00  0.00    +0.070 A 
ATOM     10  C   UNL     1      -3.435   1.169  24.793  0.00  0.00    +0.076 A 
ATOM     11  C   UNL     1      -3.749   0.414  24.678  0.00  0.00    +0.076 C 
ATOM     12  C   UNL     1      -3.270  -0.251  24.772  0.00  0.00    +0.184 C 
ATOM     17  N   UNL     1      -3.770   1.920  24.741  0.00  0.00    -0.229 NA
ATOM     18  C   UNL     1      -3.184   2.473  24.916  0.00  0.00    +0.178 A 
ATOM     19  N   UNL     1      -2.487   2.064  25.077  0.00  0.00    -0.307 N 
ENDROOT
BRANCH   7   4
ATOM      4  S   UNL     1      -1.998  -0.827  25.072  0.00  0.00    +0.045 S 
ATOM      5  O   UNL     1      -2.209  -0.869  25.868  0.00  0.00    -0.157 OA
ATOM      6  O   UNL     1      -1.786  -0.786  24.276  0.00  0.00    -0.157 OA
BRANCH   4   3
ATOM      3  C   UNL     1      -1.519  -1.493  25.165  0.00  0.00    +0.169 C 
BRANCH   3   2
ATOM      1  C   UNL     1      -0.222  -2.071  25.325  0.00  0.00    +0.002 C 
ATOM      2  C   UNL     1      -0.703  -1.404  25.252  0.00  0.00    +0.027 C 
ENDBRANCH   3   2
ENDBRANCH   4   3
ENDBRANCH   7   4
BRANCH  12  13
ATOM     13  C   UNL     1      -3.585  -1.004  24.657  0.00  0.00    +0.334 C 
ATOM     14  O   UNL     1      -3.765  -1.479  25.308  0.00  0.00    -0.249 OA
BRANCH  13  15
ATOM     15  O   UNL     1      -3.720  -1.283  23.892  0.00  0.00    -0.443 OA
ATOM     16  C   UNL     1      -4.313  -1.842  23.757  0.00  0.00    +0.256 C 
ENDBRANCH  13  15
ENDBRANCH  12  13
BRANCH  19  20
ATOM     20  C   UNL     1      -1.761   2.401  25.278  0.00  0.00    +0.134 C 
BRANCH  20  21
ATOM     21  C   UNL     1      -1.655   3.217  25.219  0.00  0.00    +0.000 A 
ATOM     22  C   UNL     1      -2.036   3.722  25.748  0.00  0.00    -0.002 A 
ATOM     23  C   UNL     1      -1.930   4.539  25.689  0.00  0.00    +0.011 A 
ATOM     24  C   UNL     1      -1.443   4.849  25.101  0.00  0.00    +0.058 A 
ATOM     25 CL   UNL     1      -1.336   5.665  25.041  0.00  0.00    -0.082 Cl
ATOM     26  C   UNL     1      -1.061   4.344  24.571  0.00  0.00    +0.011 A 
ATOM     27  C   UNL     1      -1.168   3.529  24.631  0.00  0.00    -0.002 A 
ENDBRANCH  20  21
ENDBRANCH  19  20
TORSDOF 7
ENDMDL
MODEL 4
REMARK VINA RESULT:      -9.1      2.764      4.593
REMARK  Name = 
REMARK  7 active torsions:
REMARK  status: ('A' for Active; 'I' for Inactive)
REMARK    1  A    between atoms: C_2  and  C_3
REMARK    2  A    between atoms: C_3  and  S_4
REMARK    3  A    between atoms: S_4  and  N_7
REMARK    4  A    between atoms: C_12  and  C_13
REMARK    5  A    between atoms: C_13  and  O_15
REMARK    6  A    between atoms: N_19  and  C_20
REMARK    7  A    between atoms: C_20  and  C_21
REMARK                            x       y       z     vdW  Elec       q    Type
REMARK                         _______ _______ _______ _____ _____    ______ ____
ROOT
ATOM      7  N   UNL     1      -2.515  -0.408  24.872  0.00  0.00    -0.144 NA
ATOM      8  C   UNL     1      -2.997   0.229  24.673  0.00  0.00    +0.141 C 
ATOM      9  C   UNL     1      -2.710   1.000  24.735  0.00  0.00    +0.070 A 
ATOM     10  C   UNL     1      -1.939   1.133  24.997  0.00  0.00    +0.076 A 
ATOM     11  C   UNL     1      -1.456   0.494  25.197  0.00  0.00    +0.076 C 
ATOM     12  C   UNL     1      -1.744  -0.276  25.134  0.00  0.00    +0.184 C 
ATOM     17  N   UNL     1      -1.808   1.947  25.002  0.00  0.00    -0.229 NA
ATOM     18  C   UNL     1      -2.498   2.318  24.743  0.00  0.00    +0.178 A 
ATOM     19  N   UNL     1      -3.055   1.733  24.578  0.00  0.00    -0.307 N 
ENDROOT
BRANCH   7   4
ATOM      4  S   UNL     1      -2.802  -1.179  24.810  0.00  0.00    +0.045 S 
ATOM      5  O   UNL     1      -2.545  -1.212  24.027  0.00  0.00    -0.157 OA
ATOM      6  O   UNL     1      -3.060  -1.146  25.594  0.00  0.00    -0.157 OA
BRANCH   4   3
ATOM      3  C   UNL     1      -3.090  -1.950  24.749  0.00  0.00    +0.169 C 
BRANCH   3   2
ATOM      1  C   UNL     1      -4.002  -2.885  24.169  0.00  0.00    +0.002 C 
ATOM      2  C   UNL     1      -3.754  -2.106  24.285  0.00  0.00    +0.027 C 
ENDBRANCH   3   2
ENDBRANCH   4   3
ENDBRANCH   7   4
BRANCH  12  13
ATOM     13  C   UNL     1      -1.260  -0.913  25.335  0.00  0.00    +0.334 C 
ATOM     14  O   UNL     1      -1.320  -1.257  26.083  0.00  0.00    -0.249 OA
BRANCH  13  15
ATOM     15  O   UNL     1      -0.718  -1.208  24.787  0.00  0.00    -0.443 OA
ATOM     16  C   UNL     1      -0.025  -1.572  25.049  0.00  0.00    +0.256 C 
ENDBRANCH  13  15
ENDBRANCH  12  13
BRANCH  19  20
ATOM     20  C   UNL     1      -3.823   1.858  24.304  0.00  0.00    +0.134 C 
BRANCH  20  21
ATOM     21  C   UNL     1      -4.301   2.429  24.660  0.00  0.00    +0.000 A 
ATOM     22  C   UNL     1      -4.192   3.227  24.483  0.00  0.00    -0.002 A 
ATOM     23  C   UNL     1      -4.669   3.798  24.840  0.00  0.00    +0.011 A 
ATOM     24  C   UNL     1      -5.256   3.570  25.373  0.00  0.00    +0.058 A 
ATOM     25 CL   UNL     1      -5.733   4.141  25.729  0.00  0.00    -0.082 Cl
ATOM     26  C   UNL     1      -5.365   2.772  25.550  0.00  0.00    +0.011 A 
ATOM     27  C   UNL     1      -4.888   2.202  25.194  0.00  0.00    -0.002 A 
ENDBRANCH  20  21
ENDBRANCH  19  20
TORSDOF 7
ENDMDL
