MODEL 1
REMARK VINA RESULT:     -12.6      0.000      0.000
REMARK  Name = 
REMARK  5 active torsions:
REMARK  status: ('A' for Active; 'I' for Inactive)
REMARK    1  A    between atoms: C_2  and  N_3
REMARK    2  A    between atoms: C_2  and  C_26
REMARK    3  A    between atoms: C_4  and  C_6
REMARK    4  A    between atoms: C_8  and  N_9
REMARK    5  A    between atoms: N_12  and  C_13
REMARK                            x       y       z     vdW  Elec       q    Type
REMARK                         _______ _______ _______ _____ _____    ______ ____
ROOT
ATOM      6  C   UNL     1      -3.805   3.067  25.127  0.00  0.00    +0.033 C 
ATOM      7  C   UNL     1      -3.958   2.340  24.767  0.00  0.00    -0.002 C 
ATOM      8  C   UNL     1      -4.690   1.974  24.872  0.00  0.00    +0.152 C 
ATOM     21  C   UNL     1      -5.269   2.334  25.336  0.00  0.00    +0.206 C 
ATOM     22  O   UNL     1      -6.001   1.968  25.440  0.00  0.00    -0.218 OA
ATOM     23  C   UNL     1      -5.116   3.061  25.696  0.00  0.00    +0.189 C 
ATOM     24  O   UNL     1      -5.695   3.421  26.160  0.00  0.00    -0.220 OA
ATOM     25  C   UNL     1      -4.384   3.427  25.591  0.00  0.00    +0.066 C 
ENDROOT
BRANCH   8   9
ATOM      9  N   UNL     1      -4.842   1.247  24.512  0.00  0.00    -0.181 NA
ATOM     10  C   UNL     1      -4.410   0.579  24.731  0.00  0.00    +0.344 C 
ATOM     11  O   UNL     1      -3.825   0.638  25.310  0.00  0.00    -0.249 OA
ATOM     12  N   UNL     1      -4.562  -0.147  24.372  0.00  0.00    -0.159 NA
BRANCH  12  13
ATOM     13  C   UNL     1      -4.130  -0.815  24.591  0.00  0.00    +0.102 A 
ATOM     14  C   UNL     1      -3.857  -0.895  25.365  0.00  0.00    +0.021 A 
ATOM     15  C   UNL     1      -3.426  -1.563  25.583  0.00  0.00    +0.031 A 
ATOM     16  C   UNL     1      -3.267  -2.151  25.027  0.00  0.00    +0.142 A 
ATOM     17  F   UNL     1      -2.835  -2.819  25.244  0.00  0.00    -0.204 F 
ATOM     18  C   UNL     1      -3.540  -2.071  24.252  0.00  0.00    +0.061 A 
ATOM     19  C   UNL     1      -3.972  -1.402  24.034  0.00  0.00    +0.158 A 
ATOM     20  F   UNL     1      -4.245  -1.322  23.260  0.00  0.00    -0.203 F 
ENDBRANCH  12  13
ENDBRANCH   8   9
BRANCH   6   4
ATOM      3  N   UNL     1      -2.462   3.293  25.557  0.00  0.00    -0.194 NA
ATOM      4  C   UNL     1      -3.073   3.433  25.022  0.00  0.00    +0.261 C 
ATOM      5  O   UNL     1      -2.953   3.939  24.382  0.00  0.00    -0.269 OA
BRANCH   3   2
ATOM      1  C   UNL     1      -1.693   4.437  25.180  0.00  0.00    +0.033 C 
ATOM      2  C   UNL     1      -1.730   3.659  25.453  0.00  0.00    +0.175 C 
BRANCH   2  26
ATOM     26  C   UNL     1      -1.035   3.248  25.621  0.00  0.00    +0.281 C 
ATOM     27  N   UNL     1      -0.429   3.215  25.062  0.00  0.00    -0.086 NA
ATOM     28  O   UNL     1      -0.946   2.869  26.349  0.00  0.00    -0.270 OA
ENDBRANCH   2  26
ENDBRANCH   3   2
ENDBRANCH   6   4
TORSDOF 5
ENDMDL
MODEL 2
REMARK VINA RESULT:     -11.8      1.741      3.242
REMARK  Name = 
REMARK  5 active torsions:
REMARK  status: ('A' for Active; 'I' for Inactive)
REMARK    1  A    between atoms: C_2  and  N_3
REMARK    2  A    between atoms: C_2  and  C_26
REMARK    3  A    between atoms: C_4  and  C_6
REMARK    4  A    between atoms: C_8  and  N_9
REMARK    5  A    between atoms: N_12  and  C_13
REMARK                            x       y       z     vdW  Elec       q    Type
REMARK                         _______ _______ _______ _____ _____    ______ ____
ROOT
ATOM      6  C   UNL     1      -1.235   2.166  25.190  0.00  0.00    +0.033 C 
ATOM      7  C   UNL     1      -1.458   1.397  25.392  0.00  0.00    -0.002 C 
ATOM      8  C   UNL     1      -1.003   0.756  25.141  0.00  0.00    +0.152 C 
ATOM     21  C   UNL     1      -0.325   0.883  24.687  0.00  0.00    +0.206 C 
ATOM     22  O   UNL     1       0.130   0.243  24.436  0.00  0.00    -0.218 OA
ATOM     23  C   UNL     1      -0.102   1.652  24.485  0.00  0.00    +0.189 C 
ATOM     24  O   UNL     1       0.575   1.779  24.032  0.00  0.00    -0.220 OA
ATOM     25  C   UNL     1      -0.557   2.293  24.737  0.00  0.00    +0.066 C 
ENDROOT
BRANCH   8   9
ATOM      9  N   UNL     1      -1.225  -0.012  25.343  0.00  0.00    -0.181 NA
ATOM     10  C   UNL     1      -1.876  -0.364  24.976  0.00  0.00    +0.344 C 
ATOM     11  O   UNL     1      -2.303   0.054  24.407  0.00  0.00    -0.249 OA
ATOM     12  N   UNL     1      -2.099  -1.131  25.177  0.00  0.00    -0.159 NA
BRANCH  12  13
ATOM     13  C   UNL     1      -2.749  -1.482  24.811  0.00  0.00    +0.102 A 
ATOM     14  C   UNL     1      -3.458  -1.067  24.741  0.00  0.00    +0.021 A 
ATOM     15  C   UNL     1      -4.107  -1.419  24.375  0.00  0.00    +0.031 A 
ATOM     16  C   UNL     1      -4.048  -2.186  24.078  0.00  0.00    +0.142 A 
ATOM     17  F   UNL     1      -4.697  -2.538  23.711  0.00  0.00    -0.204 F 
ATOM     18  C   UNL     1      -3.339  -2.602  24.147  0.00  0.00    +0.061 A 
ATOM     19  C   UNL     1      -2.688  -2.249  24.514  0.00  0.00    +0.158 A 
ATOM     20  F   UNL     1      -1.980  -2.664  24.583  0.00  0.00    -0.203 F 
ENDBRANCH  12  13
ENDBRANCH   8   9
BRANCH   6   4
ATOM      3  N   UNL     1      -2.350   3.039  25.006  0.00  0.00    -0.194 NA
ATOM      4  C   UNL     1      -1.690   2.806  25.441  0.00  0.00    +0.261 C 
ATOM      5  O   UNL     1      -1.484   3.213  26.129  0.00  0.00    -0.269 OA
BRANCH   3   2
ATOM      1  C   UNL     1      -2.476   4.249  25.755  0.00  0.00    +0.033 C 
ATOM      2  C   UNL     1      -2.805   3.680  25.257  0.00  0.00    +0.175 C 
BRANCH   2  26
ATOM     26  C   UNL     1      -3.588   3.752  25.010  0.00  0.00    +0.281 C 
ATOM     27  N   UNL     1      -4.198   3.754  25.566  0.00  0.00    -0.086 NA
ATOM     28  O   UNL     1      -3.763   3.822  24.206  0.00  0.00    -0.270 OA
ENDBRANCH   2  26
ENDBRANCH   3   2
ENDBRANCH   6   4
TORSDOF 5
ENDMDL
MODEL 3
REMARK VINA RESULT:     -11.7      2.333      4.766
REMARK  Name = 
REMARK  5 active torsions:
REMARK  status: ('A' for Active; 'I' for Inactive)
REMARK    1  A    between atoms: C_2  and  N_3
REMARK    2  A    between atoms: C_2  and  C_26
REMARK    3  A    between atoms: C_4  and  C_6
REMARK    4  A    between atoms: C_8  and  N_9
REMARK    5  A    between atoms: N_12  and  C_13
REMARK                            x       y       z     vdW  Elec       q    Type
REMARK                         _______ _______ _______ _____ _____    ______ ____
ROOT
ATOM      6  C   UNL     1      -4.459   1.078  24.818  0.00  0.00    +0.033 C 
ATOM      7  C   UNL     1      -3.997   1.639  25.210  0.00  0.00    -0.002 C 
ATOM      8  C   UNL     1      -4.335   2.350  25.458  0.00  0.00    +0.152 C 
ATOM     21  C   UNL     1      -5.133   2.501  25.314  0.00  0.00    +0.206 C 
ATOM     22  O   UNL     1      -5.470   3.212  25.561  0.00  0.00    -0.218 OA
ATOM     23  C   UNL     1      -5.595   1.940  24.921  0.00  0.00    +0.189 C 
ATOM     24  O   UNL     1      -6.393   2.091  24.777  0.00  0.00    -0.220 OA
ATOM     25  C   UNL     1      -5.258   1.229  24.673  0.00  0.00    +0.066 C 
ENDROOT
BRANCH   8   9
ATOM      9  N   UNL     1      -3.874   2.910  25.850  0.00  0.00    -0.181 NA
ATOM     10  C   UNL     1      -3.212   3.234  25.478  0.00  0.00    +0.344 C 
ATOM     11  O   UNL     1      -3.013   2.998  24.713  0.00  0.00    -0.249 OA
ATOM     12  N   UNL     1      -2.751   3.794  25.869  0.00  0.00    -0.159 NA
BRANCH  12  13
ATOM     13  C   UNL     1      -2.090   4.118  25.497  0.00  0.00    +0.102 A 
ATOM     14  C   UNL     1      -1.509   3.624  25.183  0.00  0.00    +0.021 A 
ATOM     15  C   UNL     1      -0.849   3.949  24.812  0.00  0.00    +0.031 A 
ATOM     16  C   UNL     1      -0.769   4.769  24.754  0.00  0.00    +0.142 A 
ATOM     17  F   UNL     1      -0.109   5.094  24.382  0.00  0.00    -0.204 F 
ATOM     18  C   UNL     1      -1.350   5.263  25.068  0.00  0.00    +0.061 A 
ATOM     19  C   UNL     1      -2.011   4.938  25.440  0.00  0.00    +0.158 A 
ATOM     20  F   UNL     1      -2.592   5.431  25.754  0.00  0.00    -0.203 F 
ENDBRANCH  12  13
ENDBRANCH   8   9
BRANCH   6   4
ATOM      3  N   UNL     1      -4.073  -0.270  25.092  0.00  0.00    -0.194 NA
ATOM      4  C   UNL     1      -4.123   0.367  24.570  0.00  0.00    +0.261 C 
ATOM      5  O   UNL     1      -3.835   0.293  23.800  0.00  0.00    -0.269 OA
BRANCH   3   2
ATOM      1  C   UNL     1      -3.598  -1.115  24.042  0.00  0.00    +0.033 C 
ATOM      2  C   UNL     1      -3.736  -0.981  24.844  0.00  0.00    +0.175 C 
BRANCH   2  26
ATOM     26  C   UNL     1      -3.536  -1.558  25.398  0.00  0.00    +0.281 C 
ATOM     27  N   UNL     1      -3.487  -2.350  25.171  0.00  0.00    -0.086 NA
ATOM     28  O   UNL     1      -3.387  -1.344  26.182  0.00  0.00    -0.270 OA
ENDBRANCH   2  26
ENDBRANCH   3   2
ENDBRANCH   6   4
TORSDOF 5
ENDMDL
MODEL 4
REMARK VINA RESULT:     -11.5      2.444      4.400
REMARK  Name = 
REMARK  5 active torsions:
REMARK  status: ('A' for Active; 'I' for Inactive)
REMARK    1  A    between atoms: C_2  and  N_3
REMARK    2  A    between atoms: C_2  and  C_26
REMARK    3  A    between atoms: C_4  and  C_6
REMARK    4  A    between atoms: C_8  and  N_9
REMARK    5  A    between atoms: N_12  and  C_13
REMARK                            x       y       z     vdW  Elec       q    Type
REMARK                         _______ _______ _______ _____ _____    ______ ____
ROOT
ATOM      6  C   UNL     1      -0.651   1.475  24.809  0.00  0.00    +0.033 C 
ATOM      7  C   UNL     1      -1.337   1.884  24.597  0.00  0.00    -0.002 C 
ATOM      8  C   UNL     1      -1.509   2.610  24.948  0.00  0.00    +0.152 C 
ATOM     21  C   UNL     1      -0.997   2.929  25.511  0.00  0.00    +0.206 C 
ATOM     22  O   UNL     1      -1.170   3.655  25.861  0.00  0.00    -0.218 OA
ATOM     23  C   UNL     1      -0.312   2.521  25.723  0.00  0.00    +0.189 C 
ATOM     24  O   UNL     1       0.200   2.839  26.286  0.00  0.00    -0.220 OA
ATOM     25  C   UNL     1      -0.139   1.794  25.372  0.00  0.00    +0.066 C 
ENDROOT
BRANCH   8   9
ATOM      9  N   UNL     1      -2.194   3.018  24.735  0.00  0.00    -0.181 NA
ATOM     10  C   UNL     1      -2.935   2.700  24.910  0.00  0.00    +0.344 C 
ATOM     11  O   UNL     1      -2.991   1.973  25.296  0.00  0.00    -0.249 OA
ATOM     12  N   UNL     1      -3.619   3.107  24.697  0.00  0.00    -0.159 NA
BRANCH  12  13
ATOM     13  C   UNL     1      -4.360   2.790  24.871  0.00  0.00    +0.102 A 
ATOM     14  C   UNL     1      -4.571   2.049  24.576  0.00  0.00    +0.021 A 
ATOM     15  C   UNL     1      -5.312   1.732  24.751  0.00  0.00    +0.031 A 
ATOM     16  C   UNL     1      -5.843   2.155  25.220  0.00  0.00    +0.142 A 
ATOM     17  F   UNL     1      -6.584   1.838  25.394  0.00  0.00    -0.204 F 
ATOM     18  C   UNL     1      -5.632   2.896  25.515  0.00  0.00    +0.061 A 
ATOM     19  C   UNL     1      -4.890   3.214  25.341  0.00  0.00    +0.158 A 
ATOM     20  F   UNL     1      -4.679   3.954  25.635  0.00  0.00    -0.203 F 
ENDBRANCH  12  13
ENDBRANCH   8   9
BRANCH   6   4
ATOM      3  N   UNL     1      -0.654   0.048  24.855  0.00  0.00    -0.194 NA
ATOM      4  C   UNL     1      -0.479   0.749  24.459  0.00  0.00    +0.261 C 
ATOM      5  O   UNL     1      -0.132   0.724  23.711  0.00  0.00    -0.269 OA
BRANCH   3   2
ATOM      1  C   UNL     1      -0.030  -0.707  23.815  0.00  0.00    +0.033 C 
ATOM      2  C   UNL     1      -0.481  -0.679  24.505  0.00  0.00    +0.175 C 
BRANCH   2  26
ATOM     26  C   UNL     1      -0.759  -1.377  24.844  0.00  0.00    +0.281 C 
ATOM     27  N   UNL     1      -1.423  -1.753  24.530  0.00  0.00    -0.086 NA
ATOM     28  O   UNL     1      -0.373  -1.701  25.499  0.00  0.00    -0.270 OA
ENDBRANCH   2  26
ENDBRANCH   3   2
ENDBRANCH   6   4
TORSDOF 5
ENDMDL
MODEL 5
REMARK VINA RESULT:     -11.3      1.442      3.018
REMARK  Name = 
REMARK  5 active torsions:
REMARK  status: ('A' for Active; 'I' for Inactive)
REMARK    1  A    between atoms: C_2  and  N_3
REMARK    2  A    between atoms: C_2  and  C_26
REMARK    3  A    between atoms: C_4  and  C_6
REMARK    4  A    between atoms: C_8  and  N_9
REMARK    5  A    between atoms: N_12  and  C_13
REMARK                            x       y       z     vdW  Elec       q    Type
REMARK                         _______ _______ _______ _____ _____    ______ ____
ROOT
ATOM      6  C   UNL     1      -2.448   2.609  25.074  0.00  0.00    +0.033 C 
ATOM      7  C   UNL     1      -2.319   1.878  24.711  0.00  0.00    -0.002 C 
ATOM      8  C   UNL     1      -1.615   1.469  24.846  0.00  0.00    +0.152 C 
ATOM     21  C   UNL     1      -1.039   1.790  25.343  0.00  0.00    +0.206 C 
ATOM     22  O   UNL     1      -0.336   1.381  25.478  0.00  0.00    -0.218 OA
ATOM     23  C   UNL     1      -1.168   2.521  25.706  0.00  0.00    +0.189 C 
ATOM     24  O   UNL     1      -0.594   2.841  26.202  0.00  0.00    -0.220 OA
ATOM     25  C   UNL     1      -1.873   2.929  25.571  0.00  0.00    +0.066 C 
ENDROOT
BRANCH   8   9
ATOM      9  N   UNL     1      -1.486   0.739  24.484  0.00  0.00    -0.181 NA
ATOM     10  C   UNL     1      -1.981   0.101  24.655  0.00  0.00    +0.344 C 
ATOM     11  O   UNL     1      -2.603   0.193  25.188  0.00  0.00    -0.249 OA
ATOM     12  N   UNL     1      -1.852  -0.628  24.293  0.00  0.00    -0.159 NA
BRANCH  12  13
ATOM     13  C   UNL     1      -2.346  -1.267  24.464  0.00  0.00    +0.102 A 
ATOM     14  C   UNL     1      -3.165  -1.174  24.440  0.00  0.00    +0.021 A 
ATOM     15  C   UNL     1      -3.658  -1.812  24.610  0.00  0.00    +0.031 A 
ATOM     16  C   UNL     1      -3.332  -2.545  24.805  0.00  0.00    +0.142 A 
ATOM     17  F   UNL     1      -3.824  -3.184  24.975  0.00  0.00    -0.204 F 
ATOM     18  C   UNL     1      -2.513  -2.638  24.829  0.00  0.00    +0.061 A 
ATOM     19  C   UNL     1      -2.019  -1.999  24.658  0.00  0.00    +0.158 A 
ATOM     20  F   UNL     1      -1.200  -2.092  24.682  0.00  0.00    -0.203 F 
ENDBRANCH  12  13
ENDBRANCH   8   9
BRANCH   6   4
ATOM      3  N   UNL     1      -3.826   2.833  25.375  0.00  0.00    -0.194 NA
ATOM      4  C   UNL     1      -3.151   3.017  24.939  0.00  0.00    +0.261 C 
ATOM      5  O   UNL     1      -3.180   3.611  24.367  0.00  0.00    -0.269 OA
BRANCH   3   2
ATOM      1  C   UNL     1      -4.516   3.970  24.854  0.00  0.00    +0.033 C 
ATOM      2  C   UNL     1      -4.530   3.241  25.241  0.00  0.00    +0.175 C 
BRANCH   2  26
ATOM     26  C   UNL     1      -5.247   2.922  25.493  0.00  0.00    +0.281 C 
ATOM     27  N   UNL     1      -5.523   3.076  26.255  0.00  0.00    -0.086 NA
ATOM     28  O   UNL     1      -5.690   2.447  24.982  0.00  0.00    -0.270 OA
ENDBRANCH   2  26
ENDBRANCH   3   2
ENDBRANCH   6   4
TORSDOF 5
ENDMDL
MODEL 6
REMARK VINA RESULT:     -11.2      2.878      5.601
REMARK  Name = 
REMARK  5 active torsions:
REMARK  status: ('A' for Active; 'I' for Inactive)
REMARK    1  A    between atoms: C_2  and  N_3
REMARK    2  A    between atoms: C_2  and  C_26
REMARK    3  A    between atoms: C_4  and  C_6
REMARK    4  A    between atoms: C_8  and  N_9
REMARK    5  A    between atoms: N_12  and  C_13
REMARK                            x       y       z     vdW  Elec       q    Type
REMARK                         _______ _______ _______ _____ _____    ______ ____
ROOT
ATOM      6  C   UNL     1      -1.565  -0.567  24.619  0.00  0.00    +0.033 C 
ATOM      7  C   UNL     1      -1.693   0.217  24.394  0.00  0.00    -0.002 C 
ATOM      8  C   UNL     1      -1.076   0.658  24.068  0.00  0.00    +0.152 C 
ATOM     21  C   UNL     1      -0.332   0.316  23.967  0.00  0.00    +0.206 C 
ATOM     22  O   UNL     1       0.284   0.757  23.641  0.00  0.00    -0.218 OA
ATOM     23  C   UNL     1      -0.204  -0.468  24.192  0.00  0.00    +0.189 C 
ATOM     24  O   UNL     1       0.539  -0.810  24.091  0.00  0.00    -0.220 OA
ATOM     25  C   UNL     1      -0.821  -0.909  24.518  0.00  0.00    +0.066 C 
ENDROOT
BRANCH   8   9
ATOM      9  N   UNL     1      -1.204   1.441  23.843  0.00  0.00    -0.181 NA
ATOM     10  C   UNL     1      -1.491   1.987  24.392  0.00  0.00    +0.344 C 
ATOM     11  O   UNL     1      -1.649   1.749  25.165  0.00  0.00    -0.249 OA
ATOM     12  N   UNL     1      -1.618   2.770  24.167  0.00  0.00    -0.159 NA
BRANCH  12  13
ATOM     13  C   UNL     1      -1.905   3.315  24.715  0.00  0.00    +0.102 A 
ATOM     14  C   UNL     1      -2.637   3.194  25.076  0.00  0.00    +0.021 A 
ATOM     15  C   UNL     1      -2.922   3.739  25.623  0.00  0.00    +0.031 A 
ATOM     16  C   UNL     1      -2.477   4.408  25.812  0.00  0.00    +0.142 A 
ATOM     17  F   UNL     1      -2.762   4.954  26.360  0.00  0.00    -0.204 F 
ATOM     18  C   UNL     1      -1.745   4.530  25.451  0.00  0.00    +0.061 A 
ATOM     19  C   UNL     1      -1.458   3.983  24.903  0.00  0.00    +0.158 A 
ATOM     20  F   UNL     1      -0.727   4.105  24.543  0.00  0.00    -0.203 F 
ENDBRANCH  12  13
ENDBRANCH   8   9
BRANCH   6   4
ATOM      3  N   UNL     1      -2.744  -1.356  24.454  0.00  0.00    -0.194 NA
ATOM      4  C   UNL     1      -2.181  -1.008  24.945  0.00  0.00    +0.261 C 
ATOM      5  O   UNL     1      -2.234  -1.101  25.763  0.00  0.00    -0.269 OA
BRANCH   3   2
ATOM      1  C   UNL     1      -3.546  -1.718  25.579  0.00  0.00    +0.033 C 
ATOM      2  C   UNL     1      -3.360  -1.798  24.779  0.00  0.00    +0.175 C 
BRANCH   2  26
ATOM     26  C   UNL     1      -3.791  -2.318  24.306  0.00  0.00    +0.281 C 
ATOM     27  N   UNL     1      -4.378  -2.029  23.803  0.00  0.00    -0.086 NA
ATOM     28  O   UNL     1      -3.634  -3.128  24.336  0.00  0.00    -0.270 OA
ENDBRANCH   2  26
ENDBRANCH   3   2
ENDBRANCH   6   4
TORSDOF 5
ENDMDL
