MODEL 1
REMARK VINA RESULT:     -11.3      0.000      0.000
REMARK  Name = 
REMARK  8 active torsions:
REMARK  status: ('A' for Active; 'I' for Inactive)
REMARK    1  A    between atoms: O_2  and  C_3
REMARK    2  A    between atoms: C_3  and  C_4
REMARK    3  A    between atoms: C_6  and  C_7
REMARK    4  A    between atoms: C_7  and  C_8
REMARK    5  A    between atoms: C_13  and  C_14
REMARK    6  A    between atoms: C_14  and  C_15
REMARK    7  A    between atoms: N_17  and  C_19
REMARK    8  A    between atoms: C_19  and  C_20
REMARK                            x       y       z     vdW  Elec       q    Type
REMARK                         _______ _______ _______ _____ _____    ______ ____
ROOT
ATOM      8  C   UNL     1      -3.993   2.986  24.811  0.00  0.00    +0.024 C 
ATOM      9  C   UNL     1      -4.265   3.693  25.136  0.00  0.00    +0.089 C 
ATOM     10  N   UNL     1      -4.994   3.717  25.522  0.00  0.00    -0.218 NA
ATOM     11  C   UNL     1      -5.450   3.033  25.583  0.00  0.00    +0.089 C 
ATOM     12  C   UNL     1      -5.179   2.325  25.257  0.00  0.00    +0.019 C 
ATOM     13  C   UNL     1      -4.450   2.301  24.872  0.00  0.00    +0.012 C 
ENDROOT
BRANCH   8   7
ATOM      7  C   UNL     1      -3.265   2.962  24.426  0.00  0.00    +0.051 C 
BRANCH   7   6
ATOM      4  C   UNL     1      -1.431   3.543  25.351  0.00  0.00    +0.184 A 
ATOM      5  C   UNL     1      -1.950   2.960  25.084  0.00  0.00    +0.056 A 
ATOM      6  C   UNL     1      -2.609   3.336  24.758  0.00  0.00    +0.100 A 
ATOM     26  N   UNL     1      -2.497   4.152  24.823  0.00  0.00    -0.082 NA
ATOM     27  O   UNL     1      -1.769   4.279  25.189  0.00  0.00    -0.356 OA
BRANCH   4   3
ATOM      3  C   UNL     1      -0.702   3.413  25.714  0.00  0.00    +0.209 C 
BRANCH   3   2
ATOM      1  C   UNL     1       0.202   2.540  26.394  0.00  0.00    +0.175 C 
ATOM      2  O   UNL     1      -0.544   2.688  26.075  0.00  0.00    -0.343 OA
ENDBRANCH   3   2
ENDBRANCH   4   3
ENDBRANCH   7   6
ENDBRANCH   8   7
BRANCH  13  14
ATOM     14  C   UNL     1      -4.178   1.593  24.546  0.00  0.00    +0.085 C 
BRANCH  14  15
ATOM     15  C   UNL     1      -4.487   0.874  24.808  0.00  0.00    +0.226 C 
ATOM     16  O   UNL     1      -5.031   0.859  25.428  0.00  0.00    -0.275 OA
ATOM     17  N   UNL     1      -4.250   0.170  24.449  0.00  0.00    -0.274 N 
ATOM     18  C   UNL     1      -3.706   0.185  23.830  0.00  0.00    +0.115 C 
BRANCH  17  19
ATOM     19  C   UNL     1      -4.559  -0.550  24.711  0.00  0.00    +0.120 C 
BRANCH  19  20
ATOM     20  C   UNL     1      -4.117  -1.242  24.627  0.00  0.00    -0.002 A 
ATOM     21  C   UNL     1      -4.261  -1.747  23.989  0.00  0.00    -0.003 A 
ATOM     22  C   UNL     1      -3.819  -2.439  23.905  0.00  0.00    -0.000 A 
ATOM     23  C   UNL     1      -3.237  -2.626  24.457  0.00  0.00    -0.000 A 
ATOM     24  C   UNL     1      -3.093  -2.122  25.093  0.00  0.00    -0.000 A 
ATOM     25  C   UNL     1      -3.535  -1.429  25.178  0.00  0.00    -0.003 A 
ENDBRANCH  19  20
ENDBRANCH  17  19
ENDBRANCH  14  15
ENDBRANCH  13  14
TORSDOF 8
ENDMDL
MODEL 2
REMARK VINA RESULT:     -10.7      1.367      4.841
REMARK  Name = 
REMARK  8 active torsions:
REMARK  status: ('A' for Active; 'I' for Inactive)
REMARK    1  A    between atoms: O_2  and  C_3
REMARK    2  A    between atoms: C_3  and  C_4
REMARK    3  A    between atoms: C_6  and  C_7
REMARK    4  A    between atoms: C_7  and  C_8
REMARK    5  A    between atoms: C_13  and  C_14
REMARK    6  A    between atoms: C_14  and  C_15
REMARK    7  A    between atoms: N_17  and  C_19
REMARK    8  A    between atoms: C_19  and  C_20
REMARK                            x       y       z     vdW  Elec       q    Type
REMARK                         _______ _______ _______ _____ _____    ______ ____
ROOT
ATOM      8  C   UNL     1      -4.943   1.509  24.962  0.00  0.00    +0.024 C 
ATOM      9  C   UNL     1      -5.606   1.111  25.250  0.00  0.00    +0.089 C 
ATOM     10  N   UNL     1      -6.191   1.525  25.658  0.00  0.00    -0.218 NA
ATOM     11  C   UNL     1      -6.114   2.337  25.778  0.00  0.00    +0.089 C 
ATOM     12  C   UNL     1      -5.452   2.736  25.491  0.00  0.00    +0.019 C 
ATOM     13  C   UNL     1      -4.867   2.323  25.082  0.00  0.00    +0.012 C 
ENDROOT
BRANCH   8   7
ATOM      7  C   UNL     1      -4.359   1.096  24.554  0.00  0.00    +0.051 C 
BRANCH   7   6
ATOM      4  C   UNL     1      -4.092  -1.022  24.561  0.00  0.00    +0.184 A 
ATOM      5  C   UNL     1      -4.254  -0.317  24.164  0.00  0.00    +0.056 A 
ATOM      6  C   UNL     1      -4.229   0.298  24.714  0.00  0.00    +0.100 A 
ATOM     26  N   UNL     1      -4.053  -0.027  25.452  0.00  0.00    -0.082 NA
ATOM     27  O   UNL     1      -3.968  -0.842  25.358  0.00  0.00    -0.356 OA
BRANCH   4   3
ATOM      3  C   UNL     1      -4.061  -1.773  24.223  0.00  0.00    +0.209 C 
BRANCH   3   2
ATOM      1  C   UNL     1      -3.568  -3.115  24.231  0.00  0.00    +0.175 C 
ATOM      2  O   UNL     1      -3.608  -2.366  24.577  0.00  0.00    -0.343 OA
ENDBRANCH   3   2
ENDBRANCH   4   3
ENDBRANCH   7   6
ENDBRANCH   8   7
BRANCH  13  14
ATOM     14  C   UNL     1      -4.204   2.722  24.794  0.00  0.00    +0.085 C 
BRANCH  14  15
ATOM     15  C   UNL     1      -3.802   3.256  25.278  0.00  0.00    +0.226 C 
ATOM     16  O   UNL     1      -4.044   3.369  26.058  0.00  0.00    -0.275 OA
ATOM     17  N   UNL     1      -3.158   3.677  24.980  0.00  0.00    -0.274 N 
ATOM     18  C   UNL     1      -2.917   3.564  24.200  0.00  0.00    +0.115 C 
BRANCH  17  19
ATOM     19  C   UNL     1      -2.756   4.211  25.463  0.00  0.00    +0.120 C 
BRANCH  19  20
ATOM     20  C   UNL     1      -1.977   4.420  25.288  0.00  0.00    -0.002 A 
ATOM     21  C   UNL     1      -1.800   5.191  25.053  0.00  0.00    -0.003 A 
ATOM     22  C   UNL     1      -1.022   5.400  24.878  0.00  0.00    -0.000 A 
ATOM     23  C   UNL     1      -0.421   4.839  24.936  0.00  0.00    -0.000 A 
ATOM     24  C   UNL     1      -0.597   4.068  25.171  0.00  0.00    -0.000 A 
ATOM     25  C   UNL     1      -1.377   3.859  25.346  0.00  0.00    -0.003 A 
ENDBRANCH  19  20
ENDBRANCH  17  19
ENDBRANCH  14  15
ENDBRANCH  13  14
TORSDOF 8
ENDMDL
MODEL 3
REMARK VINA RESULT:     -10.4      2.158      4.534
REMARK  Name = 
REMARK  8 active torsions:
REMARK  status: ('A' for Active; 'I' for Inactive)
REMARK    1  A    between atoms: O_2  and  C_3
REMARK    2  A    between atoms: C_3  and  C_4
REMARK    3  A    between atoms: C_6  and  C_7
REMARK    4  A    between atoms: C_7  and  C_8
REMARK    5  A    between atoms: C_13  and  C_14
REMARK    6  A    between atoms: C_14  and  C_15
REMARK    7  A    between atoms: N_17  and  C_19
REMARK    8  A    between atoms: C_19  and  C_20
REMARK                            x       y       z     vdW  Elec       q    Type
REMARK                         _______ _______ _______ _____ _____    ______ ____
ROOT
ATOM      8  C   UNL     1      -3.019  -1.520  24.829  0.00  0.00    +0.024 C 
ATOM      9  C   UNL     1      -2.865  -2.251  24.479  0.00  0.00    +0.089 C 
ATOM     10  N   UNL     1      -3.435  -2.608  24.001  0.00  0.00    -0.218 NA
ATOM     11  C   UNL     1      -4.158  -2.234  23.872  0.00  0.00    +0.089 C 
ATOM     12  C   UNL     1      -4.313  -1.503  24.221  0.00  0.00    +0.019 C 
ATOM     13  C   UNL     1      -3.744  -1.145  24.699  0.00  0.00    +0.012 C 
ENDROOT
BRANCH   8   7
ATOM      7  C   UNL     1      -2.450  -1.163  25.306  0.00  0.00    +0.051 C 
BRANCH   7   6
ATOM      4  C   UNL     1      -0.453  -0.878  24.609  0.00  0.00    +0.184 A 
ATOM      5  C   UNL     1      -1.227  -0.610  24.706  0.00  0.00    +0.056 A 
ATOM      6  C   UNL     1      -1.653  -1.200  25.097  0.00  0.00    +0.100 A 
ATOM     26  N   UNL     1      -1.142  -1.831  25.242  0.00  0.00    -0.082 NA
ATOM     27  O   UNL     1      -0.400  -1.632  24.940  0.00  0.00    -0.356 OA
BRANCH   4   3
ATOM      3  C   UNL     1       0.160  -0.464  24.245  0.00  0.00    +0.209 C 
BRANCH   3   2
ATOM      1  C   UNL     1       0.881  -0.112  23.061  0.00  0.00    +0.175 C 
ATOM      2  O   UNL     1       0.318  -0.581  23.443  0.00  0.00    -0.343 OA
ENDBRANCH   3   2
ENDBRANCH   4   3
ENDBRANCH   7   6
ENDBRANCH   8   7
BRANCH  13  14
ATOM     14  C   UNL     1      -3.898  -0.413  25.049  0.00  0.00    +0.085 C 
BRANCH  14  15
ATOM     15  C   UNL     1      -4.276   0.178  24.616  0.00  0.00    +0.226 C 
ATOM     16  O   UNL     1      -4.292   0.141  23.792  0.00  0.00    -0.275 OA
ATOM     17  N   UNL     1      -4.638   0.807  25.008  0.00  0.00    -0.274 N 
ATOM     18  C   UNL     1      -4.622   0.845  25.831  0.00  0.00    +0.115 C 
BRANCH  17  19
ATOM     19  C   UNL     1      -5.016   1.400  24.575  0.00  0.00    +0.120 C 
BRANCH  19  20
ATOM     20  C   UNL     1      -5.003   2.179  24.845  0.00  0.00    -0.002 A 
ATOM     21  C   UNL     1      -5.607   2.455  25.336  0.00  0.00    -0.003 A 
ATOM     22  C   UNL     1      -5.594   3.234  25.606  0.00  0.00    -0.000 A 
ATOM     23  C   UNL     1      -4.980   3.737  25.386  0.00  0.00    -0.000 A 
ATOM     24  C   UNL     1      -4.377   3.462  24.894  0.00  0.00    -0.000 A 
ATOM     25  C   UNL     1      -4.389   2.682  24.624  0.00  0.00    -0.003 A 
ENDBRANCH  19  20
ENDBRANCH  17  19
ENDBRANCH  14  15
ENDBRANCH  13  14
TORSDOF 8
ENDMDL
MODEL 4
REMARK VINA RESULT:     -10.3      2.415      5.840
REMARK  Name = 
REMARK  8 active torsions:
REMARK  status: ('A' for Active; 'I' for Inactive)
REMARK    1  A    between atoms: O_2  and  C_3
REMARK    2  A    between atoms: C_3  and  C_4
REMARK    3  A    between atoms: C_6  and  C_7
REMARK    4  A    between atoms: C_7  and  C_8
REMARK    5  A    between atoms: C_13  and  C_14
REMARK    6  A    between atoms: C_14  and  C_15
REMARK    7  A    between atoms: N_17  and  C_19
REMARK    8  A    between atoms: C_19  and  C_20
REMARK                            x       y       z     vdW  Elec       q    Type
REMARK                         _______ _______ _______ _____ _____    ______ ____
ROOT
ATOM      8  C   UNL     1      -0.648  -0.312  24.624  0.00  0.00    +0.024 C 
ATOM      9  C   UNL     1      -0.199  -0.812  24.145  0.00  0.00    +0.089 C 
ATOM     10  N   UNL     1       0.318  -0.493  23.586  0.00  0.00    -0.218 NA
ATOM     11  C   UNL     1       0.386   0.325  23.506  0.00  0.00    +0.089 C 
ATOM     12  C   UNL     1      -0.063   0.825  23.985  0.00  0.00    +0.019 C 
ATOM     13  C   UNL     1      -0.580   0.507  24.544  0.00  0.00    +0.012 C 
ENDROOT
BRANCH   8   7
ATOM      7  C   UNL     1      -1.164  -0.630  25.182  0.00  0.00    +0.051 C 
BRANCH   7   6
ATOM      4  C   UNL     1      -2.608  -2.134  24.721  0.00  0.00    +0.184 A 
ATOM      5  C   UNL     1      -2.411  -1.349  24.883  0.00  0.00    +0.056 A 
ATOM      6  C   UNL     1      -1.595  -1.311  25.005  0.00  0.00    +0.100 A 
ATOM     26  N   UNL     1      -1.288  -2.072  24.920  0.00  0.00    -0.082 NA
ATOM     27  O   UNL     1      -1.914  -2.580  24.744  0.00  0.00    -0.356 OA
BRANCH   4   3
ATOM      3  C   UNL     1      -3.364  -2.421  24.565  0.00  0.00    +0.209 C 
BRANCH   3   2
ATOM      1  C   UNL     1      -4.524  -2.464  23.730  0.00  0.00    +0.175 C 
ATOM      2  O   UNL     1      -3.781  -2.150  23.906  0.00  0.00    -0.343 OA
ENDBRANCH   3   2
ENDBRANCH   4   3
ENDBRANCH   7   6
ENDBRANCH   8   7
BRANCH  13  14
ATOM     14  C   UNL     1      -1.029   1.007  25.023  0.00  0.00    +0.085 C 
BRANCH  14  15
ATOM     15  C   UNL     1      -0.696   1.700  25.321  0.00  0.00    +0.226 C 
ATOM     16  O   UNL     1       0.110   1.731  25.492  0.00  0.00    -0.275 OA
ATOM     17  N   UNL     1      -1.171   2.363  25.446  0.00  0.00    -0.274 N 
ATOM     18  C   UNL     1      -1.976   2.333  25.275  0.00  0.00    +0.115 C 
BRANCH  17  19
ATOM     19  C   UNL     1      -0.838   3.058  25.744  0.00  0.00    +0.120 C 
BRANCH  19  20
ATOM     20  C   UNL     1      -1.151   3.790  25.528  0.00  0.00    -0.002 A 
ATOM     21  C   UNL     1      -0.720   4.292  25.033  0.00  0.00    -0.003 A 
ATOM     22  C   UNL     1      -1.033   5.024  24.817  0.00  0.00    -0.000 A 
ATOM     23  C   UNL     1      -1.774   5.254  25.094  0.00  0.00    -0.000 A 
ATOM     24  C   UNL     1      -2.204   4.753  25.588  0.00  0.00    -0.000 A 
ATOM     25  C   UNL     1      -1.892   4.020  25.805  0.00  0.00    -0.003 A 
ENDBRANCH  19  20
ENDBRANCH  17  19
ENDBRANCH  14  15
ENDBRANCH  13  14
TORSDOF 8
ENDMDL
MODEL 5
REMARK VINA RESULT:      -9.9      2.431      3.857
REMARK  Name = 
REMARK  8 active torsions:
REMARK  status: ('A' for Active; 'I' for Inactive)
REMARK    1  A    between atoms: O_2  and  C_3
REMARK    2  A    between atoms: C_3  and  C_4
REMARK    3  A    between atoms: C_6  and  C_7
REMARK    4  A    between atoms: C_7  and  C_8
REMARK    5  A    between atoms: C_13  and  C_14
REMARK    6  A    between atoms: C_14  and  C_15
REMARK    7  A    between atoms: N_17  and  C_19
REMARK    8  A    between atoms: C_19  and  C_20
REMARK                            x       y       z     vdW  Elec       q    Type
REMARK                         _______ _______ _______ _____ _____    ______ ____
ROOT
ATOM      8  C   UNL     1      -1.095   3.791  25.307  0.00  0.00    +0.024 C 
ATOM      9  C   UNL     1      -0.431   4.175  25.004  0.00  0.00    +0.089 C 
ATOM     10  N   UNL     1      -0.476   4.971  24.791  0.00  0.00    -0.218 NA
ATOM     11  C   UNL     1      -1.185   5.382  24.880  0.00  0.00    +0.089 C 
ATOM     12  C   UNL     1      -1.850   4.998  25.183  0.00  0.00    +0.019 C 
ATOM     13  C   UNL     1      -1.805   4.203  25.396  0.00  0.00    +0.012 C 
ENDROOT
BRANCH   8   7
ATOM      7  C   UNL     1      -1.050   2.996  25.520  0.00  0.00    +0.051 C 
BRANCH   7   6
ATOM      4  C   UNL     1       0.182   1.643  24.420  0.00  0.00    +0.184 A 
ATOM      5  C   UNL     1      -0.542   2.019  24.546  0.00  0.00    +0.056 A 
ATOM      6  C   UNL     1      -0.460   2.515  25.200  0.00  0.00    +0.100 A 
ATOM     26  N   UNL     1       0.314   2.446  25.479  0.00  0.00    -0.082 NA
ATOM     27  O   UNL     1       0.710   1.907  24.996  0.00  0.00    -0.356 OA
BRANCH   4   3
ATOM      3  C   UNL     1       0.348   1.100  23.822  0.00  0.00    +0.209 C 
BRANCH   3   2
ATOM      1  C   UNL     1       0.402  -0.253  23.364  0.00  0.00    +0.175 C 
ATOM      2  O   UNL     1       0.170   0.301  23.930  0.00  0.00    -0.343 OA
ENDBRANCH   3   2
ENDBRANCH   4   3
ENDBRANCH   7   6
ENDBRANCH   8   7
BRANCH  13  14
ATOM     14  C   UNL     1      -2.470   3.818  25.699  0.00  0.00    +0.085 C 
BRANCH  14  15
ATOM     15  C   UNL     1      -3.188   3.857  25.295  0.00  0.00    +0.226 C 
ATOM     16  O   UNL     1      -3.223   4.206  24.548  0.00  0.00    -0.275 OA
ATOM     17  N   UNL     1      -3.871   3.548  25.639  0.00  0.00    -0.274 N 
ATOM     18  C   UNL     1      -3.836   3.200  26.385  0.00  0.00    +0.115 C 
BRANCH  17  19
ATOM     19  C   UNL     1      -4.590   3.587  25.235  0.00  0.00    +0.120 C 
BRANCH  19  20
ATOM     20  C   UNL     1      -5.102   2.941  25.242  0.00  0.00    -0.002 A 
ATOM     21  C   UNL     1      -5.021   2.344  24.677  0.00  0.00    -0.003 A 
ATOM     22  C   UNL     1      -5.533   1.698  24.685  0.00  0.00    -0.000 A 
ATOM     23  C   UNL     1      -6.126   1.648  25.255  0.00  0.00    -0.000 A 
ATOM     24  C   UNL     1      -6.207   2.244  25.820  0.00  0.00    -0.000 A 
ATOM     25  C   UNL     1      -5.694   2.891  25.813  0.00  0.00    -0.003 A 
ENDBRANCH  19  20
ENDBRANCH  17  19
ENDBRANCH  14  15
ENDBRANCH  13  14
TORSDOF 8
ENDMDL
MODEL 6
REMARK VINA RESULT:      -9.9      1.424      3.081
REMARK  Name = 
REMARK  8 active torsions:
REMARK  status: ('A' for Active; 'I' for Inactive)
REMARK    1  A    between atoms: O_2  and  C_3
REMARK    2  A    between atoms: C_3  and  C_4
REMARK    3  A    between atoms: C_6  and  C_7
REMARK    4  A    between atoms: C_7  and  C_8
REMARK    5  A    between atoms: C_13  and  C_14
REMARK    6  A    between atoms: C_14  and  C_15
REMARK    7  A    between atoms: N_17  and  C_19
REMARK    8  A    between atoms: C_19  and  C_20
REMARK                            x       y       z     vdW  Elec       q    Type
REMARK                         _______ _______ _______ _____ _____    ______ ____
ROOT
ATOM      8  C   UNL     1      -1.414   2.486  25.103  0.00  0.00    +0.024 C 
ATOM      9  C   UNL     1      -1.136   3.157  25.496  0.00  0.00    +0.089 C 
ATOM     10  N   UNL     1      -0.488   3.099  26.003  0.00  0.00    -0.218 NA
ATOM     11  C   UNL     1      -0.118   2.372  26.118  0.00  0.00    +0.089 C 
ATOM     12  C   UNL     1      -0.395   1.701  25.725  0.00  0.00    +0.019 C 
ATOM     13  C   UNL     1      -1.042   1.758  25.218  0.00  0.00    +0.012 C 
ENDROOT
BRANCH   8   7
ATOM      7  C   UNL     1      -2.061   2.544  24.596  0.00  0.00    +0.051 C 
BRANCH   7   6
ATOM      4  C   UNL     1      -3.849   3.575  25.139  0.00  0.00    +0.184 A 
ATOM      5  C   UNL     1      -3.417   2.877  25.054  0.00  0.00    +0.056 A 
ATOM      6  C   UNL     1      -2.670   3.074  24.762  0.00  0.00    +0.100 A 
ATOM     26  N   UNL     1      -2.641   3.893  24.667  0.00  0.00    -0.082 NA
ATOM     27  O   UNL     1      -3.369   4.203  24.899  0.00  0.00    -0.356 OA
BRANCH   4   3
ATOM      3  C   UNL     1      -4.624   3.635  25.414  0.00  0.00    +0.209 C 
BRANCH   3   2
ATOM      1  C   UNL     1      -5.868   3.016  25.750  0.00  0.00    +0.175 C 
ATOM      2  O   UNL     1      -5.111   2.969  25.423  0.00  0.00    -0.343 OA
ENDBRANCH   3   2
ENDBRANCH   4   3
ENDBRANCH   7   6
ENDBRANCH   8   7
BRANCH  13  14
ATOM     14  C   UNL     1      -1.320   1.087  24.825  0.00  0.00    +0.085 C 
BRANCH  14  15
ATOM     15  C   UNL     1      -1.335   0.359  25.213  0.00  0.00    +0.226 C 
ATOM     16  O   UNL     1      -1.068   0.301  25.992  0.00  0.00    -0.275 OA
ATOM     17  N   UNL     1      -1.616  -0.310  24.821  0.00  0.00    -0.274 N 
ATOM     18  C   UNL     1      -1.882  -0.252  24.044  0.00  0.00    +0.115 C 
BRANCH  17  19
ATOM     19  C   UNL     1      -1.632  -1.039  25.210  0.00  0.00    +0.120 C 
BRANCH  19  20
ATOM     20  C   UNL     1      -2.236  -1.577  25.051  0.00  0.00    -0.002 A 
ATOM     21  C   UNL     1      -2.092  -2.226  24.561  0.00  0.00    -0.003 A 
ATOM     22  C   UNL     1      -2.697  -2.764  24.402  0.00  0.00    -0.000 A 
ATOM     23  C   UNL     1      -3.444  -2.655  24.733  0.00  0.00    -0.000 A 
ATOM     24  C   UNL     1      -3.588  -2.007  25.222  0.00  0.00    -0.000 A 
ATOM     25  C   UNL     1      -2.983  -1.468  25.381  0.00  0.00    -0.003 A 
ENDBRANCH  19  20
ENDBRANCH  17  19
ENDBRANCH  14  15
ENDBRANCH  13  14
TORSDOF 8
ENDMDL
