MODEL 1
REMARK VINA RESULT:     -10.9      0.000      0.000
REMARK  Name = 
REMARK  9 active torsions:
REMARK  status: ('A' for Active; 'I' for Inactive)
REMARK    1  A    between atoms: S_2  and  C_3
REMARK    2  A    between atoms: C_3  and  C_4
REMARK    3  A    between atoms: C_8  and  N_25
REMARK    4  A    between atoms: C_10  and  C_11
REMARK    5  A    between atoms: N_13  and  C_14
REMARK    6  A    between atoms: C_14  and  C_15
REMARK    7  A    between atoms: C_14  and  C_22
REMARK    8  A    between atoms: C_15  and  C_16
REMARK    9  A    between atoms: N_28  and  C_29
REMARK                            x       y       z     vdW  Elec       q    Type
REMARK                         _______ _______ _______ _____ _____    ______ ____
ROOT
ATOM      4  C   UNL     1       0.365   0.085  23.667  0.00  0.00    +0.237 C 
ATOM      5  O   UNL     1       0.608  -0.550  23.201  0.00  0.00    -0.274 OA
ATOM      6  N   UNL     1      -0.349   0.045  24.080  0.00  0.00    -0.270 N 
ATOM      7  C   UNL     1      -0.873  -0.591  24.080  0.00  0.00    +0.116 C 
ATOM      8  C   UNL     1      -1.512  -0.396  24.565  0.00  0.00    +0.119 C 
ATOM      9  C   UNL     1      -1.381   0.362  24.864  0.00  0.00    +0.053 C 
ATOM     10  C   UNL     1      -0.663   0.634  24.564  0.00  0.00    +0.155 C 
ENDROOT
BRANCH   8  25
ATOM     25  N   UNL     1      -2.165  -0.873  24.723  0.00  0.00    -0.187 NA
ATOM     26  C   UNL     1      -2.354  -1.071  25.501  0.00  0.00    +0.344 C 
ATOM     27  O   UNL     1      -1.889  -0.791  26.122  0.00  0.00    -0.249 OA
ATOM     28  N   UNL     1      -3.008  -1.548  25.658  0.00  0.00    -0.159 NA
BRANCH  28  29
ATOM     29  C   UNL     1      -3.474  -1.829  25.038  0.00  0.00    +0.102 A 
ATOM     30  C   UNL     1      -3.482  -2.634  24.861  0.00  0.00    +0.158 A 
ATOM     31  F   UNL     1      -3.025  -3.159  25.303  0.00  0.00    -0.203 F 
ATOM     32  C   UNL     1      -3.948  -2.916  24.241  0.00  0.00    +0.061 A 
ATOM     33  C   UNL     1      -4.405  -2.391  23.797  0.00  0.00    +0.142 A 
ATOM     34  F   UNL     1      -4.871  -2.672  23.177  0.00  0.00    -0.204 F 
ATOM     35  C   UNL     1      -4.397  -1.585  23.974  0.00  0.00    +0.031 A 
ATOM     36  C   UNL     1      -3.931  -1.304  24.595  0.00  0.00    +0.021 A 
ENDBRANCH  28  29
ENDBRANCH   8  25
BRANCH  10  11
ATOM     11  C   UNL     1      -0.317   1.367  24.722  0.00  0.00    +0.260 C 
ATOM     12  O   UNL     1       0.360   1.600  24.313  0.00  0.00    -0.272 OA
ATOM     13  N   UNL     1      -0.650   1.867  25.288  0.00  0.00    -0.196 NA
BRANCH  13  14
ATOM     14  C   UNL     1      -0.305   2.599  25.445  0.00  0.00    +0.179 C 
BRANCH  14  22
ATOM     22  C   UNL     1       0.168   2.698  26.113  0.00  0.00    +0.281 C 
ATOM     23  N   UNL     1      -0.088   2.417  26.845  0.00  0.00    -0.086 NA
ATOM     24  O   UNL     1       0.897   3.078  26.050  0.00  0.00    -0.270 OA
ENDBRANCH  14  22
BRANCH  14  15
ATOM     15  C   UNL     1      -0.434   3.234  24.933  0.00  0.00    +0.057 C 
BRANCH  15  16
ATOM     16  C   UNL     1      -1.032   3.779  25.095  0.00  0.00    -0.020 A 
ATOM     17  C   UNL     1      -0.887   4.587  25.010  0.00  0.00    -0.004 A 
ATOM     18  C   UNL     1      -1.485   5.133  25.171  0.00  0.00    -0.000 A 
ATOM     19  C   UNL     1      -2.228   4.870  25.417  0.00  0.00    -0.000 A 
ATOM     20  C   UNL     1      -2.372   4.062  25.501  0.00  0.00    -0.000 A 
ATOM     21  C   UNL     1      -1.775   3.517  25.340  0.00  0.00    -0.004 A 
ENDBRANCH  15  16
ENDBRANCH  14  15
ENDBRANCH  13  14
ENDBRANCH  10  11
BRANCH   4   3
ATOM      3  C   UNL     1       0.834   0.761  23.720  0.00  0.00    +0.143 C 
BRANCH   3   2
ATOM      1  C   UNL     1       2.229   0.856  23.425  0.00  0.00    +0.070 C 
ATOM      2  S   UNL     1       1.443   0.885  23.177  0.00  0.00    -0.130 S 
ENDBRANCH   3   2
ENDBRANCH   4   3
TORSDOF 9
ENDMDL
MODEL 2
REMARK VINA RESULT:     -10.9      2.106      4.874
REMARK  Name = 
REMARK  9 active torsions:
REMARK  status: ('A' for Active; 'I' for Inactive)
REMARK    1  A    between atoms: S_2  and  C_3
REMARK    2  A    between atoms: C_3  and  C_4
REMARK    3  A    between atoms: C_8  and  N_25
REMARK    4  A    between atoms: C_10  and  C_11
REMARK    5  A    between atoms: N_13  and  C_14
REMARK    6  A    between atoms: C_14  and  C_15
REMARK    7  A    between atoms: C_14  and  C_22
REMARK    8  A    between atoms: C_15  and  C_16
REMARK    9  A    between atoms: N_28  and  C_29
REMARK                            x       y       z     vdW  Elec       q    Type
REMARK                         _______ _______ _______ _____ _____    ______ ____
ROOT
ATOM      4  C   UNL     1       0.020   1.152  23.712  0.00  0.00    +0.237 C 
ATOM      5  O   UNL     1       0.410   1.721  23.261  0.00  0.00    -0.274 OA
ATOM      6  N   UNL     1      -0.616   1.369  24.191  0.00  0.00    -0.270 N 
ATOM      7  C   UNL     1      -0.922   2.130  24.274  0.00  0.00    +0.116 C 
ATOM      8  C   UNL     1      -1.552   2.096  24.805  0.00  0.00    +0.119 C 
ATOM      9  C   UNL     1      -1.635   1.312  25.050  0.00  0.00    +0.053 C 
ATOM     10  C   UNL     1      -1.057   0.864  24.671  0.00  0.00    +0.155 C 
ENDROOT
BRANCH   8  25
ATOM     25  N   UNL     1      -2.017   2.731  25.048  0.00  0.00    -0.187 NA
ATOM     26  C   UNL     1      -1.664   3.398  25.383  0.00  0.00    +0.344 C 
ATOM     27  O   UNL     1      -0.845   3.429  25.473  0.00  0.00    -0.249 OA
ATOM     28  N   UNL     1      -2.130   4.033  25.626  0.00  0.00    -0.159 NA
BRANCH  28  29
ATOM     29  C   UNL     1      -2.950   4.004  25.535  0.00  0.00    +0.102 A 
ATOM     30  C   UNL     1      -3.436   3.995  26.201  0.00  0.00    +0.158 A 
ATOM     31  F   UNL     1      -3.105   4.017  26.956  0.00  0.00    -0.203 F 
ATOM     32  C   UNL     1      -4.256   3.966  26.112  0.00  0.00    +0.061 A 
ATOM     33  C   UNL     1      -4.589   3.944  25.357  0.00  0.00    +0.142 A 
ATOM     34  F   UNL     1      -5.408   3.915  25.268  0.00  0.00    -0.204 F 
ATOM     35  C   UNL     1      -4.101   3.953  24.691  0.00  0.00    +0.031 A 
ATOM     36  C   UNL     1      -3.281   3.982  24.781  0.00  0.00    +0.021 A 
ENDBRANCH  28  29
ENDBRANCH   8  25
BRANCH  10  11
ATOM     11  C   UNL     1      -0.939   0.051  24.755  0.00  0.00    +0.260 C 
ATOM     12  O   UNL     1      -0.179  -0.264  24.697  0.00  0.00    -0.272 OA
ATOM     13  N   UNL     1      -1.582  -0.446  24.899  0.00  0.00    -0.196 NA
BRANCH  13  14
ATOM     14  C   UNL     1      -1.464  -1.258  24.984  0.00  0.00    +0.179 C 
BRANCH  14  22
ATOM     22  C   UNL     1      -1.088  -1.553  25.656  0.00  0.00    +0.281 C 
ATOM     23  N   UNL     1      -0.486  -2.111  25.580  0.00  0.00    -0.086 NA
ATOM     24  O   UNL     1      -1.314  -1.290  26.404  0.00  0.00    -0.270 OA
ENDBRANCH  14  22
BRANCH  14  15
ATOM     15  C   UNL     1      -1.723  -1.775  24.396  0.00  0.00    +0.057 C 
BRANCH  15  16
ATOM     16  C   UNL     1      -2.523  -1.973  24.342  0.00  0.00    -0.020 A 
ATOM     17  C   UNL     1      -2.789  -2.694  24.641  0.00  0.00    -0.004 A 
ATOM     18  C   UNL     1      -3.589  -2.892  24.587  0.00  0.00    -0.000 A 
ATOM     19  C   UNL     1      -4.121  -2.369  24.235  0.00  0.00    -0.000 A 
ATOM     20  C   UNL     1      -3.853  -1.648  23.937  0.00  0.00    -0.000 A 
ATOM     21  C   UNL     1      -3.055  -1.450  23.990  0.00  0.00    -0.004 A 
ENDBRANCH  15  16
ENDBRANCH  14  15
ENDBRANCH  13  14
ENDBRANCH  10  11
BRANCH   4   3
ATOM      3  C   UNL     1       0.266   0.365  23.685  0.00  0.00    +0.143 C 
BRANCH   3   2
ATOM      1  C   UNL     1       0.995  -0.263  22.628  0.00  0.00    +0.070 C 
ATOM      2  S   UNL     1       0.985   0.169  23.331  0.00  0.00    -0.130 S 
ENDBRANCH   3   2
ENDBRANCH   4   3
TORSDOF 9
ENDMDL
MODEL 3
REMARK VINA RESULT:     -10.7      2.375      3.203
REMARK  Name = 
REMARK  9 active torsions:
REMARK  status: ('A' for Active; 'I' for Inactive)
REMARK    1  A    between atoms: S_2  and  C_3
REMARK    2  A    between atoms: C_3  and  C_4
REMARK    3  A    between atoms: C_8  and  N_25
REMARK    4  A    between atoms: C_10  and  C_11
REMARK    5  A    between atoms: N_13  and  C_14
REMARK    6  A    between atoms: C_14  and  C_15
REMARK    7  A    between atoms: C_14  and  C_22
REMARK    8  A    between atoms: C_15  and  C_16
REMARK    9  A    between atoms: N_28  and  C_29
REMARK                            x       y       z     vdW  Elec       q    Type
REMARK                         _______ _______ _______ _____ _____    ______ ____
ROOT
ATOM      4  C   UNL     1      -0.909   2.194  25.049  0.00  0.00    +0.237 C 
ATOM      5  O   UNL     1      -0.096   2.062  25.079  0.00  0.00    -0.274 OA
ATOM      6  N   UNL     1      -1.430   1.555  25.026  0.00  0.00    -0.270 N 
ATOM      7  C   UNL     1      -1.220   0.757  25.031  0.00  0.00    +0.116 C 
ATOM      8  C   UNL     1      -1.912   0.310  25.003  0.00  0.00    +0.119 C 
ATOM      9  C   UNL     1      -2.551   0.832  24.981  0.00  0.00    +0.053 C 
ATOM     10  C   UNL     1      -2.253   1.600  24.995  0.00  0.00    +0.155 C 
ENDROOT
BRANCH   8  25
ATOM     25  N   UNL     1      -1.959  -0.513  24.997  0.00  0.00    -0.187 NA
ATOM     26  C   UNL     1      -1.336  -0.964  25.298  0.00  0.00    +0.344 C 
ATOM     27  O   UNL     1      -0.667  -0.591  25.604  0.00  0.00    -0.249 OA
ATOM     28  N   UNL     1      -1.383  -1.787  25.292  0.00  0.00    -0.159 NA
BRANCH  28  29
ATOM     29  C   UNL     1      -2.052  -2.161  24.986  0.00  0.00    +0.102 A 
ATOM     30  C   UNL     1      -1.999  -2.587  24.282  0.00  0.00    +0.158 A 
ATOM     31  F   UNL     1      -1.279  -2.640  23.884  0.00  0.00    -0.203 F 
ATOM     32  C   UNL     1      -2.667  -2.962  23.975  0.00  0.00    +0.061 A 
ATOM     33  C   UNL     1      -3.388  -2.910  24.373  0.00  0.00    +0.142 A 
ATOM     34  F   UNL     1      -4.056  -3.284  24.067  0.00  0.00    -0.204 F 
ATOM     35  C   UNL     1      -3.441  -2.484  25.078  0.00  0.00    +0.031 A 
ATOM     36  C   UNL     1      -2.772  -2.109  25.384  0.00  0.00    +0.021 A 
ENDBRANCH  28  29
ENDBRANCH   8  25
BRANCH  10  11
ATOM     11  C   UNL     1      -2.700   2.294  24.982  0.00  0.00    +0.260 C 
ATOM     12  O   UNL     1      -2.430   2.966  25.378  0.00  0.00    -0.272 OA
ATOM     13  N   UNL     1      -3.415   2.317  24.571  0.00  0.00    -0.196 NA
BRANCH  13  14
ATOM     14  C   UNL     1      -3.861   3.010  24.558  0.00  0.00    +0.179 C 
BRANCH  14  22
ATOM     22  C   UNL     1      -3.834   3.506  23.898  0.00  0.00    +0.281 C 
ATOM     23  N   UNL     1      -3.806   3.182  23.140  0.00  0.00    -0.086 NA
ATOM     24  O   UNL     1      -3.836   4.324  23.997  0.00  0.00    -0.270 OA
ENDBRANCH  14  22
BRANCH  14  15
ATOM     15  C   UNL     1      -4.335   3.208  25.203  0.00  0.00    +0.057 C 
BRANCH  15  16
ATOM     16  C   UNL     1      -5.037   2.797  25.342  0.00  0.00    -0.020 A 
ATOM     17  C   UNL     1      -5.357   2.774  26.102  0.00  0.00    -0.004 A 
ATOM     18  C   UNL     1      -6.059   2.362  26.241  0.00  0.00    -0.000 A 
ATOM     19  C   UNL     1      -6.440   1.974  25.621  0.00  0.00    -0.000 A 
ATOM     20  C   UNL     1      -6.119   1.998  24.861  0.00  0.00    -0.000 A 
ATOM     21  C   UNL     1      -5.418   2.409  24.722  0.00  0.00    -0.004 A 
ENDBRANCH  15  16
ENDBRANCH  14  15
ENDBRANCH  13  14
ENDBRANCH  10  11
BRANCH   4   3
ATOM      3  C   UNL     1      -1.202   2.965  25.041  0.00  0.00    +0.143 C 
BRANCH   3   2
ATOM      1  C   UNL     1      -0.507   4.158  24.673  0.00  0.00    +0.070 C 
ATOM      2  S   UNL     1      -0.709   3.596  25.241  0.00  0.00    -0.130 S 
ENDBRANCH   3   2
ENDBRANCH   4   3
TORSDOF 9
ENDMDL
MODEL 4
REMARK VINA RESULT:     -10.3      2.592      3.817
REMARK  Name = 
REMARK  9 active torsions:
REMARK  status: ('A' for Active; 'I' for Inactive)
REMARK    1  A    between atoms: S_2  and  C_3
REMARK    2  A    between atoms: C_3  and  C_4
REMARK    3  A    between atoms: C_8  and  N_25
REMARK    4  A    between atoms: C_10  and  C_11
REMARK    5  A    between atoms: N_13  and  C_14
REMARK    6  A    between atoms: C_14  and  C_15
REMARK    7  A    between atoms: C_14  and  C_22
REMARK    8  A    between atoms: C_15  and  C_16
REMARK    9  A    between atoms: N_28  and  C_29
REMARK                            x       y       z     vdW  Elec       q    Type
REMARK                         _______ _______ _______ _____ _____    ______ ____
ROOT
ATOM      4  C   UNL     1      -5.213   2.283  25.277  0.00  0.00    +0.237 C 
ATOM      5  O   UNL     1      -6.003   2.050  25.232  0.00  0.00    -0.274 OA
ATOM      6  N   UNL     1      -4.613   1.750  25.085  0.00  0.00    -0.270 N 
ATOM      7  C   UNL     1      -4.719   0.970  24.840  0.00  0.00    +0.116 C 
ATOM      8  C   UNL     1      -3.974   0.640  24.707  0.00  0.00    +0.119 C 
ATOM      9  C   UNL     1      -3.408   1.218  24.871  0.00  0.00    +0.053 C 
ATOM     10  C   UNL     1      -3.803   1.903  25.104  0.00  0.00    +0.155 C 
ENDROOT
BRANCH   8  25
ATOM     25  N   UNL     1      -3.822  -0.130  24.456  0.00  0.00    -0.187 NA
ATOM     26  C   UNL     1      -3.713  -0.288  23.653  0.00  0.00    +0.344 C 
ATOM     27  O   UNL     1      -3.756   0.324  23.102  0.00  0.00    -0.249 OA
ATOM     28  N   UNL     1      -3.561  -1.059  23.402  0.00  0.00    -0.159 NA
BRANCH  28  29
ATOM     29  C   UNL     1      -3.518  -1.673  23.953  0.00  0.00    +0.102 A 
ATOM     30  C   UNL     1      -4.076  -2.280  23.936  0.00  0.00    +0.158 A 
ATOM     31  F   UNL     1      -4.675  -2.275  23.371  0.00  0.00    -0.203 F 
ATOM     32  C   UNL     1      -4.033  -2.894  24.486  0.00  0.00    +0.061 A 
ATOM     33  C   UNL     1      -3.433  -2.900  25.053  0.00  0.00    +0.142 A 
ATOM     34  F   UNL     1      -3.390  -3.513  25.602  0.00  0.00    -0.204 F 
ATOM     35  C   UNL     1      -2.875  -2.291  25.069  0.00  0.00    +0.031 A 
ATOM     36  C   UNL     1      -2.918  -1.678  24.518  0.00  0.00    +0.021 A 
ENDBRANCH  28  29
ENDBRANCH   8  25
BRANCH  10  11
ATOM     11  C   UNL     1      -3.450   2.618  25.319  0.00  0.00    +0.260 C 
ATOM     12  O   UNL     1      -3.810   3.102  25.881  0.00  0.00    -0.272 OA
ATOM     13  N   UNL     1      -2.737   2.846  24.972  0.00  0.00    -0.196 NA
BRANCH  13  14
ATOM     14  C   UNL     1      -2.384   3.560  25.187  0.00  0.00    +0.179 C 
BRANCH  14  22
ATOM     22  C   UNL     1      -2.518   4.239  24.737  0.00  0.00    +0.281 C 
ATOM     23  N   UNL     1      -2.526   4.979  25.102  0.00  0.00    -0.086 NA
ATOM     24  O   UNL     1      -2.642   4.178  23.925  0.00  0.00    -0.270 OA
ENDBRANCH  14  22
BRANCH  14  15
ATOM     15  C   UNL     1      -1.898   3.595  25.852  0.00  0.00    +0.057 C 
BRANCH  15  16
ATOM     16  C   UNL     1      -1.144   3.259  25.831  0.00  0.00    -0.020 A 
ATOM     17  C   UNL     1      -0.631   3.437  25.210  0.00  0.00    -0.004 A 
ATOM     18  C   UNL     1       0.123   3.101  25.189  0.00  0.00    -0.000 A 
ATOM     19  C   UNL     1       0.363   2.587  25.788  0.00  0.00    -0.000 A 
ATOM     20  C   UNL     1      -0.152   2.409  26.408  0.00  0.00    -0.000 A 
ATOM     21  C   UNL     1      -0.904   2.744  26.430  0.00  0.00    -0.004 A 
ENDBRANCH  15  16
ENDBRANCH  14  15
ENDBRANCH  13  14
ENDBRANCH  10  11
BRANCH   4   3
ATOM      3  C   UNL     1      -5.022   3.050  25.515  0.00  0.00    +0.143 C 
BRANCH   3   2
ATOM      1  C   UNL     1      -5.858   4.208  25.472  0.00  0.00    +0.070 C 
ATOM      2  S   UNL     1      -5.597   3.530  25.862  0.00  0.00    -0.130 S 
ENDBRANCH   3   2
ENDBRANCH   4   3
TORSDOF 9
ENDMDL
MODEL 5
REMARK VINA RESULT:     -10.1      2.668      4.899
REMARK  Name = 
REMARK  9 active torsions:
REMARK  status: ('A' for Active; 'I' for Inactive)
REMARK    1  A    between atoms: S_2  and  C_3
REMARK    2  A    between atoms: C_3  and  C_4
REMARK    3  A    between atoms: C_8  and  N_25
REMARK    4  A    between atoms: C_10  and  C_11
REMARK    5  A    between atoms: N_13  and  C_14
REMARK    6  A    between atoms: C_14  and  C_15
REMARK    7  A    between atoms: C_14  and  C_22
REMARK    8  A    between atoms: C_15  and  C_16
REMARK    9  A    between atoms: N_28  and  C_29
REMARK                            x       y       z     vdW  Elec       q    Type
REMARK                         _______ _______ _______ _____ _____    ______ ____
ROOT
ATOM      4  C   UNL     1      -0.863  -0.834  24.481  0.00  0.00    +0.237 C 
ATOM      5  O   UNL     1      -0.784  -1.653  24.442  0.00  0.00    -0.274 OA
ATOM      6  N   UNL     1      -0.263  -0.347  24.190  0.00  0.00    -0.270 N 
ATOM      7  C   UNL     1       0.443  -0.600  23.846  0.00  0.00    +0.116 C 
ATOM      8  C   UNL     1       0.878   0.068  23.635  0.00  0.00    +0.119 C 
ATOM      9  C   UNL     1       0.440   0.735  23.848  0.00  0.00    +0.053 C 
ATOM     10  C   UNL     1      -0.265   0.478  24.190  0.00  0.00    +0.155 C 
ENDROOT
BRANCH   8  25
ATOM     25  N   UNL     1       1.619   0.070  23.274  0.00  0.00    -0.187 NA
ATOM     26  C   UNL     1       1.681  -0.006  22.455  0.00  0.00    +0.344 C 
ATOM     27  O   UNL     1       1.000  -0.085  21.996  0.00  0.00    -0.249 OA
ATOM     28  N   UNL     1       2.423  -0.004  22.095  0.00  0.00    -0.159 NA
BRANCH  28  29
ATOM     29  C   UNL     1       3.105   0.075  22.554  0.00  0.00    +0.102 A 
ATOM     30  C   UNL     1       3.548   0.769  22.515  0.00  0.00    +0.158 A 
ATOM     31  F   UNL     1       3.311   1.384  22.019  0.00  0.00    -0.203 F 
ATOM     32  C   UNL     1       4.230   0.849  22.973  0.00  0.00    +0.061 A 
ATOM     33  C   UNL     1       4.468   0.234  23.469  0.00  0.00    +0.142 A 
ATOM     34  F   UNL     1       5.149   0.313  23.927  0.00  0.00    -0.204 F 
ATOM     35  C   UNL     1       4.024  -0.461  23.508  0.00  0.00    +0.031 A 
ATOM     36  C   UNL     1       3.342  -0.540  23.049  0.00  0.00    +0.021 A 
ENDBRANCH  28  29
ENDBRANCH   8  25
BRANCH  10  11
ATOM     11  C   UNL     1      -0.866   0.962  24.483  0.00  0.00    +0.260 C 
ATOM     12  O   UNL     1      -1.269   0.747  25.170  0.00  0.00    -0.272 OA
ATOM     13  N   UNL     1      -1.064   1.658  24.088  0.00  0.00    -0.196 NA
BRANCH  13  14
ATOM     14  C   UNL     1      -1.665   2.141  24.380  0.00  0.00    +0.179 C 
BRANCH  14  22
ATOM     22  C   UNL     1      -2.383   2.197  23.978  0.00  0.00    +0.281 C 
ATOM     23  N   UNL     1      -2.391   2.261  23.156  0.00  0.00    -0.086 NA
ATOM     24  O   UNL     1      -3.093   2.188  24.397  0.00  0.00    -0.270 OA
ENDBRANCH  14  22
BRANCH  14  15
ATOM     15  C   UNL     1      -1.548   2.569  25.076  0.00  0.00    +0.057 C 
BRANCH  15  16
ATOM     16  C   UNL     1      -1.368   3.374  25.040  0.00  0.00    -0.020 A 
ATOM     17  C   UNL     1      -1.892   3.928  25.355  0.00  0.00    -0.004 A 
ATOM     18  C   UNL     1      -1.712   4.733  25.319  0.00  0.00    -0.000 A 
ATOM     19  C   UNL     1      -1.008   4.983  24.968  0.00  0.00    -0.000 A 
ATOM     20  C   UNL     1      -0.484   4.428  24.654  0.00  0.00    -0.000 A 
ATOM     21  C   UNL     1      -0.664   3.624  24.690  0.00  0.00    -0.004 A 
ENDBRANCH  15  16
ENDBRANCH  14  15
ENDBRANCH  13  14
ENDBRANCH  10  11
BRANCH   4   3
ATOM      3  C   UNL     1      -1.541  -0.500  24.811  0.00  0.00    +0.143 C 
BRANCH   3   2
ATOM      1  C   UNL     1      -2.790  -1.187  24.903  0.00  0.00    +0.070 C 
ATOM      2  S   UNL     1      -2.068  -0.971  25.236  0.00  0.00    -0.130 S 
ENDBRANCH   3   2
ENDBRANCH   4   3
TORSDOF 9
ENDMDL
