MODEL 1
REMARK VINA RESULT:     -12.9      0.000      0.000
REMARK  Name = 
REMARK  5 active torsions:
REMARK  status: ('A' for Active; 'I' for Inactive)
REMARK    1  A    between atoms: O_2  and  C_3
REMARK    2  A    between atoms: C_8  and  C_9
REMARK    3  A    between atoms: C_9  and  N_10
REMARK    4  A    between atoms: C_13  and  C_15
REMARK    5  A    between atoms: C_21  and  C_24
REMARK                            x       y       z     vdW  Elec       q    Type
REMARK                         _______ _______ _______ _____ _____    ______ ____
ROOT
ATOM     10  N   UNL     1      -4.106   0.465  24.450  0.00  0.00    -0.268 NA
ATOM     11  C   UNL     1      -4.788   0.829  24.738  0.00  0.00    +0.073 C 
ATOM     12  C   UNL     1      -4.589   1.595  24.972  0.00  0.00    +0.026 C 
ATOM     13  C   UNL     1      -3.784   1.704  24.829  0.00  0.00    +0.076 C 
ATOM     14  C   UNL     1      -3.485   1.006  24.507  0.00  0.00    +0.080 C 
ENDROOT
BRANCH  13  15
ATOM     15  C   UNL     1      -3.353   2.391  24.982  0.00  0.00    +0.140 A 
ATOM     16  N   UNL     1      -3.528   2.955  25.557  0.00  0.00    -0.229 NA
ATOM     17  C   UNL     1      -2.954   3.546  25.517  0.00  0.00    +0.100 A 
ATOM     18  C   UNL     1      -2.425   3.348  24.916  0.00  0.00    +0.100 A 
ATOM     19  N   UNL     1      -2.670   2.633  24.585  0.00  0.00    -0.229 NA
ATOM     20  C   UNL     1      -1.787   3.843  24.749  0.00  0.00    +0.025 A 
ATOM     21  C   UNL     1      -1.678   4.537  25.181  0.00  0.00    +0.073 A 
ATOM     22  C   UNL     1      -2.208   4.736  25.781  0.00  0.00    +0.005 A 
ATOM     23  C   UNL     1      -2.846   4.241  25.949  0.00  0.00    +0.021 A 
BRANCH  21  24
ATOM     24  C   UNL     1      -1.041   5.032  25.013  0.00  0.00    +0.419 C 
ATOM     25  F   UNL     1      -0.402   5.528  24.845  0.00  0.00    -0.166 F 
ATOM     26  F   UNL     1      -0.522   4.473  25.328  0.00  0.00    -0.166 F 
ATOM     27  F   UNL     1      -1.558   5.592  24.698  0.00  0.00    -0.166 F 
ENDBRANCH  21  24
ENDBRANCH  13  15
BRANCH  10   9
ATOM      9  C   UNL     1      -4.054  -0.304  24.158  0.00  0.00    +0.102 C 
BRANCH   9   8
ATOM      3  C   UNL     1      -3.883  -1.702  24.403  0.00  0.00    +0.136 A 
ATOM      4  C   UNL     1      -3.645  -2.316  24.900  0.00  0.00    +0.037 A 
ATOM      5  C   UNL     1      -3.341  -2.148  25.648  0.00  0.00    +0.003 A 
ATOM      6  C   UNL     1      -3.274  -1.365  25.899  0.00  0.00    -0.000 A 
ATOM      7  C   UNL     1      -3.512  -0.750  25.403  0.00  0.00    +0.000 A 
ATOM      8  C   UNL     1      -3.816  -0.919  24.654  0.00  0.00    +0.028 A 
BRANCH   3   2
ATOM      1  C   UNL     1      -4.274  -2.654  23.412  0.00  0.00    +0.252 C 
ATOM      2  O   UNL     1      -4.187  -1.870  23.655  0.00  0.00    -0.472 OA
ENDBRANCH   3   2
ENDBRANCH   9   8
ENDBRANCH  10   9
TORSDOF 5
ENDMDL
MODEL 2
REMARK VINA RESULT:     -12.4      3.152      5.664
REMARK  Name = 
REMARK  5 active torsions:
REMARK  status: ('A' for Active; 'I' for Inactive)
REMARK    1  A    between atoms: O_2  and  C_3
REMARK    2  A    between atoms: C_8  and  C_9
REMARK    3  A    between atoms: C_9  and  N_10
REMARK    4  A    between atoms: C_13  and  C_15
REMARK    5  A    between atoms: C_21  and  C_24
REMARK                            x       y       z     vdW  Elec       q    Type
REMARK                         _______ _______ _______ _____ _____    ______ ____
ROOT
ATOM     10  N   UNL     1      -3.721   2.582  24.408  0.00  0.00    -0.268 NA
ATOM     11  C   UNL     1      -4.541   2.489  24.415  0.00  0.00    +0.073 C 
ATOM     12  C   UNL     1      -4.706   1.684  24.497  0.00  0.00    +0.026 C 
ATOM     13  C   UNL     1      -3.988   1.280  24.541  0.00  0.00    +0.076 C 
ATOM     14  C   UNL     1      -3.379   1.834  24.486  0.00  0.00    +0.080 C 
ENDROOT
BRANCH  13  15
ATOM     15  C   UNL     1      -3.895   0.465  24.625  0.00  0.00    +0.140 A 
ATOM     16  N   UNL     1      -3.725   0.065  25.326  0.00  0.00    -0.229 NA
ATOM     17  C   UNL     1      -3.681  -0.740  25.157  0.00  0.00    +0.100 A 
ATOM     18  C   UNL     1      -3.824  -0.839  24.350  0.00  0.00    +0.100 A 
ATOM     19  N   UNL     1      -3.956  -0.095  24.021  0.00  0.00    -0.229 NA
ATOM     20  C   UNL     1      -3.814  -1.596  24.021  0.00  0.00    +0.025 A 
ATOM     21  C   UNL     1      -3.663  -2.252  24.496  0.00  0.00    +0.073 A 
ATOM     22  C   UNL     1      -3.520  -2.153  25.303  0.00  0.00    +0.005 A 
ATOM     23  C   UNL     1      -3.529  -1.397  25.634  0.00  0.00    +0.021 A 
BRANCH  21  24
ATOM     24  C   UNL     1      -3.654  -3.007  24.166  0.00  0.00    +0.419 C 
ATOM     25  F   UNL     1      -3.644  -3.764  23.835  0.00  0.00    -0.166 F 
ATOM     26  F   UNL     1      -4.475  -2.986  24.093  0.00  0.00    -0.166 F 
ATOM     27  F   UNL     1      -2.832  -3.030  24.239  0.00  0.00    -0.166 F 
ENDBRANCH  21  24
ENDBRANCH  13  15
BRANCH  10   9
ATOM      9  C   UNL     1      -3.314   3.295  24.337  0.00  0.00    +0.102 C 
BRANCH   9   8
ATOM      3  C   UNL     1      -2.267   3.946  25.059  0.00  0.00    +0.136 A 
ATOM      4  C   UNL     1      -2.003   4.340  25.735  0.00  0.00    +0.037 A 
ATOM      5  C   UNL     1      -2.521   4.476  26.362  0.00  0.00    +0.003 A 
ATOM      6  C   UNL     1      -3.303   4.219  26.314  0.00  0.00    -0.000 A 
ATOM      7  C   UNL     1      -3.568   3.825  25.639  0.00  0.00    +0.000 A 
ATOM      8  C   UNL     1      -3.049   3.689  25.012  0.00  0.00    +0.028 A 
BRANCH   3   2
ATOM      1  C   UNL     1      -0.956   4.027  24.498  0.00  0.00    +0.252 C 
ATOM      2  O   UNL     1      -1.749   3.810  24.432  0.00  0.00    -0.472 OA
ENDBRANCH   3   2
ENDBRANCH   9   8
ENDBRANCH  10   9
TORSDOF 5
ENDMDL
MODEL 3
REMARK VINA RESULT:     -12.0      3.441      6.006
REMARK  Name = 
REMARK  5 active torsions:
REMARK  status: ('A' for Active; 'I' for Inactive)
REMARK    1  A    between atoms: O_2  and  C_3
REMARK    2  A    between atoms: C_8  and  C_9
REMARK    3  A    between atoms: C_9  and  N_10
REMARK    4  A    between atoms: C_13  and  C_15
REMARK    5  A    between atoms: C_21  and  C_24
REMARK                            x       y       z     vdW  Elec       q    Type
REMARK                         _______ _______ _______ _____ _____    ______ ____
ROOT
ATOM     10  N   UNL     1      -1.129   2.150  25.039  0.00  0.00    -0.268 NA
ATOM     11  C   UNL     1      -0.687   1.871  25.677  0.00  0.00    +0.073 C 
ATOM     12  C   UNL     1      -0.818   1.059  25.742  0.00  0.00    +0.026 C 
ATOM     13  C   UNL     1      -1.342   0.836  25.144  0.00  0.00    +0.076 C 
ATOM     14  C   UNL     1      -1.534   1.510  24.710  0.00  0.00    +0.080 C 
ENDROOT
BRANCH  13  15
ATOM     15  C   UNL     1      -1.623   0.073  25.005  0.00  0.00    +0.140 A 
ATOM     16  N   UNL     1      -1.165  -0.586  24.814  0.00  0.00    -0.229 NA
ATOM     17  C   UNL     1      -1.670  -1.230  24.724  0.00  0.00    +0.100 A 
ATOM     18  C   UNL     1      -2.442  -0.970  24.859  0.00  0.00    +0.100 A 
ATOM     19  N   UNL     1      -2.413  -0.165  25.032  0.00  0.00    -0.229 NA
ATOM     20  C   UNL     1      -3.071  -1.502  24.806  0.00  0.00    +0.025 A 
ATOM     21  C   UNL     1      -2.929  -2.292  24.618  0.00  0.00    +0.073 A 
ATOM     22  C   UNL     1      -2.158  -2.552  24.484  0.00  0.00    +0.005 A 
ATOM     23  C   UNL     1      -1.528  -2.022  24.536  0.00  0.00    +0.021 A 
BRANCH  21  24
ATOM     24  C   UNL     1      -3.558  -2.823  24.565  0.00  0.00    +0.419 C 
ATOM     25  F   UNL     1      -4.187  -3.354  24.513  0.00  0.00    -0.166 F 
ATOM     26  F   UNL     1      -3.639  -2.647  23.764  0.00  0.00    -0.166 F 
ATOM     27  F   UNL     1      -3.477  -2.999  25.368  0.00  0.00    -0.166 F 
ENDBRANCH  21  24
ENDBRANCH  13  15
BRANCH  10   9
ATOM      9  C   UNL     1      -1.162   2.931  24.776  0.00  0.00    +0.102 C 
BRANCH   9   8
ATOM      3  C   UNL     1      -1.494   4.265  25.167  0.00  0.00    +0.136 A 
ATOM      4  C   UNL     1      -2.018   4.797  25.520  0.00  0.00    +0.037 A 
ATOM      5  C   UNL     1      -2.731   4.527  25.832  0.00  0.00    +0.003 A 
ATOM      6  C   UNL     1      -2.922   3.726  25.793  0.00  0.00    -0.000 A 
ATOM      7  C   UNL     1      -2.400   3.193  25.441  0.00  0.00    +0.000 A 
ATOM      8  C   UNL     1      -1.685   3.464  25.128  0.00  0.00    +0.028 A 
BRANCH   3   2
ATOM      1  C   UNL     1      -0.662   5.343  24.733  0.00  0.00    +0.252 C 
ATOM      2  O   UNL     1      -0.780   4.535  24.855  0.00  0.00    -0.472 OA
ENDBRANCH   3   2
ENDBRANCH   9   8
ENDBRANCH  10   9
TORSDOF 5
ENDMDL
