MODEL 1
REMARK VINA RESULT:     -12.8      0.000      0.000
REMARK  Name = 
REMARK  2 active torsions:
REMARK  status: ('A' for Active; 'I' for Inactive)
REMARK    1  A    between atoms: C_2  and  N_3
REMARK    2  A    between atoms: N_6  and  C_7
REMARK                            x       y       z     vdW  Elec       q    Type
REMARK                         _______ _______ _______ _____ _____    ______ ____
ROOT
ATOM      7  C   UNL     1      -2.723   1.652  24.644  0.00  0.00    +0.097 C 
ATOM      8  C   UNL     1      -3.523   1.851  24.659  0.00  0.00    +0.022 C 
ATOM      9  C   UNL     1      -4.095   1.257  24.674  0.00  0.00    +0.002 C 
ATOM     10  C   UNL     1      -3.867   0.463  24.675  0.00  0.00    +0.003 C 
ATOM     11  C   UNL     1      -4.668   0.662  24.690  0.00  0.00    +0.000 C 
ATOM     12  C   UNL     1      -4.438  -0.130  24.691  0.00  0.00    +0.000 C 
ATOM     13  C   UNL     1      -4.210  -0.924  24.691  0.00  0.00    +0.004 C 
ATOM     14  C   UNL     1      -3.410  -1.122  24.677  0.00  0.00    +0.051 C 
ATOM     15  C   UNL     1      -3.021  -1.850  24.674  0.00  0.00    +0.103 C 
ATOM     16  C   UNL     1      -3.381  -2.592  24.686  0.00  0.00    +0.012 C 
ATOM     17  C   UNL     1      -2.209  -1.705  24.657  0.00  0.00    +0.316 C 
ATOM     18  O   UNL     1      -1.615  -2.277  24.649  0.00  0.00    -0.250 OA
ATOM     19  O   UNL     1      -2.095  -0.888  24.649  0.00  0.00    -0.452 OA
ATOM     20  C   UNL     1      -2.837  -0.527  24.661  0.00  0.00    +0.169 C 
ATOM     21  C   UNL     1      -3.066   0.265  24.661  0.00  0.00    +0.042 C 
ATOM     22  C   UNL     1      -2.494   0.860  24.645  0.00  0.00    +0.024 C 
ATOM     23  C   UNL     1      -1.694   0.662  24.631  0.00  0.00    +0.002 C 
ENDROOT
BRANCH   7   6
ATOM      3  N   UNL     1      -1.728   3.567  24.976  0.00  0.00    -0.187 NA
ATOM      4  C   UNL     1      -2.300   2.972  24.992  0.00  0.00    +0.339 C 
ATOM      5  O   UNL     1      -3.022   3.104  25.369  0.00  0.00    -0.249 OA
ATOM      6  N   UNL     1      -2.150   2.247  24.629  0.00  0.00    -0.189 NA
BRANCH   3   2
ATOM      1  C   UNL     1      -1.403   4.946  25.166  0.00  0.00    +0.025 C 
ATOM      2  C   UNL     1      -1.878   4.293  25.339  0.00  0.00    +0.117 C 
ENDBRANCH   3   2
ENDBRANCH   7   6
TORSDOF 2
ENDMDL
MODEL 2
REMARK VINA RESULT:     -12.6      1.568      4.357
REMARK  Name = 
REMARK  2 active torsions:
REMARK  status: ('A' for Active; 'I' for Inactive)
REMARK    1  A    between atoms: C_2  and  N_3
REMARK    2  A    between atoms: N_6  and  C_7
REMARK                            x       y       z     vdW  Elec       q    Type
REMARK                         _______ _______ _______ _____ _____    ______ ____
ROOT
ATOM      7  C   UNL     1      -3.747   1.264  24.265  0.00  0.00    +0.097 C 
ATOM      8  C   UNL     1      -4.478   1.479  24.580  0.00  0.00    +0.022 C 
ATOM      9  C   UNL     1      -4.570   2.211  24.947  0.00  0.00    +0.002 C 
ATOM     10  C   UNL     1      -3.930   2.730  24.999  0.00  0.00    +0.003 C 
ATOM     11  C   UNL     1      -4.661   2.945  25.314  0.00  0.00    +0.000 C 
ATOM     12  C   UNL     1      -4.021   3.463  25.366  0.00  0.00    +0.000 C 
ATOM     13  C   UNL     1      -3.382   3.981  25.418  0.00  0.00    +0.004 C 
ATOM     14  C   UNL     1      -2.650   3.766  25.103  0.00  0.00    +0.051 C 
ATOM     15  C   UNL     1      -1.925   4.159  25.071  0.00  0.00    +0.103 C 
ATOM     16  C   UNL     1      -1.767   4.910  25.373  0.00  0.00    +0.012 C 
ATOM     17  C   UNL     1      -1.386   3.668  24.685  0.00  0.00    +0.316 C 
ATOM     18  O   UNL     1      -0.594   3.844  24.533  0.00  0.00    -0.250 OA
ATOM     19  O   UNL     1      -1.777   2.973  24.477  0.00  0.00    -0.452 OA
ATOM     20  C   UNL     1      -2.558   3.033  24.735  0.00  0.00    +0.169 C 
ATOM     21  C   UNL     1      -3.199   2.515  24.684  0.00  0.00    +0.042 C 
ATOM     22  C   UNL     1      -3.107   1.781  24.316  0.00  0.00    +0.024 C 
ATOM     23  C   UNL     1      -2.376   1.567  24.001  0.00  0.00    +0.002 C 
ENDROOT
BRANCH   7   6
ATOM      3  N   UNL     1      -3.861  -0.884  23.889  0.00  0.00    -0.187 NA
ATOM      4  C   UNL     1      -3.953  -0.150  24.257  0.00  0.00    +0.339 C 
ATOM      5  O   UNL     1      -4.341  -0.098  24.982  0.00  0.00    -0.249 OA
ATOM      6  N   UNL     1      -3.655   0.530  23.897  0.00  0.00    -0.189 NA
BRANCH   3   2
ATOM      1  C   UNL     1      -3.971  -2.308  23.941  0.00  0.00    +0.025 C 
ATOM      2  C   UNL     1      -4.158  -1.564  24.248  0.00  0.00    +0.117 C 
ENDBRANCH   3   2
ENDBRANCH   7   6
TORSDOF 2
ENDMDL
MODEL 3
REMARK VINA RESULT:     -12.5      1.722      2.146
REMARK  Name = 
REMARK  2 active torsions:
REMARK  status: ('A' for Active; 'I' for Inactive)
REMARK    1  A    between atoms: C_2  and  N_3
REMARK    2  A    between atoms: N_6  and  C_7
REMARK                            x       y       z     vdW  Elec       q    Type
REMARK                         _______ _______ _______ _____ _____    ______ ____
ROOT
ATOM      7  C   UNL     1      -3.875   0.539  24.511  0.00  0.00    +0.097 C 
ATOM      8  C   UNL     1      -4.525   0.083  24.288  0.00  0.00    +0.022 C 
ATOM      9  C   UNL     1      -4.445  -0.733  24.200  0.00  0.00    +0.002 C 
ATOM     10  C   UNL     1      -3.716  -1.094  24.336  0.00  0.00    +0.003 C 
ATOM     11  C   UNL     1      -4.366  -1.550  24.113  0.00  0.00    +0.000 C 
ATOM     12  C   UNL     1      -3.636  -1.909  24.248  0.00  0.00    +0.000 C 
ATOM     13  C   UNL     1      -2.906  -2.270  24.384  0.00  0.00    +0.004 C 
ATOM     14  C   UNL     1      -2.256  -1.814  24.607  0.00  0.00    +0.051 C 
ATOM     15  C   UNL     1      -1.474  -2.013  24.776  0.00  0.00    +0.103 C 
ATOM     16  C   UNL     1      -1.151  -2.772  24.757  0.00  0.00    +0.012 C 
ATOM     17  C   UNL     1      -1.070  -1.319  24.969  0.00  0.00    +0.316 C 
ATOM     18  O   UNL     1      -0.273  -1.264  25.176  0.00  0.00    -0.250 OA
ATOM     19  O   UNL     1      -1.602  -0.692  24.918  0.00  0.00    -0.452 OA
ATOM     20  C   UNL     1      -2.335  -0.996  24.694  0.00  0.00    +0.169 C 
ATOM     21  C   UNL     1      -3.065  -0.637  24.559  0.00  0.00    +0.042 C 
ATOM     22  C   UNL     1      -3.145   0.180  24.646  0.00  0.00    +0.024 C 
ATOM     23  C   UNL     1      -2.496   0.636  24.869  0.00  0.00    +0.002 C 
ENDROOT
BRANCH   7   6
ATOM      3  N   UNL     1      -4.697   2.484  25.066  0.00  0.00    -0.187 NA
ATOM      4  C   UNL     1      -4.617   1.667  24.979  0.00  0.00    +0.339 C 
ATOM      5  O   UNL     1      -5.200   1.162  25.272  0.00  0.00    -0.249 OA
ATOM      6  N   UNL     1      -3.955   1.357  24.598  0.00  0.00    -0.189 NA
BRANCH   3   2
ATOM      1  C   UNL     1      -5.427   3.611  25.556  0.00  0.00    +0.025 C 
ATOM      2  C   UNL     1      -5.360   2.795  25.447  0.00  0.00    +0.117 C 
ENDBRANCH   3   2
ENDBRANCH   7   6
TORSDOF 2
ENDMDL
MODEL 4
REMARK VINA RESULT:     -12.3      1.850      4.542
REMARK  Name = 
REMARK  2 active torsions:
REMARK  status: ('A' for Active; 'I' for Inactive)
REMARK    1  A    between atoms: C_2  and  N_3
REMARK    2  A    between atoms: N_6  and  C_7
REMARK                            x       y       z     vdW  Elec       q    Type
REMARK                         _______ _______ _______ _____ _____    ______ ____
ROOT
ATOM      7  C   UNL     1      -3.979   0.226  24.189  0.00  0.00    +0.097 C 
ATOM      8  C   UNL     1      -3.405   0.440  23.636  0.00  0.00    +0.022 C 
ATOM      9  C   UNL     1      -3.220   1.236  23.522  0.00  0.00    +0.002 C 
ATOM     10  C   UNL     1      -3.608   1.817  23.960  0.00  0.00    +0.003 C 
ATOM     11  C   UNL     1      -3.035   2.032  23.407  0.00  0.00    +0.000 C 
ATOM     12  C   UNL     1      -3.423   2.613  23.846  0.00  0.00    +0.000 C 
ATOM     13  C   UNL     1      -3.811   3.194  24.284  0.00  0.00    +0.004 C 
ATOM     14  C   UNL     1      -4.385   2.980  24.836  0.00  0.00    +0.051 C 
ATOM     15  C   UNL     1      -4.856   3.427  25.345  0.00  0.00    +0.103 C 
ATOM     16  C   UNL     1      -4.851   4.249  25.413  0.00  0.00    +0.012 C 
ATOM     17  C   UNL     1      -5.332   2.907  25.774  0.00  0.00    +0.316 C 
ATOM     18  O   UNL     1      -5.887   3.120  26.346  0.00  0.00    -0.250 OA
ATOM     19  O   UNL     1      -5.156   2.139  25.531  0.00  0.00    -0.452 OA
ATOM     20  C   UNL     1      -4.570   2.184  24.951  0.00  0.00    +0.169 C 
ATOM     21  C   UNL     1      -4.182   1.603  24.513  0.00  0.00    +0.042 C 
ATOM     22  C   UNL     1      -4.367   0.807  24.627  0.00  0.00    +0.024 C 
ATOM     23  C   UNL     1      -4.940   0.592  25.180  0.00  0.00    +0.002 C 
ENDROOT
BRANCH   7   6
ATOM      3  N   UNL     1      -3.746  -1.921  24.510  0.00  0.00    -0.187 NA
ATOM      4  C   UNL     1      -3.561  -1.125  24.395  0.00  0.00    +0.339 C 
ATOM      5  O   UNL     1      -2.772  -0.884  24.372  0.00  0.00    -0.249 OA
ATOM      6  N   UNL     1      -4.165  -0.570  24.304  0.00  0.00    -0.189 NA
BRANCH   3   2
ATOM      1  C   UNL     1      -3.324  -3.280  24.635  0.00  0.00    +0.025 C 
ATOM      2  C   UNL     1      -3.142  -2.476  24.601  0.00  0.00    +0.117 C 
ENDBRANCH   3   2
ENDBRANCH   7   6
TORSDOF 2
ENDMDL
MODEL 5
REMARK VINA RESULT:     -11.6      1.524      3.625
REMARK  Name = 
REMARK  2 active torsions:
REMARK  status: ('A' for Active; 'I' for Inactive)
REMARK    1  A    between atoms: C_2  and  N_3
REMARK    2  A    between atoms: N_6  and  C_7
REMARK                            x       y       z     vdW  Elec       q    Type
REMARK                         _______ _______ _______ _____ _____    ______ ____
ROOT
ATOM      7  C   UNL     1      -2.503   0.940  24.058  0.00  0.00    +0.097 C 
ATOM      8  C   UNL     1      -2.826   0.182  24.095  0.00  0.00    +0.022 C 
ATOM      9  C   UNL     1      -3.583   0.072  24.402  0.00  0.00    +0.002 C 
ATOM     10  C   UNL     1      -4.018   0.718  24.672  0.00  0.00    +0.003 C 
ATOM     11  C   UNL     1      -4.342  -0.040  24.709  0.00  0.00    +0.000 C 
ATOM     12  C   UNL     1      -4.776   0.608  24.978  0.00  0.00    +0.000 C 
ATOM     13  C   UNL     1      -5.211   1.255  25.248  0.00  0.00    +0.004 C 
ATOM     14  C   UNL     1      -4.888   2.013  25.211  0.00  0.00    +0.051 C 
ATOM     15  C   UNL     1      -5.184   2.750  25.433  0.00  0.00    +0.103 C 
ATOM     16  C   UNL     1      -5.924   2.896  25.766  0.00  0.00    +0.012 C 
ATOM     17  C   UNL     1      -4.608   3.317  25.264  0.00  0.00    +0.316 C 
ATOM     18  O   UNL     1      -4.673   4.128  25.398  0.00  0.00    -0.250 OA
ATOM     19  O   UNL     1      -3.957   2.930  24.937  0.00  0.00    -0.452 OA
ATOM     20  C   UNL     1      -4.130   2.124  24.904  0.00  0.00    +0.169 C 
ATOM     21  C   UNL     1      -3.695   1.477  24.635  0.00  0.00    +0.042 C 
ATOM     22  C   UNL     1      -2.937   1.588  24.328  0.00  0.00    +0.024 C 
ATOM     23  C   UNL     1      -2.614   2.345  24.291  0.00  0.00    +0.002 C 
ENDROOT
BRANCH   7   6
ATOM      3  N   UNL     1      -0.400   0.598  23.579  0.00  0.00    -0.187 NA
ATOM      4  C   UNL     1      -1.159   0.487  23.886  0.00  0.00    +0.339 C 
ATOM      5  O   UNL     1      -1.330  -0.189  24.327  0.00  0.00    -0.249 OA
ATOM      6  N   UNL     1      -1.744   1.052  23.752  0.00  0.00    -0.189 NA
BRANCH   3   2
ATOM      1  C   UNL     1       0.868   0.028  23.249  0.00  0.00    +0.025 C 
ATOM      2  C   UNL     1       0.185   0.033  23.714  0.00  0.00    +0.117 C 
ENDBRANCH   3   2
ENDBRANCH   7   6
TORSDOF 2
ENDMDL
MODEL 6
REMARK VINA RESULT:     -11.5      1.352      4.624
REMARK  Name = 
REMARK  2 active torsions:
REMARK  status: ('A' for Active; 'I' for Inactive)
REMARK    1  A    between atoms: C_2  and  N_3
REMARK    2  A    between atoms: N_6  and  C_7
REMARK                            x       y       z     vdW  Elec       q    Type
REMARK                         _______ _______ _______ _____ _____    ______ ____
ROOT
ATOM      7  C   UNL     1      -2.115   0.464  24.739  0.00  0.00    +0.097 C 
ATOM      8  C   UNL     1      -1.395   0.295  25.104  0.00  0.00    +0.022 C 
ATOM      9  C   UNL     1      -0.948   0.903  25.434  0.00  0.00    +0.002 C 
ATOM     10  C   UNL     1      -1.219   1.682  25.400  0.00  0.00    +0.003 C 
ATOM     11  C   UNL     1      -0.499   1.512  25.765  0.00  0.00    +0.000 C 
ATOM     12  C   UNL     1      -0.771   2.290  25.729  0.00  0.00    +0.000 C 
ATOM     13  C   UNL     1      -1.042   3.069  25.695  0.00  0.00    +0.004 C 
ATOM     14  C   UNL     1      -1.763   3.238  25.329  0.00  0.00    +0.051 C 
ATOM     15  C   UNL     1      -2.169   3.946  25.212  0.00  0.00    +0.103 C 
ATOM     16  C   UNL     1      -1.920   4.694  25.454  0.00  0.00    +0.012 C 
ATOM     17  C   UNL     1      -2.868   3.775  24.808  0.00  0.00    +0.316 C 
ATOM     18  O   UNL     1      -3.441   4.322  24.578  0.00  0.00    -0.250 OA
ATOM     19  O   UNL     1      -2.895   2.961  24.677  0.00  0.00    -0.452 OA
ATOM     20  C   UNL     1      -2.211   2.629  24.999  0.00  0.00    +0.169 C 
ATOM     21  C   UNL     1      -1.939   1.851  25.034  0.00  0.00    +0.042 C 
ATOM     22  C   UNL     1      -2.388   1.242  24.704  0.00  0.00    +0.024 C 
ATOM     23  C   UNL     1      -3.107   1.411  24.339  0.00  0.00    +0.002 C 
ENDROOT
BRANCH   7   6
ATOM      3  N   UNL     1      -3.123  -1.458  24.495  0.00  0.00    -0.187 NA
ATOM      4  C   UNL     1      -2.674  -0.849  24.826  0.00  0.00    +0.339 C 
ATOM      5  O   UNL     1      -2.335  -0.944  25.572  0.00  0.00    -0.249 OA
ATOM      6  N   UNL     1      -2.564  -0.145  24.409  0.00  0.00    -0.189 NA
BRANCH   3   2
ATOM      1  C   UNL     1      -3.623  -2.795  24.555  0.00  0.00    +0.025 C 
ATOM      2  C   UNL     1      -3.232  -2.161  24.912  0.00  0.00    +0.117 C 
ENDBRANCH   3   2
ENDBRANCH   7   6
TORSDOF 2
ENDMDL
MODEL 7
REMARK VINA RESULT:      -9.0     17.511     18.712
REMARK  Name = 
REMARK  2 active torsions:
REMARK  status: ('A' for Active; 'I' for Inactive)
REMARK    1  A    between atoms: C_2  and  N_3
REMARK    2  A    between atoms: N_6  and  C_7
REMARK                            x       y       z     vdW  Elec       q    Type
REMARK                         _______ _______ _______ _____ _____    ______ ____
ROOT
ATOM      7  C   UNL     1      12.659   7.322  18.552  0.00  0.00    +0.097 C 
ATOM      8  C   UNL     1      12.145   7.328  19.197  0.00  0.00    +0.022 C 
ATOM      9  C   UNL     1      12.435   7.191  19.956  0.00  0.00    +0.002 C 
ATOM     10  C   UNL     1      13.239   7.048  20.072  0.00  0.00    +0.003 C 
ATOM     11  C   UNL     1      12.725   7.054  20.717  0.00  0.00    +0.000 C 
ATOM     12  C   UNL     1      13.529   6.911  20.831  0.00  0.00    +0.000 C 
ATOM     13  C   UNL     1      14.333   6.767  20.947  0.00  0.00    +0.004 C 
ATOM     14  C   UNL     1      14.848   6.761  20.302  0.00  0.00    +0.051 C 
ATOM     15  C   UNL     1      15.661   6.637  20.246  0.00  0.00    +0.103 C 
ATOM     16  C   UNL     1      16.172   6.479  20.874  0.00  0.00    +0.012 C 
ATOM     17  C   UNL     1      15.874   6.697  19.451  0.00  0.00    +0.316 C 
ATOM     18  O   UNL     1      16.635   6.610  19.145  0.00  0.00    -0.250 OA
ATOM     19  O   UNL     1      15.192   6.859  19.016  0.00  0.00    -0.452 OA
ATOM     20  C   UNL     1      14.558   6.898  19.541  0.00  0.00    +0.169 C 
ATOM     21  C   UNL     1      13.753   7.042  19.427  0.00  0.00    +0.042 C 
ATOM     22  C   UNL     1      13.463   7.179  18.666  0.00  0.00    +0.024 C 
ATOM     23  C   UNL     1      13.977   7.173  18.022  0.00  0.00    +0.002 C 
ENDROOT
BRANCH   7   6
ATOM      3  N   UNL     1      11.436   8.101  16.919  0.00  0.00    -0.187 NA
ATOM      4  C   UNL     1      11.726   7.964  17.680  0.00  0.00    +0.339 C 
ATOM      5  O   UNL     1      11.373   8.331  18.329  0.00  0.00    -0.249 OA
ATOM      6  N   UNL     1      12.369   7.460  17.791  0.00  0.00    -0.189 NA
BRANCH   3   2
ATOM      1  C   UNL     1      10.576   8.837  16.046  0.00  0.00    +0.025 C 
ATOM      2  C   UNL     1      10.793   8.606  16.809  0.00  0.00    +0.117 C 
ENDBRANCH   3   2
ENDBRANCH   7   6
TORSDOF 2
ENDMDL
