REMARK  Name = 
REMARK  5 active torsions:
REMARK  status: ('A' for Active; 'I' for Inactive)
REMARK    1  A    between atoms: O_2  and  C_3
REMARK    2  A    between atoms: C_5  and  S_6
REMARK    3  A    between atoms: C_10  and  C_11
REMARK    4  A    between atoms: N_13  and  C_14
REMARK    5  A    between atoms: N_22  and  C_25
REMARK                            x       y       z     vdW  Elec       q    Type
REMARK                         _______ _______ _______ _____ _____    ______ ____
ROOT
ATOM     14  C   UNL     1       3.352   1.935   0.000  0.00  0.00    +0.099 C 
ATOM     15  C   UNL     1       3.352   1.110   0.000  0.00  0.00    +0.043 C 
ATOM     16  C   UNL     1       2.638   0.698   0.000  0.00  0.00    +0.097 C 
ATOM     17  N   UNL     1       1.923   1.110   0.000  0.00  0.00    -0.257 N 
ATOM     18  C   UNL     1       1.923   1.935   0.000  0.00  0.00    +0.156 C 
ATOM     19  C   UNL     1       2.638   2.348   0.000  0.00  0.00    +0.051 C 
ATOM     20  C   UNL     1       1.139   2.190   0.000  0.00  0.00    +0.254 C 
ATOM     21  O   UNL     1       0.884   2.975   0.000  0.00  0.00    -0.272 OA
ATOM     22  N   UNL     1       0.654   1.523   0.000  0.00  0.00    -0.191 N 
ATOM     23  C   UNL     1       1.139   0.856   0.000  0.00  0.00    +0.317 C 
ATOM     24  O   UNL     1       0.884   0.071   0.000  0.00  0.00    -0.252 OA
ENDROOT
BRANCH  22  25
ATOM     25  C   UNL     1      -0.171   1.523   0.000  0.00  0.00    +0.062 A 
ATOM     26  C   UNL     1      -0.584   0.808   0.000  0.00  0.00    +0.016 A 
ATOM     27  C   UNL     1      -1.409   0.808   0.000  0.00  0.00    +0.013 A 
ATOM     28  C   UNL     1      -1.821   1.523   0.000  0.00  0.00    +0.058 A 
ATOM     29 CL   UNL     1      -2.646   1.523   0.000  0.00  0.00    -0.082 Cl
ATOM     30  C   UNL     1      -1.409   2.237   0.000  0.00  0.00    +0.013 A 
ATOM     31  C   UNL     1      -0.584   2.237   0.000  0.00  0.00    +0.016 A 
ENDBRANCH  22  25
BRANCH  14  13
ATOM     11  C   UNL     1       4.781   1.935   0.000  0.00  0.00    +0.268 C 
ATOM     12  O   UNL     1       4.781   1.110   0.000  0.00  0.00    -0.268 OA
ATOM     13  N   UNL     1       4.067   2.348   0.000  0.00  0.00    -0.203 NA
BRANCH  11  10
ATOM      3  C   UNL     1       5.496   3.173   0.000  0.00  0.00    +0.144 A 
ATOM      4  C   UNL     1       6.210   3.585   0.000  0.00  0.00    +0.043 A 
ATOM      5  C   UNL     1       6.925   3.173   0.000  0.00  0.00    +0.028 A 
ATOM      8  C   UNL     1       6.925   2.348   0.000  0.00  0.00    +0.006 A 
ATOM      9  C   UNL     1       6.210   1.935   0.000  0.00  0.00    +0.008 A 
ATOM     10  C   UNL     1       5.496   2.348   0.000  0.00  0.00    +0.089 A 
BRANCH   3   2
ATOM      1  C   UNL     1       4.067   3.173   0.000  0.00  0.00    +0.252 C 
ATOM      2  O   UNL     1       4.781   3.585   0.000  0.00  0.00    -0.471 OA
ENDBRANCH   3   2
BRANCH   5   6
ATOM      6  S   UNL     1       7.639   3.585   0.000  0.00  0.00    -0.113 S 
ATOM      7  C   UNL     1       8.354   3.173   0.000  0.00  0.00    +0.074 C 
ENDBRANCH   5   6
ENDBRANCH  11  10
ENDBRANCH  14  13
TORSDOF 5
