MODEL 1
REMARK VINA RESULT:     -13.2      0.000      0.000
REMARK  Name = 
REMARK  6 active torsions:
REMARK  status: ('A' for Active; 'I' for Inactive)
REMARK    1  A    between atoms: O_2  and  C_3
REMARK    2  A    between atoms: C_3  and  C_4
REMARK    3  A    between atoms: C_4  and  C_5
REMARK    4  A    between atoms: C_16  and  N_17
REMARK    5  A    between atoms: N_17  and  S_18
REMARK    6  A    between atoms: S_18  and  C_21
REMARK                            x       y       z     vdW  Elec       q    Type
REMARK                         _______ _______ _______ _____ _____    ______ ____
ROOT
ATOM      5  C   UNL     1      -3.444   3.065  24.691  0.00  0.00    +0.228 C 
ATOM      6  O   UNL     1      -3.393   2.248  24.581  0.00  0.00    -0.275 OA
ATOM      7  N   UNL     1      -4.125   3.395  25.021  0.00  0.00    -0.279 N 
ATOM      8  C   UNL     1      -4.645   3.982  25.309  0.00  0.00    +0.095 C 
ATOM      9  C   UNL     1      -5.406   3.412  25.577  0.00  0.00    +0.043 C 
ATOM     10  C   UNL     1      -6.104   3.088  25.844  0.00  0.00    +0.011 C 
ATOM     11  C   UNL     1      -5.504   2.863  25.560  0.00  0.00    +0.058 C 
ATOM     12  C   UNL     1      -4.776   3.428  25.306  0.00  0.00    +0.099 C 
ATOM     13  C   UNL     1      -5.077   2.094  25.292  0.00  0.00    +0.041 A 
ATOM     14  C   UNL     1      -5.191   1.278  25.254  0.00  0.00    +0.014 A 
ATOM     15  C   UNL     1      -4.600   0.793  24.945  0.00  0.00    +0.024 A 
ATOM     16  C   UNL     1      -3.894   1.124  24.676  0.00  0.00    +0.147 A 
ATOM     28  C   UNL     1      -3.779   1.940  24.714  0.00  0.00    +0.277 A 
ATOM     29  O   UNL     1      -3.023   2.022  24.396  0.00  0.00    -0.266 OA
ATOM     30  N   UNL     1      -4.371   2.425  25.023  0.00  0.00    -0.298 N 
ATOM     31  C   UNL     1      -4.952   2.614  25.295  0.00  0.00    +0.110 C 
ENDROOT
BRANCH   5   4
ATOM      4  C   UNL     1      -2.815   3.551  24.472  0.00  0.00    +0.117 C 
BRANCH   4   3
ATOM      3  C   UNL     1      -2.212   3.714  25.010  0.00  0.00    +0.152 C 
BRANCH   3   2
ATOM      1  C   UNL     1      -0.911   4.271  25.207  0.00  0.00    +0.174 C 
ATOM      2  O   UNL     1      -1.646   4.288  24.834  0.00  0.00    -0.351 OA
ENDBRANCH   3   2
ENDBRANCH   4   3
ENDBRANCH   5   4
BRANCH  16  17
ATOM     17  N   UNL     1      -3.303   0.638  24.368  0.00  0.00    -0.092 NA
BRANCH  17  18
ATOM     18  S   UNL     1      -3.387  -0.182  24.393  0.00  0.00    +0.093 S 
ATOM     19  O   UNL     1      -3.764  -0.166  23.659  0.00  0.00    -0.148 OA
ATOM     20  O   UNL     1      -3.011  -0.198  25.127  0.00  0.00    -0.148 OA
BRANCH  18  21
ATOM     21  C   UNL     1      -3.472  -1.003  24.419  0.00  0.00    +0.127 A 
ATOM     22  C   UNL     1      -3.948  -1.386  23.865  0.00  0.00    +0.021 A 
ATOM     23  C   UNL     1      -4.032  -2.206  23.891  0.00  0.00    +0.013 A 
ATOM     24  C   UNL     1      -3.640  -2.643  24.471  0.00  0.00    +0.058 A 
ATOM     25 CL   UNL     1      -3.724  -3.463  24.497  0.00  0.00    -0.082 Cl
ATOM     26  C   UNL     1      -3.164  -2.260  25.025  0.00  0.00    +0.013 A 
ATOM     27  C   UNL     1      -3.080  -1.439  24.999  0.00  0.00    +0.021 A 
ENDBRANCH  18  21
ENDBRANCH  17  18
ENDBRANCH  16  17
TORSDOF 6
ENDMDL
MODEL 2
REMARK VINA RESULT:     -12.3      2.154      4.569
REMARK  Name = 
REMARK  6 active torsions:
REMARK  status: ('A' for Active; 'I' for Inactive)
REMARK    1  A    between atoms: O_2  and  C_3
REMARK    2  A    between atoms: C_3  and  C_4
REMARK    3  A    between atoms: C_4  and  C_5
REMARK    4  A    between atoms: C_16  and  N_17
REMARK    5  A    between atoms: N_17  and  S_18
REMARK    6  A    between atoms: S_18  and  C_21
REMARK                            x       y       z     vdW  Elec       q    Type
REMARK                         _______ _______ _______ _____ _____    ______ ____
ROOT
ATOM      5  C   UNL     1      -1.512  -0.792  24.507  0.00  0.00    +0.228 C 
ATOM      6  O   UNL     1      -2.008  -0.133  24.478  0.00  0.00    -0.275 OA
ATOM      7  N   UNL     1      -1.835  -1.550  24.555  0.00  0.00    -0.279 N 
ATOM      8  C   UNL     1      -1.863  -2.384  24.602  0.00  0.00    +0.095 C 
ATOM      9  C   UNL     1      -2.842  -2.516  24.626  0.00  0.00    +0.043 C 
ATOM     10  C   UNL     1      -3.609  -2.790  24.654  0.00  0.00    +0.011 C 
ATOM     11  C   UNL     1      -3.280  -2.171  24.613  0.00  0.00    +0.058 C 
ATOM     12  C   UNL     1      -2.332  -2.060  24.592  0.00  0.00    +0.099 C 
ATOM     13  C   UNL     1      -3.446  -1.268  24.565  0.00  0.00    +0.041 A 
ATOM     14  C   UNL     1      -4.073  -0.732  24.545  0.00  0.00    +0.014 A 
ATOM     15  C   UNL     1      -3.922   0.077  24.497  0.00  0.00    +0.024 A 
ATOM     16  C   UNL     1      -3.144   0.351  24.469  0.00  0.00    +0.147 A 
ATOM     28  C   UNL     1      -2.517  -0.185  24.489  0.00  0.00    +0.277 A 
ATOM     29  O   UNL     1      -1.862   0.315  24.450  0.00  0.00    -0.266 OA
ATOM     30  N   UNL     1      -2.668  -0.994  24.537  0.00  0.00    -0.298 N 
ATOM     31  C   UNL     1      -3.006  -1.571  24.575  0.00  0.00    +0.110 C 
ENDROOT
BRANCH   5   4
ATOM      4  C   UNL     1      -0.694  -0.694  24.488  0.00  0.00    +0.117 C 
BRANCH   4   3
ATOM      3  C   UNL     1      -0.312  -0.545  23.772  0.00  0.00    +0.152 C 
BRANCH   3   2
ATOM      1  C   UNL     1       0.890  -0.249  23.058  0.00  0.00    +0.174 C 
ATOM      2  O   UNL     1       0.511  -0.509  23.743  0.00  0.00    -0.351 OA
ENDBRANCH   3   2
ENDBRANCH   4   3
ENDBRANCH   5   4
BRANCH  16  17
ATOM     17  N   UNL     1      -2.993   1.160  24.421  0.00  0.00    -0.092 NA
BRANCH  17  18
ATOM     18  S   UNL     1      -3.566   1.702  24.664  0.00  0.00    +0.093 S 
ATOM     19  O   UNL     1      -3.854   1.743  23.892  0.00  0.00    -0.148 OA
ATOM     20  O   UNL     1      -3.279   1.661  25.435  0.00  0.00    -0.148 OA
BRANCH  18  21
ATOM     21  C   UNL     1      -4.140   2.243  24.907  0.00  0.00    +0.127 A 
ATOM     22  C   UNL     1      -4.939   2.083  24.781  0.00  0.00    +0.021 A 
ATOM     23  C   UNL     1      -5.511   2.625  25.024  0.00  0.00    +0.013 A 
ATOM     24  C   UNL     1      -5.284   3.327  25.394  0.00  0.00    +0.058 A 
ATOM     25 CL   UNL     1      -5.857   3.869  25.637  0.00  0.00    -0.082 Cl
ATOM     26  C   UNL     1      -4.485   3.487  25.519  0.00  0.00    +0.013 A 
ATOM     27  C   UNL     1      -3.913   2.946  25.276  0.00  0.00    +0.021 A 
ENDBRANCH  18  21
ENDBRANCH  17  18
ENDBRANCH  16  17
TORSDOF 6
ENDMDL
MODEL 3
REMARK VINA RESULT:     -12.1      1.053      2.401
REMARK  Name = 
REMARK  6 active torsions:
REMARK  status: ('A' for Active; 'I' for Inactive)
REMARK    1  A    between atoms: O_2  and  C_3
REMARK    2  A    between atoms: C_3  and  C_4
REMARK    3  A    between atoms: C_4  and  C_5
REMARK    4  A    between atoms: C_16  and  N_17
REMARK    5  A    between atoms: N_17  and  S_18
REMARK    6  A    between atoms: S_18  and  C_21
REMARK                            x       y       z     vdW  Elec       q    Type
REMARK                         _______ _______ _______ _____ _____    ______ ____
ROOT
ATOM      5  C   UNL     1      -3.523   3.206  24.928  0.00  0.00    +0.228 C 
ATOM      6  O   UNL     1      -3.620   2.396  24.801  0.00  0.00    -0.275 OA
ATOM      7  N   UNL     1      -2.783   3.504  25.142  0.00  0.00    -0.279 N 
ATOM      8  C   UNL     1      -2.200   4.064  25.352  0.00  0.00    +0.095 C 
ATOM      9  C   UNL     1      -1.424   3.462  25.459  0.00  0.00    +0.043 C 
ATOM     10  C   UNL     1      -0.700   3.109  25.586  0.00  0.00    +0.011 C 
ATOM     11  C   UNL     1      -1.350   2.912  25.406  0.00  0.00    +0.058 C 
ATOM     12  C   UNL     1      -2.090   3.506  25.307  0.00  0.00    +0.099 C 
ATOM     13  C   UNL     1      -1.844   2.167  25.194  0.00  0.00    +0.041 A 
ATOM     14  C   UNL     1      -1.766   1.350  25.108  0.00  0.00    +0.014 A 
ATOM     15  C   UNL     1      -2.419   0.894  24.894  0.00  0.00    +0.024 A 
ATOM     16  C   UNL     1      -3.151   1.255  24.767  0.00  0.00    +0.147 A 
ATOM     28  C   UNL     1      -3.228   2.071  24.853  0.00  0.00    +0.277 A 
ATOM     29  O   UNL     1      -4.026   2.187  24.678  0.00  0.00    -0.266 OA
ATOM     30  N   UNL     1      -2.575   2.527  25.066  0.00  0.00    -0.298 N 
ATOM     31  C   UNL     1      -1.948   2.689  25.236  0.00  0.00    +0.110 C 
ENDROOT
BRANCH   5   4
ATOM      4  C   UNL     1      -4.164   3.717  24.842  0.00  0.00    +0.117 C 
BRANCH   4   3
ATOM      3  C   UNL     1      -4.752   3.743  25.419  0.00  0.00    +0.152 C 
BRANCH   3   2
ATOM      1  C   UNL     1      -6.071   4.184  25.749  0.00  0.00    +0.174 C 
ATOM      2  O   UNL     1      -5.347   4.313  25.377  0.00  0.00    -0.351 OA
ENDBRANCH   3   2
ENDBRANCH   4   3
ENDBRANCH   5   4
BRANCH  16  17
ATOM     17  N   UNL     1      -3.803   0.798  24.553  0.00  0.00    -0.092 NA
BRANCH  17  18
ATOM     18  S   UNL     1      -3.758  -0.025  24.579  0.00  0.00    +0.093 S 
ATOM     19  O   UNL     1      -3.472  -0.033  23.806  0.00  0.00    -0.148 OA
ATOM     20  O   UNL     1      -4.043  -0.016  25.353  0.00  0.00    -0.148 OA
BRANCH  18  21
ATOM     21  C   UNL     1      -3.712  -0.849  24.606  0.00  0.00    +0.127 A 
ATOM     22  C   UNL     1      -3.465  -1.226  25.296  0.00  0.00    +0.021 A 
ATOM     23  C   UNL     1      -3.420  -2.050  25.322  0.00  0.00    +0.013 A 
ATOM     24  C   UNL     1      -3.622  -2.495  24.658  0.00  0.00    +0.058 A 
ATOM     25 CL   UNL     1      -3.577  -3.318  24.684  0.00  0.00    -0.082 Cl
ATOM     26  C   UNL     1      -3.869  -2.117  23.967  0.00  0.00    +0.013 A 
ATOM     27  C   UNL     1      -3.914  -1.294  23.941  0.00  0.00    +0.021 A 
ENDBRANCH  18  21
ENDBRANCH  17  18
ENDBRANCH  16  17
TORSDOF 6
ENDMDL
MODEL 4
REMARK VINA RESULT:     -11.3      2.638      4.871
REMARK  Name = 
REMARK  6 active torsions:
REMARK  status: ('A' for Active; 'I' for Inactive)
REMARK    1  A    between atoms: O_2  and  C_3
REMARK    2  A    between atoms: C_3  and  C_4
REMARK    3  A    between atoms: C_4  and  C_5
REMARK    4  A    between atoms: C_16  and  N_17
REMARK    5  A    between atoms: N_17  and  S_18
REMARK    6  A    between atoms: S_18  and  C_21
REMARK                            x       y       z     vdW  Elec       q    Type
REMARK                         _______ _______ _______ _____ _____    ______ ____
ROOT
ATOM      5  C   UNL     1      -1.979  -0.593  25.403  0.00  0.00    +0.228 C 
ATOM      6  O   UNL     1      -1.778   0.205  25.332  0.00  0.00    -0.275 OA
ATOM      7  N   UNL     1      -2.720  -0.855  25.153  0.00  0.00    -0.279 N 
ATOM      8  C   UNL     1      -3.349  -1.384  24.999  0.00  0.00    +0.095 C 
ATOM      9  C   UNL     1      -4.004  -0.755  24.611  0.00  0.00    +0.043 C 
ATOM     10  C   UNL     1      -4.643  -0.374  24.279  0.00  0.00    +0.011 C 
ATOM     11  C   UNL     1      -4.000  -0.207  24.507  0.00  0.00    +0.058 C 
ATOM     12  C   UNL     1      -3.378  -0.828  24.880  0.00  0.00    +0.099 C 
ATOM     13  C   UNL     1      -3.432   0.509  24.601  0.00  0.00    +0.041 A 
ATOM     14  C   UNL     1      -3.396   1.321  24.459  0.00  0.00    +0.014 A 
ATOM     15  C   UNL     1      -2.715   1.744  24.655  0.00  0.00    +0.024 A 
ATOM     16  C   UNL     1      -2.070   1.355  24.992  0.00  0.00    +0.147 A 
ATOM     28  C   UNL     1      -2.106   0.543  25.133  0.00  0.00    +0.277 A 
ATOM     29  O   UNL     1      -1.365   0.393  25.463  0.00  0.00    -0.266 OA
ATOM     30  N   UNL     1      -2.787   0.120  24.938  0.00  0.00    -0.298 N 
ATOM     31  C   UNL     1      -3.403  -0.012  24.713  0.00  0.00    +0.110 C 
ENDROOT
BRANCH   5   4
ATOM      4  C   UNL     1      -1.440  -1.127  25.725  0.00  0.00    +0.117 C 
BRANCH   4   3
ATOM      3  C   UNL     1      -0.825  -1.424  25.262  0.00  0.00    +0.152 C 
BRANCH   3   2
ATOM      1  C   UNL     1       0.128  -2.487  25.229  0.00  0.00    +0.174 C 
ATOM      2  O   UNL     1      -0.206  -1.840  25.614  0.00  0.00    -0.351 OA
ENDBRANCH   3   2
ENDBRANCH   4   3
ENDBRANCH   5   4
BRANCH  16  17
ATOM     17  N   UNL     1      -1.390   1.778  25.187  0.00  0.00    -0.092 NA
BRANCH  17  18
ATOM     18  S   UNL     1      -1.395   2.602  25.163  0.00  0.00    +0.093 S 
ATOM     19  O   UNL     1      -1.597   2.624  25.962  0.00  0.00    -0.148 OA
ATOM     20  O   UNL     1      -1.194   2.581  24.364  0.00  0.00    -0.148 OA
BRANCH  18  21
ATOM     21  C   UNL     1      -1.401   3.428  25.139  0.00  0.00    +0.127 A 
ATOM     22  C   UNL     1      -1.995   3.848  25.528  0.00  0.00    +0.021 A 
ATOM     23  C   UNL     1      -2.000   4.672  25.503  0.00  0.00    +0.013 A 
ATOM     24  C   UNL     1      -1.411   5.076  25.089  0.00  0.00    +0.058 A 
ATOM     25 CL   UNL     1      -1.416   5.901  25.065  0.00  0.00    -0.082 Cl
ATOM     26  C   UNL     1      -0.817   4.656  24.700  0.00  0.00    +0.013 A 
ATOM     27  C   UNL     1      -0.812   3.831  24.725  0.00  0.00    +0.021 A 
ENDBRANCH  18  21
ENDBRANCH  17  18
ENDBRANCH  16  17
TORSDOF 6
ENDMDL
