REMARK  Name = 
REMARK  5 active torsions:
REMARK  status: ('A' for Active; 'I' for Inactive)
REMARK    1  A    between atoms: O_2  and  C_3
REMARK    2  A    between atoms: C_6  and  C_9
REMARK    3  A    between atoms: N_11  and  C_12
REMARK    4  A    between atoms: N_20  and  S_22
REMARK    5  A    between atoms: S_22  and  C_25
REMARK                            x       y       z     vdW  Elec       q    Type
REMARK                         _______ _______ _______ _____ _____    ______ ____
ROOT
ATOM     12  C   UNL     1      -1.131  -1.315   0.000  0.00  0.00    +0.130 A 
ATOM     13  C   UNL     1      -1.167  -0.335   0.000  0.00  0.00    +0.023 A 
ATOM     14  C   UNL     1      -0.397  -0.039   0.000  0.00  0.00    +0.014 A 
ATOM     15  C   UNL     1       0.244  -0.558   0.000  0.00  0.00    +0.041 A 
ATOM     16  C   UNL     1       1.163  -0.557   0.000  0.00  0.00    +0.056 C 
ATOM     17  C   UNL     1       1.713  -0.121   0.000  0.00  0.00    +0.011 C 
ATOM     18  C   UNL     1       1.582  -0.925   0.000  0.00  0.00    +0.041 C 
ATOM     19  C   UNL     1       1.629  -1.912   0.000  0.00  0.00    +0.098 C 
ATOM     20  N   UNL     1       0.813  -2.091   0.000  0.00  0.00    -0.155 NA
ATOM     21  C   UNL     1       1.225  -1.510   0.000  0.00  0.00    +0.102 C 
ATOM     30  C   UNL     1       0.622  -0.936   0.000  0.00  0.00    +0.110 C 
ATOM     31  N   UNL     1       0.115  -1.373   0.000  0.00  0.00    -0.298 N 
ATOM     32  C   UNL     1      -0.655  -1.669   0.000  0.00  0.00    +0.276 A 
ATOM     33  O   UNL     1      -0.804  -2.640   0.000  0.00  0.00    -0.266 OA
ENDROOT
BRANCH  12  11
ATOM      9  C   UNL     1      -2.769  -0.752   0.000  0.00  0.00    +0.269 C 
ATOM     10  O   UNL     1      -3.055   0.064   0.000  0.00  0.00    -0.268 OA
ATOM     11  N   UNL     1      -2.079  -1.339   0.000  0.00  0.00    -0.171 NA
BRANCH   9   6
ATOM      3  C   UNL     1      -5.018  -1.813   0.000  0.00  0.00    +0.139 A 
ATOM      4  C   UNL     1      -4.889  -0.999   0.000  0.00  0.00    +0.037 A 
ATOM      5  C   UNL     1      -4.119  -0.703   0.000  0.00  0.00    +0.008 A 
ATOM      6  C   UNL     1      -3.478  -1.222   0.000  0.00  0.00    +0.056 A 
ATOM      7  C   UNL     1      -3.606  -2.037   0.000  0.00  0.00    +0.008 A 
ATOM      8  C   UNL     1      -4.377  -2.333   0.000  0.00  0.00    +0.037 A 
BRANCH   3   2
ATOM      1  C   UNL     1      -5.917  -2.924   0.000  0.00  0.00    +0.252 C 
ATOM      2  O   UNL     1      -5.788  -2.109   0.000  0.00  0.00    -0.471 OA
ENDBRANCH   3   2
ENDBRANCH   9   6
ENDBRANCH  12  11
BRANCH  20  22
ATOM     22  S   UNL     1       0.203  -2.695   0.000  0.00  0.00    +0.069 S 
ATOM     23  O   UNL     1       0.684  -3.452   0.000  0.00  0.00    -0.152 OA
ATOM     24  O   UNL     1      -0.394  -3.280   0.000  0.00  0.00    -0.152 OA
BRANCH  22  25
ATOM     25  C   UNL     1      -0.331  -1.859   0.000  0.00  0.00    +0.152 A 
ATOM     26  C   UNL     1      -0.042  -1.086   0.000  0.00  0.00    +0.027 A 
ATOM     27  C   UNL     1      -0.688  -0.573   0.000  0.00  0.00    +0.009 A 
ATOM     28  C   UNL     1      -1.376  -1.029   0.000  0.00  0.00    +0.037 A 
ATOM     29  S   UNL     1      -1.155  -1.824   0.000  0.00  0.00    -0.067 S 
ENDBRANCH  22  25
ENDBRANCH  20  22
TORSDOF 5
