MODEL 1
REMARK VINA RESULT:     -10.3      0.000      0.000
REMARK  Name = 
REMARK  8 active torsions:
REMARK  status: ('A' for Active; 'I' for Inactive)
REMARK    1  A    between atoms: O_2  and  C_3
REMARK    2  A    between atoms: C_3  and  C_4
REMARK    3  A    between atoms: N_8  and  C_9
REMARK    4  A    between atoms: C_12  and  C_13
REMARK    5  A    between atoms: C_16  and  C_17
REMARK    6  A    between atoms: C_17  and  N_18
REMARK    7  A    between atoms: N_18  and  S_19
REMARK    8  A    between atoms: S_19  and  C_22
REMARK                            x       y       z     vdW  Elec       q    Type
REMARK                         _______ _______ _______ _____ _____    ______ ____
ROOT
ATOM      9  C   UNL     1      -3.698   2.483  24.438  0.00  0.00    +0.120 C 
ATOM     10  C   UNL     1      -4.082   3.169  24.689  0.00  0.00    +0.198 C 
ATOM     11  O   UNL     1      -3.898   3.939  24.459  0.00  0.00    -0.219 OA
ATOM     12  C   UNL     1      -4.683   2.949  25.210  0.00  0.00    +0.180 C 
ATOM     15  O   UNL     1      -4.670   2.128  25.281  0.00  0.00    -0.350 OA
ATOM     16  C   UNL     1      -4.061   1.840  24.805  0.00  0.00    +0.152 C 
ENDROOT
BRANCH   9   8
ATOM      4  C   UNL     1      -2.267   2.547  24.108  0.00  0.00    +0.087 C 
ATOM      5  C   UNL     1      -1.823   2.467  23.417  0.00  0.00    +0.020 C 
ATOM      6  C   UNL     1      -2.345   2.318  22.795  0.00  0.00    +0.019 C 
ATOM      7  C   UNL     1      -3.110   2.306  23.102  0.00  0.00    +0.072 C 
ATOM      8  N   UNL     1      -3.062   2.447  23.914  0.00  0.00    -0.269 NA
BRANCH   4   3
ATOM      3  C   UNL     1      -1.967   2.699  24.862  0.00  0.00    +0.158 C 
BRANCH   3   2
ATOM      1  C   UNL     1      -0.852   2.893  25.734  0.00  0.00    +0.174 C 
ATOM      2  O   UNL     1      -1.152   2.754  24.978  0.00  0.00    -0.350 OA
ENDBRANCH   3   2
ENDBRANCH   4   3
ENDBRANCH   9   8
BRANCH  12  13
ATOM     13  C   UNL     1      -5.204   3.460  25.592  0.00  0.00    +0.214 C 
ATOM     14  O   UNL     1      -5.755   3.163  26.130  0.00  0.00    -0.218 OA
ENDBRANCH  12  13
BRANCH  16  17
ATOM     17  C   UNL     1      -3.852   1.047  24.711  0.00  0.00    +0.146 C 
BRANCH  17  18
ATOM     18  N   UNL     1      -4.297   0.457  25.076  0.00  0.00    -0.075 NA
BRANCH  18  19
ATOM     19  S   UNL     1      -4.117  -0.338  24.945  0.00  0.00    +0.077 S 
ATOM     20  O   UNL     1      -3.551  -0.308  25.544  0.00  0.00    -0.152 OA
ATOM     21  O   UNL     1      -4.684  -0.367  24.345  0.00  0.00    -0.152 OA
BRANCH  19  22
ATOM     22  C   UNL     1      -3.937  -1.132  24.814  0.00  0.00    +0.124 A 
ATOM     23  C   UNL     1      -4.170  -1.497  24.111  0.00  0.00    +0.021 A 
ATOM     24  C   UNL     1      -3.990  -2.291  23.980  0.00  0.00    +0.013 A 
ATOM     25  C   UNL     1      -3.577  -2.720  24.551  0.00  0.00    +0.058 A 
ATOM     26 CL   UNL     1      -3.397  -3.515  24.419  0.00  0.00    -0.082 Cl
ATOM     27  C   UNL     1      -3.343  -2.355  25.253  0.00  0.00    +0.013 A 
ATOM     28  C   UNL     1      -3.524  -1.561  25.384  0.00  0.00    +0.021 A 
ENDBRANCH  19  22
ENDBRANCH  18  19
ENDBRANCH  17  18
ENDBRANCH  16  17
TORSDOF 8
ENDMDL
MODEL 2
REMARK VINA RESULT:     -10.0      0.971      2.359
REMARK  Name = 
REMARK  8 active torsions:
REMARK  status: ('A' for Active; 'I' for Inactive)
REMARK    1  A    between atoms: O_2  and  C_3
REMARK    2  A    between atoms: C_3  and  C_4
REMARK    3  A    between atoms: N_8  and  C_9
REMARK    4  A    between atoms: C_12  and  C_13
REMARK    5  A    between atoms: C_16  and  C_17
REMARK    6  A    between atoms: C_17  and  N_18
REMARK    7  A    between atoms: N_18  and  S_19
REMARK    8  A    between atoms: S_19  and  C_22
REMARK                            x       y       z     vdW  Elec       q    Type
REMARK                         _______ _______ _______ _____ _____    ______ ____
ROOT
ATOM      9  C   UNL     1      -2.249   2.440  24.668  0.00  0.00    +0.120 C 
ATOM     10  C   UNL     1      -1.713   2.968  25.005  0.00  0.00    +0.198 C 
ATOM     11  O   UNL     1      -1.667   3.777  24.849  0.00  0.00    -0.219 OA
ATOM     12  C   UNL     1      -1.231   2.546  25.525  0.00  0.00    +0.180 C 
ATOM     15  O   UNL     1      -1.469   1.757  25.509  0.00  0.00    -0.350 OA
ATOM     16  C   UNL     1      -2.098   1.691  24.979  0.00  0.00    +0.152 C 
ENDROOT
BRANCH   9   8
ATOM      4  C   UNL     1      -3.585   2.918  24.287  0.00  0.00    +0.087 C 
ATOM      5  C   UNL     1      -3.985   3.027  23.573  0.00  0.00    +0.020 C 
ATOM      6  C   UNL     1      -3.479   2.803  22.960  0.00  0.00    +0.019 C 
ATOM      7  C   UNL     1      -2.767   2.556  23.296  0.00  0.00    +0.072 C 
ATOM      8  N   UNL     1      -2.833   2.627  24.116  0.00  0.00    -0.269 NA
BRANCH   4   3
ATOM      3  C   UNL     1      -3.886   3.074  25.039  0.00  0.00    +0.158 C 
BRANCH   3   2
ATOM      1  C   UNL     1      -4.998   3.393  25.878  0.00  0.00    +0.174 C 
ATOM      2  O   UNL     1      -4.664   3.336  25.126  0.00  0.00    -0.350 OA
ENDBRANCH   3   2
ENDBRANCH   4   3
ENDBRANCH   9   8
BRANCH  12  13
ATOM     13  C   UNL     1      -0.618   2.859  25.980  0.00  0.00    +0.214 C 
ATOM     14  O   UNL     1      -0.044   2.359  26.297  0.00  0.00    -0.218 OA
ENDBRANCH  12  13
BRANCH  16  17
ATOM     17  C   UNL     1      -2.505   0.998  24.794  0.00  0.00    +0.146 C 
BRANCH  17  18
ATOM     18  N   UNL     1      -2.294   0.287  25.153  0.00  0.00    -0.075 NA
BRANCH  18  19
ATOM     19  S   UNL     1      -2.667  -0.416  24.930  0.00  0.00    +0.077 S 
ATOM     20  O   UNL     1      -3.265  -0.272  25.479  0.00  0.00    -0.152 OA
ATOM     21  O   UNL     1      -2.067  -0.559  24.381  0.00  0.00    -0.152 OA
BRANCH  19  22
ATOM     22  C   UNL     1      -3.039  -1.117  24.708  0.00  0.00    +0.124 A 
ATOM     23  C   UNL     1      -3.715  -1.093  24.235  0.00  0.00    +0.021 A 
ATOM     24  C   UNL     1      -4.088  -1.794  24.013  0.00  0.00    +0.013 A 
ATOM     25  C   UNL     1      -3.785  -2.519  24.263  0.00  0.00    +0.058 A 
ATOM     26 CL   UNL     1      -4.159  -3.221  24.041  0.00  0.00    -0.082 Cl
ATOM     27  C   UNL     1      -3.110  -2.543  24.737  0.00  0.00    +0.013 A 
ATOM     28  C   UNL     1      -2.737  -1.842  24.959  0.00  0.00    +0.021 A 
ENDBRANCH  19  22
ENDBRANCH  18  19
ENDBRANCH  17  18
ENDBRANCH  16  17
TORSDOF 8
ENDMDL
MODEL 3
REMARK VINA RESULT:      -8.7      2.372      4.916
REMARK  Name = 
REMARK  8 active torsions:
REMARK  status: ('A' for Active; 'I' for Inactive)
REMARK    1  A    between atoms: O_2  and  C_3
REMARK    2  A    between atoms: C_3  and  C_4
REMARK    3  A    between atoms: N_8  and  C_9
REMARK    4  A    between atoms: C_12  and  C_13
REMARK    5  A    between atoms: C_16  and  C_17
REMARK    6  A    between atoms: C_17  and  N_18
REMARK    7  A    between atoms: N_18  and  S_19
REMARK    8  A    between atoms: S_19  and  C_22
REMARK                            x       y       z     vdW  Elec       q    Type
REMARK                         _______ _______ _______ _____ _____    ______ ____
ROOT
ATOM      9  C   UNL     1      -1.908  -0.630  24.919  0.00  0.00    +0.120 C 
ATOM     10  C   UNL     1      -1.188  -0.921  24.642  0.00  0.00    +0.198 C 
ATOM     11  O   UNL     1      -0.872  -1.666  24.800  0.00  0.00    -0.219 OA
ATOM     12  C   UNL     1      -0.838  -0.335  24.177  0.00  0.00    +0.180 C 
ATOM     15  O   UNL     1      -1.342   0.317  24.169  0.00  0.00    -0.350 OA
ATOM     16  C   UNL     1      -2.003   0.135  24.627  0.00  0.00    +0.152 C 
ENDROOT
BRANCH   9   8
ATOM      4  C   UNL     1      -3.030  -1.551  25.152  0.00  0.00    +0.087 C 
ATOM      5  C   UNL     1      -3.429  -1.828  25.819  0.00  0.00    +0.020 C 
ATOM      6  C   UNL     1      -3.084  -1.483  26.484  0.00  0.00    +0.019 C 
ATOM      7  C   UNL     1      -2.472  -0.992  26.228  0.00  0.00    +0.072 C 
ATOM      8  N   UNL     1      -2.439  -1.034  25.405  0.00  0.00    -0.269 NA
BRANCH   4   3
ATOM      3  C   UNL     1      -3.194  -1.754  24.369  0.00  0.00    +0.158 C 
BRANCH   3   2
ATOM      1  C   UNL     1      -4.153  -2.335  23.483  0.00  0.00    +0.174 C 
ATOM      2  O   UNL     1      -3.751  -2.340  24.204  0.00  0.00    -0.350 OA
ENDBRANCH   3   2
ENDBRANCH   4   3
ENDBRANCH   9   8
BRANCH  12  13
ATOM     13  C   UNL     1      -0.112  -0.392  23.790  0.00  0.00    +0.214 C 
ATOM     14  O   UNL     1       0.206   0.268  23.411  0.00  0.00    -0.218 OA
ENDBRANCH  12  13
BRANCH  16  17
ATOM     17  C   UNL     1      -2.647   0.631  24.769  0.00  0.00    +0.146 C 
BRANCH  17  18
ATOM     18  N   UNL     1      -2.661   1.391  24.450  0.00  0.00    -0.075 NA
BRANCH  18  19
ATOM     19  S   UNL     1      -3.260   1.918  24.661  0.00  0.00    +0.077 S 
ATOM     20  O   UNL     1      -2.790   2.206  25.274  0.00  0.00    -0.152 OA
ATOM     21  O   UNL     1      -3.730   1.628  24.047  0.00  0.00    -0.152 OA
BRANCH  19  22
ATOM     22  C   UNL     1      -3.859   2.444  24.872  0.00  0.00    +0.124 A 
ATOM     23  C   UNL     1      -4.603   2.157  25.086  0.00  0.00    +0.021 A 
ATOM     24  C   UNL     1      -5.202   2.683  25.297  0.00  0.00    +0.013 A 
ATOM     25  C   UNL     1      -5.058   3.495  25.295  0.00  0.00    +0.058 A 
ATOM     26 CL   UNL     1      -5.657   4.022  25.507  0.00  0.00    -0.082 Cl
ATOM     27  C   UNL     1      -4.314   3.782  25.082  0.00  0.00    +0.013 A 
ATOM     28  C   UNL     1      -3.715   3.256  24.870  0.00  0.00    +0.021 A 
ENDBRANCH  19  22
ENDBRANCH  18  19
ENDBRANCH  17  18
ENDBRANCH  16  17
TORSDOF 8
ENDMDL
MODEL 4
REMARK VINA RESULT:      -8.7      2.368      4.484
REMARK  Name = 
REMARK  8 active torsions:
REMARK  status: ('A' for Active; 'I' for Inactive)
REMARK    1  A    between atoms: O_2  and  C_3
REMARK    2  A    between atoms: C_3  and  C_4
REMARK    3  A    between atoms: N_8  and  C_9
REMARK    4  A    between atoms: C_12  and  C_13
REMARK    5  A    between atoms: C_16  and  C_17
REMARK    6  A    between atoms: C_17  and  N_18
REMARK    7  A    between atoms: N_18  and  S_19
REMARK    8  A    between atoms: S_19  and  C_22
REMARK                            x       y       z     vdW  Elec       q    Type
REMARK                         _______ _______ _______ _____ _____    ______ ____
ROOT
ATOM      9  C   UNL     1      -2.572  -1.206  24.936  0.00  0.00    +0.120 C 
ATOM     10  C   UNL     1      -2.601  -1.990  24.680  0.00  0.00    +0.198 C 
ATOM     11  O   UNL     1      -2.018  -2.561  24.799  0.00  0.00    -0.219 OA
ATOM     12  C   UNL     1      -3.317  -2.103  24.285  0.00  0.00    +0.180 C 
ATOM     15  O   UNL     1      -3.729  -1.389  24.296  0.00  0.00    -0.350 OA
ATOM     16  C   UNL     1      -3.269  -0.835  24.698  0.00  0.00    +0.152 C 
ENDROOT
BRANCH   9   8
ATOM      4  C   UNL     1      -1.271  -0.529  25.028  0.00  0.00    +0.087 C 
ATOM      5  C   UNL     1      -0.805  -0.242  25.646  0.00  0.00    +0.020 C 
ATOM      6  C   UNL     1      -1.200  -0.391  26.355  0.00  0.00    +0.019 C 
ATOM      7  C   UNL     1      -1.911  -0.771  26.175  0.00  0.00    +0.072 C 
ATOM      8  N   UNL     1      -1.954  -0.856  25.355  0.00  0.00    -0.269 NA
BRANCH   4   3
ATOM      3  C   UNL     1      -1.085  -0.495  24.225  0.00  0.00    +0.158 C 
BRANCH   3   2
ATOM      1  C   UNL     1      -0.161  -0.161  23.188  0.00  0.00    +0.174 C 
ATOM      2  O   UNL     1      -0.398  -0.112  23.977  0.00  0.00    -0.350 OA
ENDBRANCH   3   2
ENDBRANCH   4   3
ENDBRANCH   9   8
BRANCH  12  13
ATOM     13  C   UNL     1      -3.574  -2.806  23.939  0.00  0.00    +0.214 C 
ATOM     14  O   UNL     1      -4.338  -2.858  23.632  0.00  0.00    -0.218 OA
ENDBRANCH  12  13
BRANCH  16  17
ATOM     17  C   UNL     1      -3.471  -0.047  24.839  0.00  0.00    +0.146 C 
BRANCH  17  18
ATOM     18  N   UNL     1      -4.196   0.246  24.580  0.00  0.00    -0.075 NA
BRANCH  18  19
ATOM     19  S   UNL     1      -4.429   1.011  24.783  0.00  0.00    +0.077 S 
ATOM     20  O   UNL     1      -4.043   1.305  24.116  0.00  0.00    -0.152 OA
ATOM     21  O   UNL     1      -4.816   0.717  25.450  0.00  0.00    -0.152 OA
BRANCH  19  22
ATOM     22  C   UNL     1      -4.662   1.776  24.985  0.00  0.00    +0.124 A 
ATOM     23  C   UNL     1      -4.126   2.401  24.919  0.00  0.00    +0.021 A 
ATOM     24  C   UNL     1      -4.359   3.166  25.121  0.00  0.00    +0.013 A 
ATOM     25  C   UNL     1      -5.126   3.307  25.389  0.00  0.00    +0.058 A 
ATOM     26 CL   UNL     1      -5.358   4.073  25.591  0.00  0.00    -0.082 Cl
ATOM     27  C   UNL     1      -5.662   2.682  25.454  0.00  0.00    +0.013 A 
ATOM     28  C   UNL     1      -5.429   1.917  25.252  0.00  0.00    +0.021 A 
ENDBRANCH  19  22
ENDBRANCH  18  19
ENDBRANCH  17  18
ENDBRANCH  16  17
TORSDOF 8
ENDMDL
MODEL 5
REMARK VINA RESULT:      -8.6      2.346      3.881
REMARK  Name = 
REMARK  8 active torsions:
REMARK  status: ('A' for Active; 'I' for Inactive)
REMARK    1  A    between atoms: O_2  and  C_3
REMARK    2  A    between atoms: C_3  and  C_4
REMARK    3  A    between atoms: N_8  and  C_9
REMARK    4  A    between atoms: C_12  and  C_13
REMARK    5  A    between atoms: C_16  and  C_17
REMARK    6  A    between atoms: C_17  and  N_18
REMARK    7  A    between atoms: N_18  and  S_19
REMARK    8  A    between atoms: S_19  and  C_22
REMARK                            x       y       z     vdW  Elec       q    Type
REMARK                         _______ _______ _______ _____ _____    ______ ____
ROOT
ATOM      9  C   UNL     1      -0.530   1.829  24.274  0.00  0.00    +0.120 C 
ATOM     10  C   UNL     1       0.136   1.418  24.013  0.00  0.00    +0.198 C 
ATOM     11  O   UNL     1       0.905   1.714  23.973  0.00  0.00    -0.219 OA
ATOM     12  C   UNL     1      -0.103   0.657  23.797  0.00  0.00    +0.180 C 
ATOM     15  O   UNL     1      -0.915   0.600  23.926  0.00  0.00    -0.350 OA
ATOM     16  C   UNL     1      -1.179   1.324  24.221  0.00  0.00    +0.152 C 
ENDROOT
BRANCH   9   8
ATOM      4  C   UNL     1      -0.366   2.862  25.308  0.00  0.00    +0.087 C 
ATOM      5  C   UNL     1      -0.449   3.683  25.331  0.00  0.00    +0.020 C 
ATOM      6  C   UNL     1      -0.677   3.937  24.580  0.00  0.00    +0.019 C 
ATOM      7  C   UNL     1      -0.735   3.274  24.093  0.00  0.00    +0.072 C 
ATOM      8  N   UNL     1      -0.543   2.609  24.543  0.00  0.00    -0.269 NA
BRANCH   4   3
ATOM      3  C   UNL     1      -0.144   2.379  25.939  0.00  0.00    +0.158 C 
BRANCH   3   2
ATOM      1  C   UNL     1       0.282   2.236  27.295  0.00  0.00    +0.174 C 
ATOM      2  O   UNL     1       0.014   2.712  26.677  0.00  0.00    -0.350 OA
ENDBRANCH   3   2
ENDBRANCH   4   3
ENDBRANCH   9   8
BRANCH  12  13
ATOM     13  C   UNL     1       0.385   0.061  23.504  0.00  0.00    +0.214 C 
ATOM     14  O   UNL     1       0.222  -0.728  23.680  0.00  0.00    -0.218 OA
ENDBRANCH  12  13
BRANCH  16  17
ATOM     17  C   UNL     1      -1.956   1.509  24.427  0.00  0.00    +0.146 C 
BRANCH  17  18
ATOM     18  N   UNL     1      -2.565   0.979  24.260  0.00  0.00    -0.075 NA
BRANCH  18  19
ATOM     19  S   UNL     1      -3.346   1.176  24.441  0.00  0.00    +0.077 S 
ATOM     20  O   UNL     1      -3.479   1.372  23.652  0.00  0.00    -0.152 OA
ATOM     21  O   UNL     1      -3.212   0.980  25.232  0.00  0.00    -0.152 OA
BRANCH  19  22
ATOM     22  C   UNL     1      -4.126   1.373  24.622  0.00  0.00    +0.124 A 
ATOM     23  C   UNL     1      -4.652   0.788  24.870  0.00  0.00    +0.021 A 
ATOM     24  C   UNL     1      -5.432   0.985  25.051  0.00  0.00    +0.013 A 
ATOM     25  C   UNL     1      -5.687   1.766  24.984  0.00  0.00    +0.058 A 
ATOM     26 CL   UNL     1      -6.468   1.963  25.165  0.00  0.00    -0.082 Cl
ATOM     27  C   UNL     1      -5.160   2.352  24.737  0.00  0.00    +0.013 A 
ATOM     28  C   UNL     1      -4.380   2.155  24.556  0.00  0.00    +0.021 A 
ENDBRANCH  19  22
ENDBRANCH  18  19
ENDBRANCH  17  18
ENDBRANCH  16  17
TORSDOF 8
ENDMDL
MODEL 6
REMARK VINA RESULT:      -7.7     16.485     18.868
REMARK  Name = 
REMARK  8 active torsions:
REMARK  status: ('A' for Active; 'I' for Inactive)
REMARK    1  A    between atoms: O_2  and  C_3
REMARK    2  A    between atoms: C_3  and  C_4
REMARK    3  A    between atoms: N_8  and  C_9
REMARK    4  A    between atoms: C_12  and  C_13
REMARK    5  A    between atoms: C_16  and  C_17
REMARK    6  A    between atoms: C_17  and  N_18
REMARK    7  A    between atoms: N_18  and  S_19
REMARK    8  A    between atoms: S_19  and  C_22
REMARK                            x       y       z     vdW  Elec       q    Type
REMARK                         _______ _______ _______ _____ _____    ______ ____
ROOT
ATOM      9  C   UNL     1      11.878   8.272  19.887  0.00  0.00    +0.120 C 
ATOM     10  C   UNL     1      11.299   8.414  19.317  0.00  0.00    +0.198 C 
ATOM     11  O   UNL     1      10.533   8.685  19.460  0.00  0.00    -0.219 OA
ATOM     12  C   UNL     1      11.620   8.236  18.577  0.00  0.00    +0.180 C 
ATOM     15  O   UNL     1      12.397   7.985  18.691  0.00  0.00    -0.350 OA
ATOM     16  C   UNL     1      12.556   8.008  19.501  0.00  0.00    +0.152 C 
ENDROOT
BRANCH   9   8
ATOM      4  C   UNL     1      11.515   7.815  21.236  0.00  0.00    +0.087 C 
ATOM      5  C   UNL     1      11.521   8.153  21.989  0.00  0.00    +0.020 C 
ATOM      6  C   UNL     1      11.802   8.926  21.918  0.00  0.00    +0.019 C 
ATOM      7  C   UNL     1      11.969   9.065  21.122  0.00  0.00    +0.072 C 
ATOM      8  N   UNL     1      11.792   8.378  20.701  0.00  0.00    -0.269 NA
BRANCH   4   3
ATOM      3  C   UNL     1      11.275   7.047  21.052  0.00  0.00    +0.158 C 
BRANCH   3   2
ATOM      1  C   UNL     1      11.022   5.746  21.584  0.00  0.00    +0.174 C 
ATOM      2  O   UNL     1      10.949   6.566  21.637  0.00  0.00    -0.350 OA
ENDBRANCH   3   2
ENDBRANCH   4   3
ENDBRANCH   9   8
BRANCH  12  13
ATOM     13  C   UNL     1      11.232   8.298  17.853  0.00  0.00    +0.214 C 
ATOM     14  O   UNL     1      11.466   7.826  17.218  0.00  0.00    -0.218 OA
ENDBRANCH  12  13
BRANCH  16  17
ATOM     17  C   UNL     1      13.270   7.801  19.861  0.00  0.00    +0.146 C 
BRANCH  17  18
ATOM     18  N   UNL     1      13.919   7.589  19.399  0.00  0.00    -0.075 NA
BRANCH  18  19
ATOM     19  S   UNL     1      14.616   7.334  19.759  0.00  0.00    +0.077 S 
ATOM     20  O   UNL     1      14.346   6.555  19.729  0.00  0.00    -0.152 OA
ATOM     21  O   UNL     1      14.886   8.113  19.788  0.00  0.00    -0.152 OA
BRANCH  19  22
ATOM     22  C   UNL     1      15.313   7.078  20.118  0.00  0.00    +0.124 A 
ATOM     23  C   UNL     1      15.396   7.128  20.938  0.00  0.00    +0.021 A 
ATOM     24  C   UNL     1      16.093   6.872  21.297  0.00  0.00    +0.013 A 
ATOM     25  C   UNL     1      16.707   6.568  20.838  0.00  0.00    +0.058 A 
ATOM     26 CL   UNL     1      17.404   6.313  21.199  0.00  0.00    -0.082 Cl
ATOM     27  C   UNL     1      16.624   6.519  20.019  0.00  0.00    +0.013 A 
ATOM     28  C   UNL     1      15.927   6.774  19.659  0.00  0.00    +0.021 A 
ENDBRANCH  19  22
ENDBRANCH  18  19
ENDBRANCH  17  18
ENDBRANCH  16  17
TORSDOF 8
ENDMDL
MODEL 7
REMARK VINA RESULT:      -7.2     16.359     18.747
REMARK  Name = 
REMARK  8 active torsions:
REMARK  status: ('A' for Active; 'I' for Inactive)
REMARK    1  A    between atoms: O_2  and  C_3
REMARK    2  A    between atoms: C_3  and  C_4
REMARK    3  A    between atoms: N_8  and  C_9
REMARK    4  A    between atoms: C_12  and  C_13
REMARK    5  A    between atoms: C_16  and  C_17
REMARK    6  A    between atoms: C_17  and  N_18
REMARK    7  A    between atoms: N_18  and  S_19
REMARK    8  A    between atoms: S_19  and  C_22
REMARK                            x       y       z     vdW  Elec       q    Type
REMARK                         _______ _______ _______ _____ _____    ______ ____
ROOT
ATOM      9  C   UNL     1      13.260   7.867  20.995  0.00  0.00    +0.120 C 
ATOM     10  C   UNL     1      13.922   7.588  21.400  0.00  0.00    +0.198 C 
ATOM     11  O   UNL     1      14.000   7.530  22.220  0.00  0.00    -0.219 OA
ATOM     12  C   UNL     1      14.492   7.377  20.842  0.00  0.00    +0.180 C 
ATOM     15  O   UNL     1      14.182   7.526  20.093  0.00  0.00    -0.350 OA
ATOM     16  C   UNL     1      13.421   7.829  20.188  0.00  0.00    +0.152 C 
ENDROOT
BRANCH   9   8
ATOM      4  C   UNL     1      11.921   7.669  21.569  0.00  0.00    +0.087 C 
ATOM      5  C   UNL     1      11.342   8.166  21.884  0.00  0.00    +0.020 C 
ATOM      6  C   UNL     1      11.623   8.941  21.848  0.00  0.00    +0.019 C 
ATOM      7  C   UNL     1      12.375   8.924  21.510  0.00  0.00    +0.072 C 
ATOM      8  N   UNL     1      12.560   8.138  21.338  0.00  0.00    -0.269 NA
BRANCH   4   3
ATOM      3  C   UNL     1      11.870   6.849  21.498  0.00  0.00    +0.158 C 
BRANCH   3   2
ATOM      1  C   UNL     1      11.112   5.643  21.607  0.00  0.00    +0.174 C 
ATOM      2  O   UNL     1      11.156   6.466  21.653  0.00  0.00    -0.350 OA
ENDBRANCH   3   2
ENDBRANCH   4   3
ENDBRANCH   9   8
BRANCH  12  13
ATOM     13  C   UNL     1      15.240   7.072  21.006  0.00  0.00    +0.214 C 
ATOM     14  O   UNL     1      15.882   7.276  20.529  0.00  0.00    -0.218 OA
ENDBRANCH  12  13
BRANCH  16  17
ATOM     17  C   UNL     1      12.909   8.054  19.580  0.00  0.00    +0.146 C 
BRANCH  17  18
ATOM     18  N   UNL     1      13.173   8.059  18.799  0.00  0.00    -0.075 NA
BRANCH  18  19
ATOM     19  S   UNL     1      12.657   8.266  18.189  0.00  0.00    +0.077 S 
ATOM     20  O   UNL     1      12.462   7.472  18.085  0.00  0.00    -0.152 OA
ATOM     21  O   UNL     1      12.852   9.061  18.294  0.00  0.00    -0.152 OA
BRANCH  19  22
ATOM     22  C   UNL     1      12.141   8.473  17.580  0.00  0.00    +0.124 A 
ATOM     23  C   UNL     1      12.435   8.813  16.888  0.00  0.00    +0.021 A 
ATOM     24  C   UNL     1      11.919   9.020  16.279  0.00  0.00    +0.013 A 
ATOM     25  C   UNL     1      11.109   8.887  16.361  0.00  0.00    +0.058 A 
ATOM     26 CL   UNL     1      10.593   9.094  15.751  0.00  0.00    -0.082 Cl
ATOM     27  C   UNL     1      10.815   8.546  17.053  0.00  0.00    +0.013 A 
ATOM     28  C   UNL     1      11.331   8.340  17.663  0.00  0.00    +0.021 A 
ENDBRANCH  19  22
ENDBRANCH  18  19
ENDBRANCH  17  18
ENDBRANCH  16  17
TORSDOF 8
ENDMDL
MODEL 8
REMARK VINA RESULT:      -6.5     16.496     18.866
REMARK  Name = 
REMARK  8 active torsions:
REMARK  status: ('A' for Active; 'I' for Inactive)
REMARK    1  A    between atoms: O_2  and  C_3
REMARK    2  A    between atoms: C_3  and  C_4
REMARK    3  A    between atoms: N_8  and  C_9
REMARK    4  A    between atoms: C_12  and  C_13
REMARK    5  A    between atoms: C_16  and  C_17
REMARK    6  A    between atoms: C_17  and  N_18
REMARK    7  A    between atoms: N_18  and  S_19
REMARK    8  A    between atoms: S_19  and  C_22
REMARK                            x       y       z     vdW  Elec       q    Type
REMARK                         _______ _______ _______ _____ _____    ______ ____
ROOT
ATOM      9  C   UNL     1      12.496   7.506  21.061  0.00  0.00    +0.120 C 
ATOM     10  C   UNL     1      12.056   7.014  21.556  0.00  0.00    +0.198 C 
ATOM     11  O   UNL     1      12.146   6.941  22.373  0.00  0.00    -0.219 OA
ATOM     12  C   UNL     1      11.508   6.608  21.090  0.00  0.00    +0.180 C 
ATOM     15  O   UNL     1      11.611   6.849  20.309  0.00  0.00    -0.350 OA
ATOM     16  C   UNL     1      12.221   7.404  20.291  0.00  0.00    +0.152 C 
ENDROOT
BRANCH   9   8
ATOM      4  C   UNL     1      13.903   7.814  21.352  0.00  0.00    +0.087 C 
ATOM      5  C   UNL     1      14.314   8.483  21.608  0.00  0.00    +0.020 C 
ATOM      6  C   UNL     1      13.767   9.094  21.710  0.00  0.00    +0.019 C 
ATOM      7  C   UNL     1      13.020   8.802  21.517  0.00  0.00    +0.072 C 
ATOM      8  N   UNL     1      13.104   8.011  21.297  0.00  0.00    -0.269 NA
BRANCH   4   3
ATOM      3  C   UNL     1      14.235   7.078  21.183  0.00  0.00    +0.158 C 
BRANCH   3   2
ATOM      1  C   UNL     1      15.419   6.319  20.934  0.00  0.00    +0.174 C 
ATOM      2  O   UNL     1      15.041   6.951  21.306  0.00  0.00    -0.350 OA
ENDBRANCH   3   2
ENDBRANCH   4   3
ENDBRANCH   9   8
BRANCH  12  13
ATOM     13  C   UNL     1      10.956   6.058  21.360  0.00  0.00    +0.214 C 
ATOM     14  O   UNL     1      11.058   5.256  21.194  0.00  0.00    -0.218 OA
ENDBRANCH  12  13
BRANCH  16  17
ATOM     17  C   UNL     1      12.507   7.789  19.619  0.00  0.00    +0.146 C 
BRANCH  17  18
ATOM     18  N   UNL     1      12.216   7.589  18.874  0.00  0.00    -0.075 NA
BRANCH  18  19
ATOM     19  S   UNL     1      12.580   7.887  18.195  0.00  0.00    +0.077 S 
ATOM     20  O   UNL     1      12.956   7.162  18.080  0.00  0.00    -0.152 OA
ATOM     21  O   UNL     1      12.203   8.612  18.311  0.00  0.00    -0.152 OA
BRANCH  19  22
ATOM     22  C   UNL     1      12.943   8.183  17.517  0.00  0.00    +0.124 A 
ATOM     23  C   UNL     1      13.662   7.866  17.262  0.00  0.00    +0.021 A 
ATOM     24  C   UNL     1      14.025   8.163  16.584  0.00  0.00    +0.013 A 
ATOM     25  C   UNL     1      13.672   8.776  16.161  0.00  0.00    +0.058 A 
ATOM     26 CL   UNL     1      14.036   9.072  15.482  0.00  0.00    -0.082 Cl
ATOM     27  C   UNL     1      12.953   9.093  16.416  0.00  0.00    +0.013 A 
ATOM     28  C   UNL     1      12.590   8.796  17.094  0.00  0.00    +0.021 A 
ENDBRANCH  19  22
ENDBRANCH  18  19
ENDBRANCH  17  18
ENDBRANCH  16  17
TORSDOF 8
ENDMDL
MODEL 9
REMARK VINA RESULT:      -6.5     16.812     19.107
REMARK  Name = 
REMARK  8 active torsions:
REMARK  status: ('A' for Active; 'I' for Inactive)
REMARK    1  A    between atoms: O_2  and  C_3
REMARK    2  A    between atoms: C_3  and  C_4
REMARK    3  A    between atoms: N_8  and  C_9
REMARK    4  A    between atoms: C_12  and  C_13
REMARK    5  A    between atoms: C_16  and  C_17
REMARK    6  A    between atoms: C_17  and  N_18
REMARK    7  A    between atoms: N_18  and  S_19
REMARK    8  A    between atoms: S_19  and  C_22
REMARK                            x       y       z     vdW  Elec       q    Type
REMARK                         _______ _______ _______ _____ _____    ______ ____
ROOT
ATOM      9  C   UNL     1      14.173   8.298  18.392  0.00  0.00    +0.120 C 
ATOM     10  C   UNL     1      14.335   8.453  17.599  0.00  0.00    +0.198 C 
ATOM     11  O   UNL     1      15.039   8.761  17.298  0.00  0.00    -0.219 OA
ATOM     12  C   UNL     1      13.669   8.246  17.157  0.00  0.00    +0.180 C 
ATOM     15  O   UNL     1      13.096   7.963  17.678  0.00  0.00    -0.350 OA
ATOM     16  C   UNL     1      13.408   7.995  18.442  0.00  0.00    +0.152 C 
ENDROOT
BRANCH   9   8
ATOM      4  C   UNL     1      15.269   7.901  19.288  0.00  0.00    +0.087 C 
ATOM      5  C   UNL     1      15.651   8.248  19.933  0.00  0.00    +0.020 C 
ATOM      6  C   UNL     1      15.305   8.985  20.068  0.00  0.00    +0.019 C 
ATOM      7  C   UNL     1      14.709   9.093  19.507  0.00  0.00    +0.072 C 
ATOM      8  N   UNL     1      14.687   8.423  19.026  0.00  0.00    -0.269 NA
BRANCH   4   3
ATOM      3  C   UNL     1      15.439   7.162  18.964  0.00  0.00    +0.158 C 
BRANCH   3   2
ATOM      1  C   UNL     1      16.325   6.042  18.902  0.00  0.00    +0.174 C 
ATOM      2  O   UNL     1      16.003   6.675  19.321  0.00  0.00    -0.350 OA
ENDBRANCH   3   2
ENDBRANCH   4   3
ENDBRANCH   9   8
BRANCH  12  13
ATOM     13  C   UNL     1      13.590   8.312  16.339  0.00  0.00    +0.214 C 
ATOM     14  O   UNL     1      12.847   8.439  16.005  0.00  0.00    -0.218 OA
ENDBRANCH  12  13
BRANCH  16  17
ATOM     17  C   UNL     1      13.021   7.764  19.133  0.00  0.00    +0.146 C 
BRANCH  17  18
ATOM     18  N   UNL     1      12.219   7.574  19.114  0.00  0.00    -0.075 NA
BRANCH  18  19
ATOM     19  S   UNL     1      11.790   7.522  19.817  0.00  0.00    +0.077 S 
ATOM     20  O   UNL     1      11.517   8.292  19.706  0.00  0.00    -0.152 OA
ATOM     21  O   UNL     1      12.063   6.751  19.928  0.00  0.00    -0.152 OA
BRANCH  19  22
ATOM     22  C   UNL     1      11.360   7.471  20.519  0.00  0.00    +0.124 A 
ATOM     23  C   UNL     1      10.892   8.106  20.763  0.00  0.00    +0.021 A 
ATOM     24  C   UNL     1      10.462   8.055  21.465  0.00  0.00    +0.013 A 
ATOM     25  C   UNL     1      10.501   7.370  21.923  0.00  0.00    +0.058 A 
ATOM     26 CL   UNL     1      10.071   7.320  22.626  0.00  0.00    -0.082 Cl
ATOM     27  C   UNL     1      10.969   6.736  21.680  0.00  0.00    +0.013 A 
ATOM     28  C   UNL     1      11.399   6.787  20.978  0.00  0.00    +0.021 A 
ENDBRANCH  19  22
ENDBRANCH  18  19
ENDBRANCH  17  18
ENDBRANCH  16  17
TORSDOF 8
ENDMDL
