REMARK  Name = 
REMARK  6 active torsions:
REMARK  status: ('A' for Active; 'I' for Inactive)
REMARK    1  A    between atoms: O_2  and  C_3
REMARK    2  A    between atoms: C_6  and  C_9
REMARK    3  A    between atoms: C_12  and  C_14
REMARK    4  A    between atoms: N_17  and  S_19
REMARK    5  A    between atoms: S_19  and  C_22
REMARK    6  A    between atoms: C_22  and  C_23
REMARK                            x       y       z     vdW  Elec       q    Type
REMARK                         _______ _______ _______ _____ _____    ______ ____
ROOT
ATOM     14  C   UNL     1       4.070  -3.416   0.000  0.00  0.00    +0.097 C 
ATOM     15  C   UNL     1       4.325  -4.200   0.000  0.00  0.00    +0.030 C 
ATOM     16  C   UNL     1       3.658  -4.685   0.000  0.00  0.00    +0.096 C 
ATOM     17  N   UNL     1       2.990  -4.200   0.000  0.00  0.00    -0.159 NA
ATOM     18  C   UNL     1       3.245  -3.416   0.000  0.00  0.00    +0.105 C 
ENDROOT
BRANCH  14  12
ATOM      9  C   UNL     1       4.968  -1.479   0.000  0.00  0.00    +0.250 A 
ATOM     10  N   UNL     1       5.635  -1.964   0.000  0.00  0.00    -0.107 NA
ATOM     11  N   UNL     1       5.380  -2.748   0.000  0.00  0.00    -0.111 NA
ATOM     12  C   UNL     1       4.555  -2.748   0.000  0.00  0.00    +0.227 A 
ATOM     13  O   UNL     1       4.300  -1.964   0.000  0.00  0.00    -0.419 OA
BRANCH   9   6
ATOM      3  C   UNL     1       4.968   0.996   0.000  0.00  0.00    +0.139 A 
ATOM      4  C   UNL     1       5.682   0.584   0.000  0.00  0.00    +0.037 A 
ATOM      5  C   UNL     1       5.682  -0.241   0.000  0.00  0.00    +0.008 A 
ATOM      6  C   UNL     1       4.968  -0.654   0.000  0.00  0.00    +0.055 A 
ATOM      7  C   UNL     1       4.253  -0.241   0.000  0.00  0.00    +0.008 A 
ATOM      8  C   UNL     1       4.253   0.584   0.000  0.00  0.00    +0.037 A 
BRANCH   3   2
ATOM      1  C   UNL     1       4.253   2.234   0.000  0.00  0.00    +0.252 C 
ATOM      2  O   UNL     1       4.968   1.821   0.000  0.00  0.00    -0.471 OA
ENDBRANCH   3   2
ENDBRANCH   9   6
ENDBRANCH  14  12
BRANCH  17  19
ATOM     19  S   UNL     1       2.206  -4.455   0.000  0.00  0.00    +0.048 S 
ATOM     20  O   UNL     1       1.951  -3.671   0.000  0.00  0.00    -0.157 OA
ATOM     21  O   UNL     1       2.461  -5.240   0.000  0.00  0.00    -0.157 OA
BRANCH  19  22
ATOM     22  C   UNL     1       1.421  -4.710   0.000  0.00  0.00    +0.195 C 
BRANCH  22  23
ATOM     23  C   UNL     1       0.808  -4.158   0.000  0.00  0.00    +0.003 A 
ATOM     24  C   UNL     1       0.023  -4.413   0.000  0.00  0.00    -0.003 A 
ATOM     25  C   UNL     1      -0.590  -3.861   0.000  0.00  0.00    -0.000 A 
ATOM     26  C   UNL     1      -0.418  -3.054   0.000  0.00  0.00    -0.000 A 
ATOM     27  C   UNL     1       0.366  -2.799   0.000  0.00  0.00    -0.000 A 
ATOM     28  C   UNL     1       0.979  -3.351   0.000  0.00  0.00    -0.003 A 
ENDBRANCH  22  23
ENDBRANCH  19  22
ENDBRANCH  17  19
TORSDOF 6
