MODEL 1
REMARK VINA RESULT:     -15.1      0.000      0.000
REMARK  Name = 
REMARK  3 active torsions:
REMARK  status: ('A' for Active; 'I' for Inactive)
REMARK    1  A    between atoms: S_2  and  C_3
REMARK    2  A    between atoms: C_6  and  C_9
REMARK    3  A    between atoms: C_19  and  C_21
REMARK                            x       y       z     vdW  Elec       q    Type
REMARK                         _______ _______ _______ _____ _____    ______ ____
ROOT
ATOM      9  C   UNL     1      -4.395   0.602  24.944  0.00  0.00    +0.056 A 
ATOM     10  C   UNL     1      -5.107   0.772  25.325  0.00  0.00    +0.006 A 
ATOM     11  C   UNL     1      -5.343   1.556  25.428  0.00  0.00    +0.013 A 
ATOM     12  C   UNL     1      -4.867   2.169  25.150  0.00  0.00    +0.041 A 
ATOM     13  C   UNL     1      -4.840   3.087  25.105  0.00  0.00    +0.058 C 
ATOM     14  C   UNL     1      -5.206   3.658  25.286  0.00  0.00    +0.011 C 
ATOM     15  C   UNL     1      -4.504   3.486  24.910  0.00  0.00    +0.043 C 
ATOM     16  C   UNL     1      -3.635   3.483  24.438  0.00  0.00    +0.095 C 
ATOM     17  N   UNL     1      -3.503   2.660  24.393  0.00  0.00    -0.279 N 
ATOM     18  C   UNL     1      -4.001   3.100  24.649  0.00  0.00    +0.099 C 
ATOM     19  C   UNL     1      -3.124   1.950  24.210  0.00  0.00    +0.225 C 
ATOM     20  O   UNL     1      -3.470   1.230  24.421  0.00  0.00    -0.275 OA
ATOM     25  C   UNL     1      -4.524   2.527  24.952  0.00  0.00    +0.110 C 
ATOM     26  N   UNL     1      -4.156   1.999  24.769  0.00  0.00    -0.299 N 
ATOM     27  C   UNL     1      -3.920   1.215  24.666  0.00  0.00    +0.261 A 
ATOM     28  O   UNL     1      -3.286   0.805  24.335  0.00  0.00    -0.267 OA
ENDROOT
BRANCH   9   6
ATOM      3  C   UNL     1      -3.689  -1.750  24.638  0.00  0.00    +0.025 A 
ATOM      4  C   UNL     1      -4.123  -1.371  24.049  0.00  0.00    +0.006 A 
ATOM      5  C   UNL     1      -4.359  -0.586  24.151  0.00  0.00    +0.001 A 
ATOM      6  C   UNL     1      -4.160  -0.182  24.842  0.00  0.00    +0.005 A 
ATOM      7  C   UNL     1      -3.725  -0.562  25.431  0.00  0.00    +0.001 A 
ATOM      8  C   UNL     1      -3.489  -1.346  25.329  0.00  0.00    +0.006 A 
BRANCH   3   2
ATOM      1  C   UNL     1      -2.660  -2.711  24.396  0.00  0.00    +0.074 C 
ATOM      2  S   UNL     1      -3.453  -2.535  24.536  0.00  0.00    -0.113 S 
ENDBRANCH   3   2
ENDBRANCH   9   6
BRANCH  19  21
ATOM     21  C   UNL     1      -2.400   1.959  23.816  0.00  0.00    +0.069 C 
ATOM     22  C   UNL     1      -1.674   1.968  23.423  0.00  0.00    +0.009 C 
ATOM     23  C   UNL     1      -2.006   1.979  24.541  0.00  0.00    +0.009 C 
ATOM     24  C   UNL     1      -2.792   1.938  23.091  0.00  0.00    +0.009 C 
ENDBRANCH  19  21
TORSDOF 3
ENDMDL
MODEL 2
REMARK VINA RESULT:     -14.5      1.886      4.024
REMARK  Name = 
REMARK  3 active torsions:
REMARK  status: ('A' for Active; 'I' for Inactive)
REMARK    1  A    between atoms: S_2  and  C_3
REMARK    2  A    between atoms: C_6  and  C_9
REMARK    3  A    between atoms: C_19  and  C_21
REMARK                            x       y       z     vdW  Elec       q    Type
REMARK                         _______ _______ _______ _____ _____    ______ ____
ROOT
ATOM      9  C   UNL     1      -3.809   0.140  24.321  0.00  0.00    +0.056 A 
ATOM     10  C   UNL     1      -4.490  -0.267  24.094  0.00  0.00    +0.006 A 
ATOM     11  C   UNL     1      -4.493  -1.092  24.085  0.00  0.00    +0.013 A 
ATOM     12  C   UNL     1      -3.816  -1.509  24.302  0.00  0.00    +0.041 A 
ATOM     13  C   UNL     1      -3.507  -2.370  24.394  0.00  0.00    +0.058 C 
ATOM     14  C   UNL     1      -3.709  -3.038  24.321  0.00  0.00    +0.011 C 
ATOM     15  C   UNL     1      -3.038  -2.633  24.545  0.00  0.00    +0.043 C 
ATOM     16  C   UNL     1      -2.146  -2.329  24.840  0.00  0.00    +0.095 C 
ATOM     17  N   UNL     1      -2.262  -1.502  24.811  0.00  0.00    -0.279 N 
ATOM     18  C   UNL     1      -2.639  -2.093  24.681  0.00  0.00    +0.099 C 
ATOM     19  C   UNL     1      -2.089  -0.698  24.876  0.00  0.00    +0.225 C 
ATOM     20  O   UNL     1      -2.665  -0.136  24.693  0.00  0.00    -0.275 OA
ATOM     25  C   UNL     1      -3.352  -1.730  24.451  0.00  0.00    +0.110 C 
ATOM     26  N   UNL     1      -3.135  -1.102  24.529  0.00  0.00    -0.299 N 
ATOM     27  C   UNL     1      -3.132  -0.277  24.539  0.00  0.00    +0.261 A 
ATOM     28  O   UNL     1      -2.605   0.332  24.718  0.00  0.00    -0.267 OA
ENDROOT
BRANCH   9   6
ATOM      3  C   UNL     1      -3.803   2.615  24.351  0.00  0.00    +0.025 A 
ATOM      4  C   UNL     1      -3.536   2.210  23.683  0.00  0.00    +0.006 A 
ATOM      5  C   UNL     1      -3.538   1.384  23.673  0.00  0.00    +0.001 A 
ATOM      6  C   UNL     1      -3.807   0.965  24.331  0.00  0.00    +0.005 A 
ATOM      7  C   UNL     1      -4.074   1.370  24.998  0.00  0.00    +0.001 A 
ATOM      8  C   UNL     1      -4.072   2.195  25.008  0.00  0.00    +0.006 A 
BRANCH   3   2
ATOM      1  C   UNL     1      -3.219   3.845  24.781  0.00  0.00    +0.074 C 
ATOM      2  S   UNL     1      -3.801   3.440  24.361  0.00  0.00    -0.113 S 
ENDBRANCH   3   2
ENDBRANCH   9   6
BRANCH  19  21
ATOM     21  C   UNL     1      -1.340  -0.456  25.124  0.00  0.00    +0.069 C 
ATOM     22  C   UNL     1      -0.591  -0.214  25.370  0.00  0.00    +0.009 C 
ATOM     23  C   UNL     1      -1.086  -0.441  24.338  0.00  0.00    +0.009 C 
ATOM     24  C   UNL     1      -1.594  -0.471  25.908  0.00  0.00    +0.009 C 
ENDBRANCH  19  21
TORSDOF 3
ENDMDL
MODEL 3
REMARK VINA RESULT:     -13.9      0.883      2.075
REMARK  Name = 
REMARK  3 active torsions:
REMARK  status: ('A' for Active; 'I' for Inactive)
REMARK    1  A    between atoms: S_2  and  C_3
REMARK    2  A    between atoms: C_6  and  C_9
REMARK    3  A    between atoms: C_19  and  C_21
REMARK                            x       y       z     vdW  Elec       q    Type
REMARK                         _______ _______ _______ _____ _____    ______ ____
ROOT
ATOM      9  C   UNL     1      -3.290   0.936  24.770  0.00  0.00    +0.056 A 
ATOM     10  C   UNL     1      -2.507   1.192  24.724  0.00  0.00    +0.006 A 
ATOM     11  C   UNL     1      -2.324   1.987  24.853  0.00  0.00    +0.013 A 
ATOM     12  C   UNL     1      -2.925   2.524  25.027  0.00  0.00    +0.041 A 
ATOM     13  C   UNL     1      -3.053   3.415  25.212  0.00  0.00    +0.058 C 
ATOM     14  C   UNL     1      -2.702   4.019  25.284  0.00  0.00    +0.011 C 
ATOM     15  C   UNL     1      -3.474   3.762  25.329  0.00  0.00    +0.043 C 
ATOM     16  C   UNL     1      -4.451   3.649  25.425  0.00  0.00    +0.095 C 
ATOM     17  N   UNL     1      -4.512   2.829  25.277  0.00  0.00    -0.279 N 
ATOM     18  C   UNL     1      -3.999   3.322  25.308  0.00  0.00    +0.099 C 
ATOM     19  C   UNL     1      -4.863   2.088  25.179  0.00  0.00    +0.225 C 
ATOM     20  O   UNL     1      -4.397   1.431  24.998  0.00  0.00    -0.275 OA
ATOM     25  C   UNL     1      -3.350   2.830  25.137  0.00  0.00    +0.110 C 
ATOM     26  N   UNL     1      -3.708   2.268  25.073  0.00  0.00    -0.299 N 
ATOM     27  C   UNL     1      -3.890   1.474  24.945  0.00  0.00    +0.261 A 
ATOM     28  O   UNL     1      -4.560   0.993  24.934  0.00  0.00    -0.267 OA
ENDROOT
BRANCH   9   6
ATOM      3  C   UNL     1      -3.834  -1.447  24.385  0.00  0.00    +0.025 A 
ATOM      4  C   UNL     1      -3.848  -0.915  23.755  0.00  0.00    +0.006 A 
ATOM      5  C   UNL     1      -3.666  -0.119  23.884  0.00  0.00    +0.001 A 
ATOM      6  C   UNL     1      -3.471   0.142  24.641  0.00  0.00    +0.005 A 
ATOM      7  C   UNL     1      -3.457  -0.391  25.271  0.00  0.00    +0.001 A 
ATOM      8  C   UNL     1      -3.639  -1.186  25.143  0.00  0.00    +0.006 A 
BRANCH   3   2
ATOM      1  C   UNL     1      -3.509  -2.830  24.535  0.00  0.00    +0.074 C 
ATOM      2  S   UNL     1      -4.016  -2.242  24.257  0.00  0.00    -0.113 S 
ENDBRANCH   3   2
ENDBRANCH   9   6
BRANCH  19  21
ATOM     21  C   UNL     1      -5.679   2.005  25.262  0.00  0.00    +0.069 C 
ATOM     22  C   UNL     1      -6.497   1.922  25.344  0.00  0.00    +0.009 C 
ATOM     23  C   UNL     1      -5.775   2.134  24.452  0.00  0.00    +0.009 C 
ATOM     24  C   UNL     1      -5.585   1.876  26.071  0.00  0.00    +0.009 C 
ENDBRANCH  19  21
TORSDOF 3
ENDMDL
MODEL 4
REMARK VINA RESULT:     -13.6      1.572      2.400
REMARK  Name = 
REMARK  3 active torsions:
REMARK  status: ('A' for Active; 'I' for Inactive)
REMARK    1  A    between atoms: S_2  and  C_3
REMARK    2  A    between atoms: C_6  and  C_9
REMARK    3  A    between atoms: C_19  and  C_21
REMARK                            x       y       z     vdW  Elec       q    Type
REMARK                         _______ _______ _______ _____ _____    ______ ____
ROOT
ATOM      9  C   UNL     1      -3.156   1.232  24.618  0.00  0.00    +0.056 A 
ATOM     10  C   UNL     1      -3.727   0.645  24.517  0.00  0.00    +0.006 A 
ATOM     11  C   UNL     1      -4.520   0.808  24.677  0.00  0.00    +0.013 A 
ATOM     12  C   UNL     1      -4.742   1.558  24.939  0.00  0.00    +0.041 A 
ATOM     13  C   UNL     1      -5.486   2.035  25.189  0.00  0.00    +0.058 C 
ATOM     14  C   UNL     1      -6.181   1.971  25.266  0.00  0.00    +0.011 C 
ATOM     15  C   UNL     1      -5.615   2.548  25.365  0.00  0.00    +0.043 C 
ATOM     16  C   UNL     1      -5.088   3.365  25.543  0.00  0.00    +0.095 C 
ATOM     17  N   UNL     1      -4.325   3.084  25.351  0.00  0.00    -0.279 N 
ATOM     18  C   UNL     1      -4.991   2.832  25.366  0.00  0.00    +0.099 C 
ATOM     19  C   UNL     1      -3.507   3.093  25.240  0.00  0.00    +0.225 C 
ATOM     20  O   UNL     1      -3.120   2.413  24.977  0.00  0.00    -0.275 OA
ATOM     25  C   UNL     1      -4.831   2.058  25.105  0.00  0.00    +0.110 C 
ATOM     26  N   UNL     1      -4.171   2.145  25.040  0.00  0.00    -0.299 N 
ATOM     27  C   UNL     1      -3.378   1.982  24.880  0.00  0.00    +0.261 A 
ATOM     28  O   UNL     1      -2.655   2.378  24.901  0.00  0.00    -0.267 OA
ENDROOT
BRANCH   9   6
ATOM      3  C   UNL     1      -0.779   0.741  24.138  0.00  0.00    +0.025 A 
ATOM      4  C   UNL     1      -1.261   1.060  23.549  0.00  0.00    +0.006 A 
ATOM      5  C   UNL     1      -2.054   1.224  23.709  0.00  0.00    +0.001 A 
ATOM      6  C   UNL     1      -2.364   1.069  24.458  0.00  0.00    +0.005 A 
ATOM      7  C   UNL     1      -1.882   0.750  25.046  0.00  0.00    +0.001 A 
ATOM      8  C   UNL     1      -1.089   0.586  24.887  0.00  0.00    +0.006 A 
BRANCH   3   2
ATOM      1  C   UNL     1       0.219  -0.116  23.584  0.00  0.00    +0.074 C 
ATOM      2  S   UNL     1       0.014   0.577  23.978  0.00  0.00    -0.113 S 
ENDBRANCH   3   2
ENDBRANCH   9   6
BRANCH  19  21
ATOM     21  C   UNL     1      -3.078   3.780  25.392  0.00  0.00    +0.069 C 
ATOM     22  C   UNL     1      -2.648   4.469  25.542  0.00  0.00    +0.009 C 
ATOM     23  C   UNL     1      -3.182   4.018  24.608  0.00  0.00    +0.009 C 
ATOM     24  C   UNL     1      -2.973   3.543  26.174  0.00  0.00    +0.009 C 
ENDBRANCH  19  21
TORSDOF 3
ENDMDL
MODEL 5
REMARK VINA RESULT:     -13.6      2.109      4.283
REMARK  Name = 
REMARK  3 active torsions:
REMARK  status: ('A' for Active; 'I' for Inactive)
REMARK    1  A    between atoms: S_2  and  C_3
REMARK    2  A    between atoms: C_6  and  C_9
REMARK    3  A    between atoms: C_19  and  C_21
REMARK                            x       y       z     vdW  Elec       q    Type
REMARK                         _______ _______ _______ _____ _____    ______ ____
ROOT
ATOM      9  C   UNL     1      -1.594  -0.521  24.844  0.00  0.00    +0.056 A 
ATOM     10  C   UNL     1      -1.194  -1.243  24.846  0.00  0.00    +0.006 A 
ATOM     11  C   UNL     1      -1.610  -1.945  24.724  0.00  0.00    +0.013 A 
ATOM     12  C   UNL     1      -2.425  -1.925  24.602  0.00  0.00    +0.041 A 
ATOM     13  C   UNL     1      -3.137  -2.485  24.447  0.00  0.00    +0.058 C 
ATOM     14  C   UNL     1      -3.297  -3.164  24.367  0.00  0.00    +0.011 C 
ATOM     15  C   UNL     1      -3.688  -2.450  24.367  0.00  0.00    +0.043 C 
ATOM     16  C   UNL     1      -4.330  -1.699  24.331  0.00  0.00    +0.095 C 
ATOM     17  N   UNL     1      -3.807  -1.062  24.463  0.00  0.00    -0.279 N 
ATOM     18  C   UNL     1      -3.770  -1.771  24.410  0.00  0.00    +0.099 C 
ATOM     19  C   UNL     1      -3.553  -0.283  24.566  0.00  0.00    +0.225 C 
ATOM     20  O   UNL     1      -2.754  -0.124  24.701  0.00  0.00    -0.275 OA
ATOM     25  C   UNL     1      -2.950  -1.857  24.528  0.00  0.00    +0.110 C 
ATOM     26  N   UNL     1      -2.825  -1.204  24.601  0.00  0.00    -0.299 N 
ATOM     27  C   UNL     1      -2.409  -0.501  24.722  0.00  0.00    +0.261 A 
ATOM     28  O   UNL     1      -2.570   0.306  24.764  0.00  0.00    -0.267 OA
ENDROOT
BRANCH   9   6
ATOM      3  C   UNL     1      -0.345   1.584  25.206  0.00  0.00    +0.025 A 
ATOM      4  C   UNL     1      -0.678   1.188  25.848  0.00  0.00    +0.006 A 
ATOM      5  C   UNL     1      -1.095   0.485  25.727  0.00  0.00    +0.001 A 
ATOM      6  C   UNL     1      -1.178   0.180  24.966  0.00  0.00    +0.005 A 
ATOM      7  C   UNL     1      -0.844   0.577  24.324  0.00  0.00    +0.001 A 
ATOM      8  C   UNL     1      -0.427   1.279  24.444  0.00  0.00    +0.006 A 
BRANCH   3   2
ATOM      1  C   UNL     1      -0.333   2.977  25.520  0.00  0.00    +0.074 C 
ATOM      2  S   UNL     1       0.072   2.286  25.327  0.00  0.00    -0.113 S 
ENDBRANCH   3   2
ENDBRANCH   9   6
BRANCH  19  21
ATOM     21  C   UNL     1      -4.097   0.336  24.534  0.00  0.00    +0.069 C 
ATOM     22  C   UNL     1      -4.642   0.955  24.504  0.00  0.00    +0.009 C 
ATOM     23  C   UNL     1      -4.260   0.233  25.337  0.00  0.00    +0.009 C 
ATOM     24  C   UNL     1      -3.934   0.439  23.733  0.00  0.00    +0.009 C 
ENDBRANCH  19  21
TORSDOF 3
ENDMDL
