MODEL 1
REMARK VINA RESULT:     -11.8      0.000      0.000
REMARK  Name = 
REMARK  5 active torsions:
REMARK  status: ('A' for Active; 'I' for Inactive)
REMARK    1  A    between atoms: C_2  and  N_3
REMARK    2  A    between atoms: N_6  and  C_7
REMARK    3  A    between atoms: C_14  and  C_15
REMARK    4  A    between atoms: C_15  and  C_17
REMARK    5  A    between atoms: N_19  and  C_20
REMARK                            x       y       z     vdW  Elec       q    Type
REMARK                         _______ _______ _______ _____ _____    ______ ____
ROOT
ATOM      7  C   UNL     1      -4.303   0.097  24.434  0.00  0.00    +0.097 C 
ATOM      8  C   UNL     1      -4.903   0.142  24.998  0.00  0.00    +0.022 C 
ATOM      9  C   UNL     1      -5.133   0.875  25.296  0.00  0.00    +0.002 C 
ATOM     10  C   UNL     1      -4.764   1.564  25.032  0.00  0.00    +0.002 C 
ATOM     11  C   UNL     1      -5.364   1.609  25.596  0.00  0.00    +0.000 C 
ATOM     12  C   UNL     1      -4.994   2.297  25.331  0.00  0.00    +0.000 C 
ATOM     13  C   UNL     1      -4.624   2.986  25.067  0.00  0.00    +0.003 C 
ATOM     14  C   UNL     1      -4.023   2.940  24.503  0.00  0.00    +0.039 C 
ATOM     23  C   UNL     1      -3.793   2.206  24.203  0.00  0.00    +0.152 C 
ATOM     24  O   UNL     1      -3.193   2.161  23.640  0.00  0.00    -0.223 OA
ATOM     25  C   UNL     1      -4.163   1.519  24.468  0.00  0.00    +0.032 C 
ATOM     26  C   UNL     1      -3.932   0.785  24.169  0.00  0.00    +0.023 C 
ATOM     27  C   UNL     1      -3.333   0.740  23.605  0.00  0.00    +0.002 C 
ENDROOT
BRANCH   7   6
ATOM      3  N   UNL     1      -3.654  -1.986  24.351  0.00  0.00    -0.187 NA
ATOM      4  C   UNL     1      -3.885  -1.252  24.651  0.00  0.00    +0.339 C 
ATOM      5  O   UNL     1      -3.928  -1.135  25.466  0.00  0.00    -0.249 OA
ATOM      6  N   UNL     1      -4.072  -0.637  24.134  0.00  0.00    -0.189 NA
BRANCH   3   2
ATOM      1  C   UNL     1      -3.194  -3.322  24.569  0.00  0.00    +0.025 C 
ATOM      2  C   UNL     1      -3.467  -2.602  24.867  0.00  0.00    +0.117 C 
ENDBRANCH   3   2
ENDBRANCH   7   6
BRANCH  14  15
ATOM     15  C   UNL     1      -3.653   3.628  24.238  0.00  0.00    +0.081 C 
ATOM     16  C   UNL     1      -3.860   3.952  23.507  0.00  0.00    +0.010 C 
BRANCH  15  17
ATOM     17  C   UNL     1      -3.077   3.992  24.702  0.00  0.00    +0.241 C 
ATOM     18  O   UNL     1      -3.270   4.277  25.451  0.00  0.00    -0.273 OA
ATOM     19  N   UNL     1      -2.306   4.070  24.417  0.00  0.00    -0.207 NA
BRANCH  19  20
ATOM     20  C   UNL     1      -1.729   4.434  24.882  0.00  0.00    +0.095 C 
ATOM     21  C   UNL     1      -1.458   5.091  25.300  0.00  0.00    +0.023 C 
ATOM     22  C   UNL     1      -1.000   4.406  25.268  0.00  0.00    +0.023 C 
ENDBRANCH  19  20
ENDBRANCH  15  17
ENDBRANCH  14  15
TORSDOF 5
ENDMDL
MODEL 2
REMARK VINA RESULT:     -11.3      0.973      4.991
REMARK  Name = 
REMARK  5 active torsions:
REMARK  status: ('A' for Active; 'I' for Inactive)
REMARK    1  A    between atoms: C_2  and  N_3
REMARK    2  A    between atoms: N_6  and  C_7
REMARK    3  A    between atoms: C_14  and  C_15
REMARK    4  A    between atoms: C_15  and  C_17
REMARK    5  A    between atoms: N_19  and  C_20
REMARK                            x       y       z     vdW  Elec       q    Type
REMARK                         _______ _______ _______ _____ _____    ______ ____
ROOT
ATOM      7  C   UNL     1      -2.889   2.628  24.539  0.00  0.00    +0.097 C 
ATOM      8  C   UNL     1      -3.657   2.917  24.456  0.00  0.00    +0.022 C 
ATOM      9  C   UNL     1      -4.301   2.416  24.576  0.00  0.00    +0.002 C 
ATOM     10  C   UNL     1      -4.178   1.626  24.779  0.00  0.00    +0.002 C 
ATOM     11  C   UNL     1      -4.946   1.915  24.696  0.00  0.00    +0.000 C 
ATOM     12  C   UNL     1      -4.821   1.125  24.899  0.00  0.00    +0.000 C 
ATOM     13  C   UNL     1      -4.698   0.335  25.102  0.00  0.00    +0.003 C 
ATOM     14  C   UNL     1      -3.930   0.046  25.186  0.00  0.00    +0.039 C 
ATOM     23  C   UNL     1      -3.285   0.547  25.066  0.00  0.00    +0.152 C 
ATOM     24  O   UNL     1      -2.518   0.259  25.149  0.00  0.00    -0.223 OA
ATOM     25  C   UNL     1      -3.409   1.337  24.862  0.00  0.00    +0.032 C 
ATOM     26  C   UNL     1      -2.764   1.838  24.742  0.00  0.00    +0.023 C 
ATOM     27  C   UNL     1      -1.997   1.550  24.825  0.00  0.00    +0.002 C 
ENDROOT
BRANCH   7   6
ATOM      3  N   UNL     1      -1.544   4.339  24.718  0.00  0.00    -0.187 NA
ATOM      4  C   UNL     1      -2.189   3.837  24.838  0.00  0.00    +0.339 C 
ATOM      5  O   UNL     1      -2.779   4.045  25.377  0.00  0.00    -0.249 OA
ATOM      6  N   UNL     1      -2.244   3.129  24.419  0.00  0.00    -0.189 NA
BRANCH   3   2
ATOM      1  C   UNL     1      -0.916   5.604  24.932  0.00  0.00    +0.025 C 
ATOM      2  C   UNL     1      -1.490   5.047  25.137  0.00  0.00    +0.117 C 
ENDBRANCH   3   2
ENDBRANCH   7   6
BRANCH  14  15
ATOM     15  C   UNL     1      -3.805  -0.744  25.389  0.00  0.00    +0.081 C 
ATOM     16  C   UNL     1      -3.550  -0.938  26.150  0.00  0.00    +0.010 C 
BRANCH  15  17
ATOM     17  C   UNL     1      -3.935  -1.338  24.833  0.00  0.00    +0.241 C 
ATOM     18  O   UNL     1      -4.519  -1.245  24.258  0.00  0.00    -0.273 OA
ATOM     19  N   UNL     1      -3.482  -2.028  24.853  0.00  0.00    -0.207 NA
BRANCH  19  20
ATOM     20  C   UNL     1      -3.612  -2.623  24.296  0.00  0.00    +0.095 C 
ATOM     21  C   UNL     1      -4.072  -2.952  23.695  0.00  0.00    +0.023 C 
ATOM     22  C   UNL     1      -3.377  -3.327  23.933  0.00  0.00    +0.023 C 
ENDBRANCH  19  20
ENDBRANCH  15  17
ENDBRANCH  14  15
TORSDOF 5
ENDMDL
MODEL 3
REMARK VINA RESULT:     -10.5      2.624      3.882
REMARK  Name = 
REMARK  5 active torsions:
REMARK  status: ('A' for Active; 'I' for Inactive)
REMARK    1  A    between atoms: C_2  and  N_3
REMARK    2  A    between atoms: N_6  and  C_7
REMARK    3  A    between atoms: C_14  and  C_15
REMARK    4  A    between atoms: C_15  and  C_17
REMARK    5  A    between atoms: N_19  and  C_20
REMARK                            x       y       z     vdW  Elec       q    Type
REMARK                         _______ _______ _______ _____ _____    ______ ____
ROOT
ATOM      7  C   UNL     1      -0.618   1.437  24.380  0.00  0.00    +0.097 C 
ATOM      8  C   UNL     1      -0.215   1.777  25.014  0.00  0.00    +0.022 C 
ATOM      9  C   UNL     1      -0.568   2.380  25.452  0.00  0.00    +0.002 C 
ATOM     10  C   UNL     1      -1.325   2.643  25.256  0.00  0.00    +0.002 C 
ATOM     11  C   UNL     1      -0.922   2.984  25.890  0.00  0.00    +0.000 C 
ATOM     12  C   UNL     1      -1.679   3.246  25.693  0.00  0.00    +0.000 C 
ATOM     13  C   UNL     1      -2.436   3.510  25.497  0.00  0.00    +0.003 C 
ATOM     14  C   UNL     1      -2.839   3.169  24.863  0.00  0.00    +0.039 C 
ATOM     23  C   UNL     1      -2.485   2.566  24.425  0.00  0.00    +0.152 C 
ATOM     24  O   UNL     1      -2.888   2.226  23.791  0.00  0.00    -0.223 OA
ATOM     25  C   UNL     1      -1.728   2.303  24.622  0.00  0.00    +0.032 C 
ATOM     26  C   UNL     1      -1.374   1.700  24.183  0.00  0.00    +0.023 C 
ATOM     27  C   UNL     1      -1.777   1.360  23.550  0.00  0.00    +0.002 C 
ENDROOT
BRANCH   7   6
ATOM      3  N   UNL     1       0.877   0.301  23.265  0.00  0.00    -0.187 NA
ATOM      4  C   UNL     1       0.523   0.904  23.704  0.00  0.00    +0.339 C 
ATOM      5  O   UNL     1       0.956   1.578  23.904  0.00  0.00    -0.249 OA
ATOM      6  N   UNL     1      -0.264   0.834  23.942  0.00  0.00    -0.189 NA
BRANCH   3   2
ATOM      1  C   UNL     1       1.966  -0.133  22.448  0.00  0.00    +0.025 C 
ATOM      2  C   UNL     1       1.663   0.372  23.028  0.00  0.00    +0.117 C 
ENDBRANCH   3   2
ENDBRANCH   7   6
BRANCH  14  15
ATOM     15  C   UNL     1      -3.596   3.432  24.666  0.00  0.00    +0.081 C 
ATOM     16  C   UNL     1      -3.706   3.911  24.003  0.00  0.00    +0.010 C 
BRANCH  15  17
ATOM     17  C   UNL     1      -4.241   3.216  25.131  0.00  0.00    +0.241 C 
ATOM     18  O   UNL     1      -4.352   3.564  25.870  0.00  0.00    -0.273 OA
ATOM     19  N   UNL     1      -4.778   2.652  24.856  0.00  0.00    -0.207 NA
BRANCH  19  20
ATOM     20  C   UNL     1      -5.424   2.436  25.322  0.00  0.00    +0.095 C 
ATOM     21  C   UNL     1      -5.815   2.441  26.048  0.00  0.00    +0.023 C 
ATOM     22  C   UNL     1      -6.153   2.056  25.401  0.00  0.00    +0.023 C 
ENDBRANCH  19  20
ENDBRANCH  15  17
ENDBRANCH  14  15
TORSDOF 5
ENDMDL
MODEL 4
REMARK VINA RESULT:     -10.4      2.791      4.152
REMARK  Name = 
REMARK  5 active torsions:
REMARK  status: ('A' for Active; 'I' for Inactive)
REMARK    1  A    between atoms: C_2  and  N_3
REMARK    2  A    between atoms: N_6  and  C_7
REMARK    3  A    between atoms: C_14  and  C_15
REMARK    4  A    between atoms: C_15  and  C_17
REMARK    5  A    between atoms: N_19  and  C_20
REMARK                            x       y       z     vdW  Elec       q    Type
REMARK                         _______ _______ _______ _____ _____    ______ ____
ROOT
ATOM      7  C   UNL     1      -0.679   0.242  24.290  0.00  0.00    +0.097 C 
ATOM      8  C   UNL     1      -0.514  -0.248  24.933  0.00  0.00    +0.022 C 
ATOM      9  C   UNL     1      -1.130  -0.559  25.383  0.00  0.00    +0.002 C 
ATOM     10  C   UNL     1      -1.913  -0.380  25.191  0.00  0.00    +0.002 C 
ATOM     11  C   UNL     1      -1.748  -0.870  25.834  0.00  0.00    +0.000 C 
ATOM     12  C   UNL     1      -2.530  -0.691  25.641  0.00  0.00    +0.000 C 
ATOM     13  C   UNL     1      -3.312  -0.513  25.449  0.00  0.00    +0.003 C 
ATOM     14  C   UNL     1      -3.477  -0.023  24.806  0.00  0.00    +0.039 C 
ATOM     23  C   UNL     1      -2.860   0.288  24.355  0.00  0.00    +0.152 C 
ATOM     24  O   UNL     1      -3.025   0.778  23.713  0.00  0.00    -0.223 OA
ATOM     25  C   UNL     1      -2.078   0.110  24.548  0.00  0.00    +0.032 C 
ATOM     26  C   UNL     1      -1.461   0.421  24.097  0.00  0.00    +0.023 C 
ATOM     27  C   UNL     1      -1.626   0.911  23.455  0.00  0.00    +0.002 C 
ENDROOT
BRANCH   7   6
ATOM      3  N   UNL     1       1.124   0.363  23.064  0.00  0.00    -0.187 NA
ATOM      4  C   UNL     1       0.507   0.051  23.515  0.00  0.00    +0.339 C 
ATOM      5  O   UNL     1       0.458  -0.763  23.642  0.00  0.00    -0.249 OA
ATOM      6  N   UNL     1      -0.062   0.554  23.839  0.00  0.00    -0.189 NA
BRANCH   3   2
ATOM      1  C   UNL     1       2.366   0.176  22.382  0.00  0.00    +0.025 C 
ATOM      2  C   UNL     1       1.692  -0.140  22.741  0.00  0.00    +0.117 C 
ENDBRANCH   3   2
ENDBRANCH   7   6
BRANCH  14  15
ATOM     15  C   UNL     1      -4.259   0.156  24.613  0.00  0.00    +0.081 C 
ATOM     16  C   UNL     1      -4.619  -0.212  23.967  0.00  0.00    +0.010 C 
BRANCH  15  17
ATOM     17  C   UNL     1      -4.681   0.700  25.065  0.00  0.00    +0.241 C 
ATOM     18  O   UNL     1      -4.887   0.520  25.843  0.00  0.00    -0.273 OA
ATOM     19  N   UNL     1      -4.899   1.427  24.739  0.00  0.00    -0.207 NA
BRANCH  19  20
ATOM     20  C   UNL     1      -5.322   1.972  25.191  0.00  0.00    +0.095 C 
ATOM     21  C   UNL     1      -5.895   2.136  25.761  0.00  0.00    +0.023 C 
ATOM     22  C   UNL     1      -5.480   2.754  25.405  0.00  0.00    +0.023 C 
ENDBRANCH  19  20
ENDBRANCH  15  17
ENDBRANCH  14  15
TORSDOF 5
ENDMDL
MODEL 5
REMARK VINA RESULT:     -10.4      1.930      5.491
REMARK  Name = 
REMARK  5 active torsions:
REMARK  status: ('A' for Active; 'I' for Inactive)
REMARK    1  A    between atoms: C_2  and  N_3
REMARK    2  A    between atoms: N_6  and  C_7
REMARK    3  A    between atoms: C_14  and  C_15
REMARK    4  A    between atoms: C_15  and  C_17
REMARK    5  A    between atoms: N_19  and  C_20
REMARK                            x       y       z     vdW  Elec       q    Type
REMARK                         _______ _______ _______ _____ _____    ______ ____
ROOT
ATOM      7  C   UNL     1      -1.522   2.028  24.627  0.00  0.00    +0.097 C 
ATOM      8  C   UNL     1      -0.738   1.782  24.557  0.00  0.00    +0.022 C 
ATOM      9  C   UNL     1      -0.539   0.995  24.698  0.00  0.00    +0.002 C 
ATOM     10  C   UNL     1      -1.124   0.452  24.910  0.00  0.00    +0.002 C 
ATOM     11  C   UNL     1      -0.339   0.206  24.839  0.00  0.00    +0.000 C 
ATOM     12  C   UNL     1      -0.925  -0.335  25.051  0.00  0.00    +0.000 C 
ATOM     13  C   UNL     1      -1.509  -0.878  25.262  0.00  0.00    +0.003 C 
ATOM     14  C   UNL     1      -2.294  -0.632  25.333  0.00  0.00    +0.039 C 
ATOM     23  C   UNL     1      -2.493   0.157  25.192  0.00  0.00    +0.152 C 
ATOM     24  O   UNL     1      -3.277   0.403  25.262  0.00  0.00    -0.223 OA
ATOM     25  C   UNL     1      -1.908   0.698  24.980  0.00  0.00    +0.032 C 
ATOM     26  C   UNL     1      -2.108   1.487  24.839  0.00  0.00    +0.023 C 
ATOM     27  C   UNL     1      -2.891   1.733  24.909  0.00  0.00    +0.002 C 
ENDROOT
BRANCH   7   6
ATOM      3  N   UNL     1      -1.499   4.210  24.715  0.00  0.00    -0.187 NA
ATOM      4  C   UNL     1      -1.299   3.421  24.856  0.00  0.00    +0.339 C 
ATOM      5  O   UNL     1      -0.677   3.238  25.366  0.00  0.00    -0.249 OA
ATOM      6  N   UNL     1      -1.722   2.817  24.486  0.00  0.00    -0.189 NA
BRANCH   3   2
ATOM      1  C   UNL     1      -1.325   5.598  25.008  0.00  0.00    +0.025 C 
ATOM      2  C   UNL     1      -1.076   4.814  25.084  0.00  0.00    +0.117 C 
ENDBRANCH   3   2
ENDBRANCH   7   6
BRANCH  14  15
ATOM     15  C   UNL     1      -2.879  -1.173  25.544  0.00  0.00    +0.081 C 
ATOM     16  C   UNL     1      -3.242  -1.119  26.284  0.00  0.00    +0.010 C 
BRANCH  15  17
ATOM     17  C   UNL     1      -3.101  -1.767  25.018  0.00  0.00    +0.241 C 
ATOM     18  O   UNL     1      -2.596  -2.403  24.876  0.00  0.00    -0.273 OA
ATOM     19  N   UNL     1      -3.830  -1.725  24.633  0.00  0.00    -0.207 NA
BRANCH  19  20
ATOM     20  C   UNL     1      -4.053  -2.320  24.106  0.00  0.00    +0.095 C 
ATOM     21  C   UNL     1      -4.056  -3.115  23.885  0.00  0.00    +0.023 C 
ATOM     22  C   UNL     1      -4.436  -2.555  23.413  0.00  0.00    +0.023 C 
ENDBRANCH  19  20
ENDBRANCH  15  17
ENDBRANCH  14  15
TORSDOF 5
ENDMDL
MODEL 6
REMARK VINA RESULT:     -10.1      2.642      3.512
REMARK  Name = 
REMARK  5 active torsions:
REMARK  status: ('A' for Active; 'I' for Inactive)
REMARK    1  A    between atoms: C_2  and  N_3
REMARK    2  A    between atoms: N_6  and  C_7
REMARK    3  A    between atoms: C_14  and  C_15
REMARK    4  A    between atoms: C_15  and  C_17
REMARK    5  A    between atoms: N_19  and  C_20
REMARK                            x       y       z     vdW  Elec       q    Type
REMARK                         _______ _______ _______ _____ _____    ______ ____
ROOT
ATOM      7  C   UNL     1      -1.010  -0.795  24.749  0.00  0.00    +0.097 C 
ATOM      8  C   UNL     1      -0.593  -0.813  24.038  0.00  0.00    +0.022 C 
ATOM      9  C   UNL     1      -0.179  -0.146  23.786  0.00  0.00    +0.002 C 
ATOM     10  C   UNL     1      -0.182   0.540  24.244  0.00  0.00    +0.002 C 
ATOM     11  C   UNL     1       0.236   0.522  23.533  0.00  0.00    +0.000 C 
ATOM     12  C   UNL     1       0.232   1.207  23.992  0.00  0.00    +0.000 C 
ATOM     13  C   UNL     1       0.229   1.893  24.450  0.00  0.00    +0.003 C 
ATOM     14  C   UNL     1      -0.188   1.911  25.162  0.00  0.00    +0.039 C 
ATOM     23  C   UNL     1      -0.602   1.244  25.415  0.00  0.00    +0.152 C 
ATOM     24  O   UNL     1      -1.019   1.262  26.125  0.00  0.00    -0.223 OA
ATOM     25  C   UNL     1      -0.599   0.558  24.956  0.00  0.00    +0.032 C 
ATOM     26  C   UNL     1      -1.013  -0.109  25.209  0.00  0.00    +0.023 C 
ATOM     27  C   UNL     1      -1.430  -0.091  25.919  0.00  0.00    +0.002 C 
ENDROOT
BRANCH   7   6
ATOM      3  N   UNL     1      -2.466  -2.421  24.805  0.00  0.00    -0.187 NA
ATOM      4  C   UNL     1      -2.051  -1.753  24.552  0.00  0.00    +0.339 C 
ATOM      5  O   UNL     1      -2.265  -1.376  23.850  0.00  0.00    -0.249 OA
ATOM      6  N   UNL     1      -1.424  -1.463  25.002  0.00  0.00    -0.189 NA
BRANCH   3   2
ATOM      1  C   UNL     1      -3.663  -3.195  24.706  0.00  0.00    +0.025 C 
ATOM      2  C   UNL     1      -3.093  -2.711  24.355  0.00  0.00    +0.117 C 
ENDBRANCH   3   2
ENDBRANCH   7   6
BRANCH  14  15
ATOM     15  C   UNL     1      -0.192   2.597  25.621  0.00  0.00    +0.081 C 
ATOM     16  C   UNL     1       0.176   2.599  26.360  0.00  0.00    +0.010 C 
BRANCH  15  17
ATOM     17  C   UNL     1      -0.562   3.278  25.342  0.00  0.00    +0.241 C 
ATOM     18  O   UNL     1      -0.238   3.693  24.707  0.00  0.00    -0.273 OA
ATOM     19  N   UNL     1      -1.256   3.546  25.699  0.00  0.00    -0.207 NA
BRANCH  19  20
ATOM     20  C   UNL     1      -1.627   4.229  25.420  0.00  0.00    +0.095 C 
ATOM     21  C   UNL     1      -1.585   5.015  25.174  0.00  0.00    +0.023 C 
ATOM     22  C   UNL     1      -2.311   4.624  25.182  0.00  0.00    +0.023 C 
ENDBRANCH  19  20
ENDBRANCH  15  17
ENDBRANCH  14  15
TORSDOF 5
ENDMDL
MODEL 7
REMARK VINA RESULT:      -9.7      2.436      4.365
REMARK  Name = 
REMARK  5 active torsions:
REMARK  status: ('A' for Active; 'I' for Inactive)
REMARK    1  A    between atoms: C_2  and  N_3
REMARK    2  A    between atoms: N_6  and  C_7
REMARK    3  A    between atoms: C_14  and  C_15
REMARK    4  A    between atoms: C_15  and  C_17
REMARK    5  A    between atoms: N_19  and  C_20
REMARK                            x       y       z     vdW  Elec       q    Type
REMARK                         _______ _______ _______ _____ _____    ______ ____
ROOT
ATOM      7  C   UNL     1      -4.093   1.671  24.728  0.00  0.00    +0.097 C 
ATOM      8  C   UNL     1      -4.643   1.069  24.604  0.00  0.00    +0.022 C 
ATOM      9  C   UNL     1      -4.401   0.281  24.610  0.00  0.00    +0.002 C 
ATOM     10  C   UNL     1      -3.608   0.093  24.739  0.00  0.00    +0.002 C 
ATOM     11  C   UNL     1      -4.158  -0.508  24.615  0.00  0.00    +0.000 C 
ATOM     12  C   UNL     1      -3.365  -0.694  24.745  0.00  0.00    +0.000 C 
ATOM     13  C   UNL     1      -2.572  -0.882  24.875  0.00  0.00    +0.003 C 
ATOM     14  C   UNL     1      -2.022  -0.280  24.999  0.00  0.00    +0.039 C 
ATOM     23  C   UNL     1      -2.264   0.509  24.993  0.00  0.00    +0.152 C 
ATOM     24  O   UNL     1      -1.714   1.110  25.117  0.00  0.00    -0.223 OA
ATOM     25  C   UNL     1      -3.057   0.695  24.864  0.00  0.00    +0.032 C 
ATOM     26  C   UNL     1      -3.300   1.484  24.858  0.00  0.00    +0.023 C 
ATOM     27  C   UNL     1      -2.750   2.085  24.982  0.00  0.00    +0.002 C 
ENDROOT
BRANCH   7   6
ATOM      3  N   UNL     1      -5.212   3.488  25.188  0.00  0.00    -0.187 NA
ATOM      4  C   UNL     1      -4.970   2.699  25.193  0.00  0.00    +0.339 C 
ATOM      5  O   UNL     1      -5.361   2.150  25.669  0.00  0.00    -0.249 OA
ATOM      6  N   UNL     1      -4.335   2.460  24.723  0.00  0.00    -0.189 NA
BRANCH   3   2
ATOM      1  C   UNL     1      -6.089   4.516  25.651  0.00  0.00    +0.025 C 
ATOM      2  C   UNL     1      -5.846   3.727  25.658  0.00  0.00    +0.117 C 
ENDBRANCH   3   2
ENDBRANCH   7   6
BRANCH  14  15
ATOM     15  C   UNL     1      -1.229  -0.466  25.128  0.00  0.00    +0.081 C 
ATOM     16  C   UNL     1      -0.933  -0.497  25.899  0.00  0.00    +0.010 C 
BRANCH  15  17
ATOM     17  C   UNL     1      -0.732  -0.622  24.490  0.00  0.00    +0.241 C 
ATOM     18  O   UNL     1      -0.797  -1.334  24.080  0.00  0.00    -0.273 OA
ATOM     19  N   UNL     1      -0.168  -0.064  24.260  0.00  0.00    -0.207 NA
BRANCH  19  20
ATOM     20  C   UNL     1       0.330  -0.220  23.621  0.00  0.00    +0.095 C 
ATOM     21  C   UNL     1       0.586  -0.725  23.021  0.00  0.00    +0.023 C 
ATOM     22  C   UNL     1       0.936   0.017  23.113  0.00  0.00    +0.023 C 
ENDBRANCH  19  20
ENDBRANCH  15  17
ENDBRANCH  14  15
TORSDOF 5
ENDMDL
