MODEL 1
REMARK VINA RESULT:     -10.7      0.000      0.000
REMARK  Name = 
REMARK  8 active torsions:
REMARK  status: ('A' for Active; 'I' for Inactive)
REMARK    1  A    between atoms: O_2  and  C_3
REMARK    2  A    between atoms: C_3  and  C_4
REMARK    3  A    between atoms: C_6  and  C_7
REMARK    4  A    between atoms: C_7  and  C_8
REMARK    5  A    between atoms: C_13  and  C_14
REMARK    6  A    between atoms: C_14  and  N_15
REMARK    7  A    between atoms: N_15  and  C_16
REMARK    8  A    between atoms: C_16  and  C_17
REMARK                            x       y       z     vdW  Elec       q    Type
REMARK                         _______ _______ _______ _____ _____    ______ ____
ROOT
ATOM      8  C   UNL     1      -4.702   1.453  24.816  0.00  0.00    +0.121 C 
ATOM      9  C   UNL     1      -5.501   1.406  25.010  0.00  0.00    +0.033 C 
ATOM     10  C   UNL     1      -5.866   2.028  25.414  0.00  0.00    +0.038 C 
ATOM     11  C   UNL     1      -5.428   2.695  25.624  0.00  0.00    +0.180 C 
ATOM     12  O   UNL     1      -5.791   3.316  26.027  0.00  0.00    -0.220 OA
ATOM     13  C   UNL     1      -4.627   2.742  25.429  0.00  0.00    +0.163 C 
ATOM     24  O   UNL     1      -4.264   2.121  25.025  0.00  0.00    -0.354 OA
ENDROOT
BRANCH   8   7
ATOM      7  C   UNL     1      -4.338   0.832  24.412  0.00  0.00    +0.079 C 
BRANCH   7   6
ATOM      4  C   UNL     1      -2.884  -0.456  25.297  0.00  0.00    +0.184 A 
ATOM      5  C   UNL     1      -3.084   0.164  24.791  0.00  0.00    +0.056 A 
ATOM      6  C   UNL     1      -3.901   0.270  24.829  0.00  0.00    +0.103 A 
ATOM     25  N   UNL     1      -4.206  -0.284  25.358  0.00  0.00    -0.082 NA
ATOM     26  O   UNL     1      -3.578  -0.733  25.647  0.00  0.00    -0.356 OA
BRANCH   4   3
ATOM      3  C   UNL     1      -2.124  -0.748  25.429  0.00  0.00    +0.209 C 
BRANCH   3   2
ATOM      1  C   UNL     1      -1.032  -1.579  25.029  0.00  0.00    +0.175 C 
ATOM      2  O   UNL     1      -1.810  -1.324  24.928  0.00  0.00    -0.343 OA
ENDBRANCH   3   2
ENDBRANCH   4   3
ENDBRANCH   7   6
ENDBRANCH   8   7
BRANCH  13  14
ATOM     14  C   UNL     1      -4.190   3.409  25.638  0.00  0.00    +0.121 C 
BRANCH  14  15
ATOM     15  N   UNL     1      -3.389   3.455  25.447  0.00  0.00    -0.211 NA
BRANCH  15  16
ATOM     16  C   UNL     1      -2.898   3.980  25.851  0.00  0.00    +0.115 C 
BRANCH  16  17
ATOM     17  C   UNL     1      -2.127   4.110  25.587  0.00  0.00    -0.003 A 
ATOM     18  C   UNL     1      -1.572   3.500  25.618  0.00  0.00    -0.003 A 
ATOM     19  C   UNL     1      -0.801   3.629  25.354  0.00  0.00    +0.002 A 
ATOM     20  C   UNL     1      -0.586   4.369  25.058  0.00  0.00    +0.030 A 
ATOM     21  C   UNL     1      -1.140   4.978  25.026  0.00  0.00    +0.140 A 
ATOM     22  F   UNL     1      -0.925   5.717  24.730  0.00  0.00    -0.204 F 
ATOM     23  C   UNL     1      -1.911   4.848  25.291  0.00  0.00    +0.027 A 
ENDBRANCH  16  17
ENDBRANCH  15  16
ENDBRANCH  14  15
ENDBRANCH  13  14
TORSDOF 8
ENDMDL
MODEL 2
REMARK VINA RESULT:     -10.6      2.297      4.439
REMARK  Name = 
REMARK  8 active torsions:
REMARK  status: ('A' for Active; 'I' for Inactive)
REMARK    1  A    between atoms: O_2  and  C_3
REMARK    2  A    between atoms: C_3  and  C_4
REMARK    3  A    between atoms: C_6  and  C_7
REMARK    4  A    between atoms: C_7  and  C_8
REMARK    5  A    between atoms: C_13  and  C_14
REMARK    6  A    between atoms: C_14  and  N_15
REMARK    7  A    between atoms: N_15  and  C_16
REMARK    8  A    between atoms: C_16  and  C_17
REMARK                            x       y       z     vdW  Elec       q    Type
REMARK                         _______ _______ _______ _____ _____    ______ ____
ROOT
ATOM      8  C   UNL     1      -4.268   3.214  24.971  0.00  0.00    +0.121 C 
ATOM      9  C   UNL     1      -4.823   3.553  25.476  0.00  0.00    +0.033 C 
ATOM     10  C   UNL     1      -5.472   3.112  25.733  0.00  0.00    +0.038 C 
ATOM     11  C   UNL     1      -5.564   2.331  25.482  0.00  0.00    +0.180 C 
ATOM     12  O   UNL     1      -6.212   1.889  25.737  0.00  0.00    -0.220 OA
ATOM     13  C   UNL     1      -5.008   1.992  24.976  0.00  0.00    +0.163 C 
ATOM     24  O   UNL     1      -4.360   2.433  24.720  0.00  0.00    -0.354 OA
ENDROOT
BRANCH   8   7
ATOM      7  C   UNL     1      -3.619   3.655  24.715  0.00  0.00    +0.079 C 
BRANCH   7   6
ATOM      4  C   UNL     1      -1.673   3.471  25.572  0.00  0.00    +0.184 A 
ATOM      5  C   UNL     1      -2.210   3.319  24.964  0.00  0.00    +0.056 A 
ATOM      6  C   UNL     1      -2.928   3.670  25.165  0.00  0.00    +0.103 A 
ATOM     25  N   UNL     1      -2.835   4.039  25.897  0.00  0.00    -0.082 NA
ATOM     26  O   UNL     1      -2.060   3.916  26.149  0.00  0.00    -0.356 OA
BRANCH   4   3
ATOM      3  C   UNL     1      -0.887   3.222  25.598  0.00  0.00    +0.209 C 
BRANCH   3   2
ATOM      1  C   UNL     1       0.140   2.431  26.200  0.00  0.00    +0.175 C 
ATOM      2  O   UNL     1      -0.633   2.718  26.200  0.00  0.00    -0.343 OA
ENDBRANCH   3   2
ENDBRANCH   4   3
ENDBRANCH   7   6
ENDBRANCH   8   7
BRANCH  13  14
ATOM     14  C   UNL     1      -5.100   1.211  24.725  0.00  0.00    +0.121 C 
BRANCH  14  15
ATOM     15  N   UNL     1      -4.502   0.660  24.864  0.00  0.00    -0.211 NA
BRANCH  15  16
ATOM     16  C   UNL     1      -4.420   0.006  24.368  0.00  0.00    +0.115 C 
BRANCH  16  17
ATOM     17  C   UNL     1      -4.074  -0.687  24.652  0.00  0.00    -0.003 A 
ATOM     18  C   UNL     1      -3.687  -0.685  25.381  0.00  0.00    -0.003 A 
ATOM     19  C   UNL     1      -3.341  -1.377  25.666  0.00  0.00    +0.002 A 
ATOM     20  C   UNL     1      -3.381  -2.072  25.222  0.00  0.00    +0.030 A 
ATOM     21  C   UNL     1      -3.768  -2.073  24.493  0.00  0.00    +0.140 A 
ATOM     22  F   UNL     1      -3.808  -2.767  24.049  0.00  0.00    -0.204 F 
ATOM     23  C   UNL     1      -4.114  -1.380  24.208  0.00  0.00    +0.027 A 
ENDBRANCH  16  17
ENDBRANCH  15  16
ENDBRANCH  14  15
ENDBRANCH  13  14
TORSDOF 8
ENDMDL
MODEL 3
REMARK VINA RESULT:     -10.3      2.191      4.056
REMARK  Name = 
REMARK  8 active torsions:
REMARK  status: ('A' for Active; 'I' for Inactive)
REMARK    1  A    between atoms: O_2  and  C_3
REMARK    2  A    between atoms: C_3  and  C_4
REMARK    3  A    between atoms: C_6  and  C_7
REMARK    4  A    between atoms: C_7  and  C_8
REMARK    5  A    between atoms: C_13  and  C_14
REMARK    6  A    between atoms: C_14  and  N_15
REMARK    7  A    between atoms: N_15  and  C_16
REMARK    8  A    between atoms: C_16  and  C_17
REMARK                            x       y       z     vdW  Elec       q    Type
REMARK                         _______ _______ _______ _____ _____    ______ ____
ROOT
ATOM      8  C   UNL     1      -2.732   3.207  24.960  0.00  0.00    +0.121 C 
ATOM      9  C   UNL     1      -3.026   3.822  25.423  0.00  0.00    +0.033 C 
ATOM     10  C   UNL     1      -3.797   3.786  25.717  0.00  0.00    +0.038 C 
ATOM     11  C   UNL     1      -4.272   3.133  25.547  0.00  0.00    +0.180 C 
ATOM     12  O   UNL     1      -5.042   3.096  25.840  0.00  0.00    -0.220 OA
ATOM     13  C   UNL     1      -3.977   2.517  25.083  0.00  0.00    +0.163 C 
ATOM     24  O   UNL     1      -3.208   2.554  24.790  0.00  0.00    -0.354 OA
ENDROOT
BRANCH   8   7
ATOM      7  C   UNL     1      -1.962   3.243  24.666  0.00  0.00    +0.079 C 
BRANCH   7   6
ATOM      4  C   UNL     1      -0.602   1.606  24.839  0.00  0.00    +0.184 A 
ATOM      5  C   UNL     1      -1.146   2.049  24.403  0.00  0.00    +0.056 A 
ATOM      6  C   UNL     1      -1.413   2.666  24.880  0.00  0.00    +0.103 A 
ATOM     25  N   UNL     1      -1.034   2.605  25.611  0.00  0.00    -0.082 NA
ATOM     26  O   UNL     1      -0.533   1.950  25.585  0.00  0.00    -0.356 OA
BRANCH   4   3
ATOM      3  C   UNL     1      -0.198   0.937  24.574  0.00  0.00    +0.209 C 
BRANCH   3   2
ATOM      1  C   UNL     1      -0.193  -0.449  24.228  0.00  0.00    +0.175 C 
ATOM      2  O   UNL     1      -0.593   0.217  24.504  0.00  0.00    -0.343 OA
ENDBRANCH   3   2
ENDBRANCH   4   3
ENDBRANCH   7   6
ENDBRANCH   8   7
BRANCH  13  14
ATOM     14  C   UNL     1      -4.453   1.865  24.914  0.00  0.00    +0.121 C 
BRANCH  14  15
ATOM     15  N   UNL     1      -4.133   1.105  24.933  0.00  0.00    -0.211 NA
BRANCH  15  16
ATOM     16  C   UNL     1      -4.600   0.455  24.731  0.00  0.00    +0.115 C 
BRANCH  16  17
ATOM     17  C   UNL     1      -4.272  -0.302  24.725  0.00  0.00    -0.003 A 
ATOM     18  C   UNL     1      -4.248  -0.735  24.024  0.00  0.00    -0.003 A 
ATOM     19  C   UNL     1      -3.920  -1.492  24.017  0.00  0.00    +0.002 A 
ATOM     20  C   UNL     1      -3.617  -1.816  24.713  0.00  0.00    +0.030 A 
ATOM     21  C   UNL     1      -3.641  -1.383  25.414  0.00  0.00    +0.140 A 
ATOM     22  F   UNL     1      -3.338  -1.707  26.109  0.00  0.00    -0.204 F 
ATOM     23  C   UNL     1      -3.969  -0.626  25.420  0.00  0.00    +0.027 A 
ENDBRANCH  16  17
ENDBRANCH  15  16
ENDBRANCH  14  15
ENDBRANCH  13  14
TORSDOF 8
ENDMDL
MODEL 4
REMARK VINA RESULT:     -10.2      2.093      4.820
REMARK  Name = 
REMARK  8 active torsions:
REMARK  status: ('A' for Active; 'I' for Inactive)
REMARK    1  A    between atoms: O_2  and  C_3
REMARK    2  A    between atoms: C_3  and  C_4
REMARK    3  A    between atoms: C_6  and  C_7
REMARK    4  A    between atoms: C_7  and  C_8
REMARK    5  A    between atoms: C_13  and  C_14
REMARK    6  A    between atoms: C_14  and  N_15
REMARK    7  A    between atoms: N_15  and  C_16
REMARK    8  A    between atoms: C_16  and  C_17
REMARK                            x       y       z     vdW  Elec       q    Type
REMARK                         _______ _______ _______ _____ _____    ______ ____
ROOT
ATOM      8  C   UNL     1      -1.908   3.285  25.088  0.00  0.00    +0.121 C 
ATOM      9  C   UNL     1      -1.291   3.667  25.478  0.00  0.00    +0.033 C 
ATOM     10  C   UNL     1      -0.640   3.235  25.744  0.00  0.00    +0.038 C 
ATOM     11  C   UNL     1      -0.607   2.420  25.619  0.00  0.00    +0.180 C 
ATOM     12  O   UNL     1       0.043   1.988  25.884  0.00  0.00    -0.220 OA
ATOM     13  C   UNL     1      -1.226   2.038  25.228  0.00  0.00    +0.163 C 
ATOM     24  O   UNL     1      -1.876   2.470  24.962  0.00  0.00    -0.354 OA
ENDROOT
BRANCH   8   7
ATOM      7  C   UNL     1      -2.559   3.717  24.822  0.00  0.00    +0.079 C 
BRANCH   7   6
ATOM      4  C   UNL     1      -4.560   3.244  25.396  0.00  0.00    +0.184 A 
ATOM      5  C   UNL     1      -3.941   3.216  24.850  0.00  0.00    +0.056 A 
ATOM      6  C   UNL     1      -3.296   3.612  25.178  0.00  0.00    +0.103 A 
ATOM     25  N   UNL     1      -3.516   3.884  25.924  0.00  0.00    -0.082 NA
ATOM     26  O   UNL     1      -4.297   3.657  26.059  0.00  0.00    -0.356 OA
BRANCH   4   3
ATOM      3  C   UNL     1      -5.310   2.916  25.294  0.00  0.00    +0.209 C 
BRANCH   3   2
ATOM      1  C   UNL     1      -6.147   1.770  25.123  0.00  0.00    +0.175 C 
ATOM      2  O   UNL     1      -5.399   2.097  25.242  0.00  0.00    -0.343 OA
ENDBRANCH   3   2
ENDBRANCH   4   3
ENDBRANCH   7   6
ENDBRANCH   8   7
BRANCH  13  14
ATOM     14  C   UNL     1      -1.193   1.223  25.103  0.00  0.00    +0.121 C 
BRANCH  14  15
ATOM     15  N   UNL     1      -1.885   0.774  25.123  0.00  0.00    -0.211 NA
BRANCH  15  16
ATOM     16  C   UNL     1      -1.867  -0.022  24.906  0.00  0.00    +0.115 C 
BRANCH  16  17
ATOM     17  C   UNL     1      -2.560  -0.470  24.926  0.00  0.00    -0.003 A 
ATOM     18  C   UNL     1      -2.762  -0.885  25.609  0.00  0.00    -0.003 A 
ATOM     19  C   UNL     1      -3.454  -1.334  25.630  0.00  0.00    +0.002 A 
ATOM     20  C   UNL     1      -3.944  -1.366  24.967  0.00  0.00    +0.030 A 
ATOM     21  C   UNL     1      -3.742  -0.950  24.284  0.00  0.00    +0.140 A 
ATOM     22  F   UNL     1      -4.231  -0.983  23.621  0.00  0.00    -0.204 F 
ATOM     23  C   UNL     1      -3.049  -0.502  24.264  0.00  0.00    +0.027 A 
ENDBRANCH  16  17
ENDBRANCH  15  16
ENDBRANCH  14  15
ENDBRANCH  13  14
TORSDOF 8
ENDMDL
MODEL 5
REMARK VINA RESULT:     -10.2      1.844      3.810
REMARK  Name = 
REMARK  8 active torsions:
REMARK  status: ('A' for Active; 'I' for Inactive)
REMARK    1  A    between atoms: O_2  and  C_3
REMARK    2  A    between atoms: C_3  and  C_4
REMARK    3  A    between atoms: C_6  and  C_7
REMARK    4  A    between atoms: C_7  and  C_8
REMARK    5  A    between atoms: C_13  and  C_14
REMARK    6  A    between atoms: C_14  and  N_15
REMARK    7  A    between atoms: N_15  and  C_16
REMARK    8  A    between atoms: C_16  and  C_17
REMARK                            x       y       z     vdW  Elec       q    Type
REMARK                         _______ _______ _______ _____ _____    ______ ____
ROOT
ATOM      8  C   UNL     1      -2.475  -0.987  25.257  0.00  0.00    +0.121 C 
ATOM      9  C   UNL     1      -2.490  -1.748  24.941  0.00  0.00    +0.033 C 
ATOM     10  C   UNL     1      -3.152  -2.009  24.523  0.00  0.00    +0.038 C 
ATOM     11  C   UNL     1      -3.800  -1.507  24.422  0.00  0.00    +0.180 C 
ATOM     12  O   UNL     1      -4.462  -1.767  24.004  0.00  0.00    -0.220 OA
ATOM     13  C   UNL     1      -3.784  -0.745  24.738  0.00  0.00    +0.163 C 
ATOM     24  O   UNL     1      -3.122  -0.485  25.156  0.00  0.00    -0.354 OA
ENDROOT
BRANCH   8   7
ATOM      7  C   UNL     1      -1.813  -0.726  25.675  0.00  0.00    +0.079 C 
BRANCH   7   6
ATOM      4  C   UNL     1      -0.599   0.898  25.007  0.00  0.00    +0.184 A 
ATOM      5  C   UNL     1      -1.192   0.594  25.494  0.00  0.00    +0.056 A 
ATOM      6  C   UNL     1      -1.280  -0.207  25.319  0.00  0.00    +0.103 A 
ATOM     25  N   UNL     1      -0.742  -0.398  24.724  0.00  0.00    -0.082 NA
ATOM     26  O   UNL     1      -0.321   0.284  24.531  0.00  0.00    -0.356 OA
BRANCH   4   3
ATOM      3  C   UNL     1      -0.332   1.678  24.998  0.00  0.00    +0.209 C 
BRANCH   3   2
ATOM      1  C   UNL     1      -0.489   3.036  24.580  0.00  0.00    +0.175 C 
ATOM      2  O   UNL     1      -0.751   2.254  24.581  0.00  0.00    -0.343 OA
ENDBRANCH   3   2
ENDBRANCH   4   3
ENDBRANCH   7   6
ENDBRANCH   8   7
BRANCH  13  14
ATOM     14  C   UNL     1      -4.431  -0.243  24.637  0.00  0.00    +0.121 C 
BRANCH  14  15
ATOM     15  N   UNL     1      -4.388   0.542  24.885  0.00  0.00    -0.211 NA
BRANCH  15  16
ATOM     16  C   UNL     1      -4.984   1.073  24.681  0.00  0.00    +0.115 C 
BRANCH  16  17
ATOM     17  C   UNL     1      -4.936   1.861  24.923  0.00  0.00    -0.003 A 
ATOM     18  C   UNL     1      -5.402   2.129  25.549  0.00  0.00    -0.003 A 
ATOM     19  C   UNL     1      -5.354   2.916  25.791  0.00  0.00    +0.002 A 
ATOM     20  C   UNL     1      -4.840   3.435  25.407  0.00  0.00    +0.030 A 
ATOM     21  C   UNL     1      -4.374   3.167  24.782  0.00  0.00    +0.140 A 
ATOM     22  F   UNL     1      -3.860   3.686  24.398  0.00  0.00    -0.204 F 
ATOM     23  C   UNL     1      -4.422   2.380  24.540  0.00  0.00    +0.027 A 
ENDBRANCH  16  17
ENDBRANCH  15  16
ENDBRANCH  14  15
ENDBRANCH  13  14
TORSDOF 8
ENDMDL
MODEL 6
REMARK VINA RESULT:     -10.1      1.080      3.282
REMARK  Name = 
REMARK  8 active torsions:
REMARK  status: ('A' for Active; 'I' for Inactive)
REMARK    1  A    between atoms: O_2  and  C_3
REMARK    2  A    between atoms: C_3  and  C_4
REMARK    3  A    between atoms: C_6  and  C_7
REMARK    4  A    between atoms: C_7  and  C_8
REMARK    5  A    between atoms: C_13  and  C_14
REMARK    6  A    between atoms: C_14  and  N_15
REMARK    7  A    between atoms: N_15  and  C_16
REMARK    8  A    between atoms: C_16  and  C_17
REMARK                            x       y       z     vdW  Elec       q    Type
REMARK                         _______ _______ _______ _____ _____    ______ ____
ROOT
ATOM      8  C   UNL     1      -2.791   0.039  24.626  0.00  0.00    +0.121 C 
ATOM      9  C   UNL     1      -2.582  -0.726  24.849  0.00  0.00    +0.033 C 
ATOM     10  C   UNL     1      -1.867  -0.862  25.239  0.00  0.00    +0.038 C 
ATOM     11  C   UNL     1      -1.361  -0.231  25.404  0.00  0.00    +0.180 C 
ATOM     12  O   UNL     1      -0.647  -0.366  25.792  0.00  0.00    -0.220 OA
ATOM     13  C   UNL     1      -1.571   0.535  25.179  0.00  0.00    +0.163 C 
ATOM     24  O   UNL     1      -2.285   0.670  24.791  0.00  0.00    -0.354 OA
ENDROOT
BRANCH   8   7
ATOM      7  C   UNL     1      -3.506   0.175  24.237  0.00  0.00    +0.079 C 
BRANCH   7   6
ATOM      4  C   UNL     1      -5.007   1.497  24.984  0.00  0.00    +0.184 A 
ATOM      5  C   UNL     1      -4.391   1.327  24.461  0.00  0.00    +0.056 A 
ATOM      6  C   UNL     1      -4.118   0.567  24.627  0.00  0.00    +0.103 A 
ATOM     25  N   UNL     1      -4.565   0.267  25.252  0.00  0.00    -0.082 NA
ATOM     26  O   UNL     1      -5.114   0.841  25.473  0.00  0.00    -0.356 OA
BRANCH   4   3
ATOM      3  C   UNL     1      -5.439   2.199  25.013  0.00  0.00    +0.209 C 
BRANCH   3   2
ATOM      1  C   UNL     1      -5.703   3.460  25.631  0.00  0.00    +0.175 C 
ATOM      2  O   UNL     1      -5.341   2.718  25.646  0.00  0.00    -0.343 OA
ENDBRANCH   3   2
ENDBRANCH   4   3
ENDBRANCH   7   6
ENDBRANCH   8   7
BRANCH  13  14
ATOM     14  C   UNL     1      -1.065   1.166  25.344  0.00  0.00    +0.121 C 
BRANCH  14  15
ATOM     15  N   UNL     1      -1.349   1.940  25.319  0.00  0.00    -0.211 NA
BRANCH  15  16
ATOM     16  C   UNL     1      -0.875   2.562  25.582  0.00  0.00    +0.115 C 
BRANCH  16  17
ATOM     17  C   UNL     1      -1.121   3.342  25.473  0.00  0.00    -0.003 A 
ATOM     18  C   UNL     1      -1.850   3.589  25.770  0.00  0.00    -0.003 A 
ATOM     19  C   UNL     1      -2.097   4.369  25.662  0.00  0.00    +0.002 A 
ATOM     20  C   UNL     1      -1.614   4.901  25.256  0.00  0.00    +0.030 A 
ATOM     21  C   UNL     1      -0.885   4.654  24.959  0.00  0.00    +0.140 A 
ATOM     22  F   UNL     1      -0.403   5.186  24.554  0.00  0.00    -0.204 F 
ATOM     23  C   UNL     1      -0.639   3.874  25.068  0.00  0.00    +0.027 A 
ENDBRANCH  16  17
ENDBRANCH  15  16
ENDBRANCH  14  15
ENDBRANCH  13  14
TORSDOF 8
ENDMDL
