MODEL 1
REMARK VINA RESULT:     -10.1      0.000      0.000
REMARK  Name = 
REMARK  7 active torsions:
REMARK  status: ('A' for Active; 'I' for Inactive)
REMARK    1  A    between atoms: O_2  and  C_3
REMARK    2  A    between atoms: C_3  and  C_5
REMARK    3  A    between atoms: C_5  and  O_6
REMARK    4  A    between atoms: O_6  and  C_7
REMARK    5  A    between atoms: C_11  and  N_15
REMARK    6  A    between atoms: N_18  and  C_19
REMARK    7  A    between atoms: C_21  and  C_25
REMARK                            x       y       z     vdW  Elec       q    Type
REMARK                         _______ _______ _______ _____ _____    ______ ____
ROOT
ATOM      7  C   UNL     1      -3.171   3.697  24.967  0.00  0.00    +0.175 C 
ATOM      8  C   UNL     1      -3.671   3.587  25.615  0.00  0.00    +0.174 C 
ATOM      9  O   UNL     1      -4.028   2.847  25.538  0.00  0.00    -0.349 OA
ATOM     10  C   UNL     1      -3.749   2.500  24.843  0.00  0.00    +0.167 C 
ATOM     11  C   UNL     1      -3.797   1.830  24.366  0.00  0.00    +0.156 C 
ATOM     12  C   UNL     1      -3.298   1.940  23.719  0.00  0.00    +0.166 C 
ATOM     13  O   UNL     1      -2.941   2.680  23.795  0.00  0.00    -0.349 OA
ATOM     14  C   UNL     1      -3.220   3.026  24.491  0.00  0.00    +0.173 C 
ENDROOT
BRANCH  11  15
ATOM     15  N   UNL     1      -4.264   1.164  24.511  0.00  0.00    -0.184 NA
ATOM     16  C   UNL     1      -3.907   0.438  24.673  0.00  0.00    +0.344 C 
ATOM     17  O   UNL     1      -3.084   0.377  24.690  0.00  0.00    -0.249 OA
ATOM     18  N   UNL     1      -4.374  -0.227  24.818  0.00  0.00    -0.161 NA
BRANCH  18  19
ATOM     19  C   UNL     1      -4.017  -0.953  24.980  0.00  0.00    +0.075 A 
ATOM     20  C   UNL     1      -4.009  -1.546  24.405  0.00  0.00    +0.021 A 
ATOM     21  C   UNL     1      -3.652  -2.272  24.568  0.00  0.00    +0.073 A 
ATOM     22  C   UNL     1      -3.303  -2.405  25.303  0.00  0.00    +0.004 A 
ATOM     23  C   UNL     1      -3.310  -1.813  25.876  0.00  0.00    +0.001 A 
ATOM     24  C   UNL     1      -3.667  -1.086  25.715  0.00  0.00    +0.017 A 
BRANCH  21  25
ATOM     25  C   UNL     1      -3.644  -2.865  23.993  0.00  0.00    +0.419 C 
ATOM     26  F   UNL     1      -3.636  -3.457  23.420  0.00  0.00    -0.166 F 
ATOM     27  F   UNL     1      -2.819  -2.877  24.018  0.00  0.00    -0.166 F 
ATOM     28  F   UNL     1      -4.469  -2.851  23.969  0.00  0.00    -0.166 F 
ENDBRANCH  21  25
ENDBRANCH  18  19
ENDBRANCH  11  15
BRANCH   7   6
ATOM      6  O   UNL     1      -2.705   4.362  24.823  0.00  0.00    -0.340 OA
BRANCH   6   5
ATOM      5  C   UNL     1      -2.128   4.588  25.367  0.00  0.00    +0.252 C 
BRANCH   5   3
ATOM      3  C   UNL     1      -1.526   5.104  25.140  0.00  0.00    +0.348 C 
ATOM      4  O   UNL     1      -1.676   5.913  25.083  0.00  0.00    -0.247 OA
BRANCH   3   2
ATOM      1  C   UNL     1      -0.217   5.293  24.598  0.00  0.00    +0.256 C 
ATOM      2  O   UNL     1      -0.773   4.811  24.970  0.00  0.00    -0.443 OA
ENDBRANCH   3   2
ENDBRANCH   5   3
ENDBRANCH   6   5
ENDBRANCH   7   6
TORSDOF 7
ENDMDL
MODEL 2
REMARK VINA RESULT:      -9.8      3.878      4.941
REMARK  Name = 
REMARK  7 active torsions:
REMARK  status: ('A' for Active; 'I' for Inactive)
REMARK    1  A    between atoms: O_2  and  C_3
REMARK    2  A    between atoms: C_3  and  C_5
REMARK    3  A    between atoms: C_5  and  O_6
REMARK    4  A    between atoms: O_6  and  C_7
REMARK    5  A    between atoms: C_11  and  N_15
REMARK    6  A    between atoms: N_18  and  C_19
REMARK    7  A    between atoms: C_21  and  C_25
REMARK                            x       y       z     vdW  Elec       q    Type
REMARK                         _______ _______ _______ _____ _____    ______ ____
ROOT
ATOM      7  C   UNL     1       0.145   0.163  23.485  0.00  0.00    +0.175 C 
ATOM      8  C   UNL     1       0.045  -0.449  24.030  0.00  0.00    +0.174 C 
ATOM      9  O   UNL     1      -0.608  -0.267  24.500  0.00  0.00    -0.349 OA
ATOM     10  C   UNL     1      -0.911   0.457  24.247  0.00  0.00    +0.167 C 
ATOM     11  C   UNL     1      -1.502   1.017  24.381  0.00  0.00    +0.156 C 
ATOM     12  C   UNL     1      -1.402   1.629  23.837  0.00  0.00    +0.166 C 
ATOM     13  O   UNL     1      -0.749   1.447  23.366  0.00  0.00    -0.349 OA
ATOM     14  C   UNL     1      -0.446   0.723  23.620  0.00  0.00    +0.173 C 
ENDROOT
BRANCH  11  15
ATOM     15  N   UNL     1      -2.090   0.973  24.959  0.00  0.00    -0.184 NA
ATOM     16  C   UNL     1      -2.850   1.246  24.794  0.00  0.00    +0.344 C 
ATOM     17  O   UNL     1      -3.024   1.563  24.052  0.00  0.00    -0.249 OA
ATOM     18  N   UNL     1      -3.438   1.202  25.372  0.00  0.00    -0.161 NA
BRANCH  18  19
ATOM     19  C   UNL     1      -4.199   1.475  25.207  0.00  0.00    +0.075 A 
ATOM     20  C   UNL     1      -4.419   2.239  25.428  0.00  0.00    +0.021 A 
ATOM     21  C   UNL     1      -5.180   2.512  25.263  0.00  0.00    +0.073 A 
ATOM     22  C   UNL     1      -5.720   2.022  24.877  0.00  0.00    +0.004 A 
ATOM     23  C   UNL     1      -5.500   1.259  24.657  0.00  0.00    +0.001 A 
ATOM     24  C   UNL     1      -4.739   0.985  24.822  0.00  0.00    +0.017 A 
BRANCH  21  25
ATOM     25  C   UNL     1      -5.401   3.277  25.484  0.00  0.00    +0.419 C 
ATOM     26  F   UNL     1      -5.621   4.040  25.704  0.00  0.00    -0.166 F 
ATOM     27  F   UNL     1      -5.685   2.986  26.202  0.00  0.00    -0.166 F 
ATOM     28  F   UNL     1      -5.116   3.566  24.765  0.00  0.00    -0.166 F 
ENDBRANCH  21  25
ENDBRANCH  18  19
ENDBRANCH  11  15
BRANCH   7   6
ATOM      6  O   UNL     1       0.732   0.207  22.908  0.00  0.00    -0.340 OA
BRANCH   6   5
ATOM      5  C   UNL     1       1.497  -0.052  23.077  0.00  0.00    +0.252 C 
BRANCH   5   3
ATOM      3  C   UNL     1       2.116   0.124  22.562  0.00  0.00    +0.348 C 
ATOM      4  O   UNL     1       2.095  -0.148  21.784  0.00  0.00    -0.247 OA
BRANCH   3   2
ATOM      1  C   UNL     1       3.497   0.480  22.475  0.00  0.00    +0.256 C 
ATOM      2  O   UNL     1       2.756   0.574  22.824  0.00  0.00    -0.443 OA
ENDBRANCH   3   2
ENDBRANCH   5   3
ENDBRANCH   6   5
ENDBRANCH   7   6
TORSDOF 7
ENDMDL
MODEL 3
REMARK VINA RESULT:      -9.6      1.806      2.089
REMARK  Name = 
REMARK  7 active torsions:
REMARK  status: ('A' for Active; 'I' for Inactive)
REMARK    1  A    between atoms: O_2  and  C_3
REMARK    2  A    between atoms: C_3  and  C_5
REMARK    3  A    between atoms: C_5  and  O_6
REMARK    4  A    between atoms: O_6  and  C_7
REMARK    5  A    between atoms: C_11  and  N_15
REMARK    6  A    between atoms: N_18  and  C_19
REMARK    7  A    between atoms: C_21  and  C_25
REMARK                            x       y       z     vdW  Elec       q    Type
REMARK                         _______ _______ _______ _____ _____    ______ ____
ROOT
ATOM      7  C   UNL     1      -0.422   2.753  24.711  0.00  0.00    +0.175 C 
ATOM      8  C   UNL     1      -0.014   2.357  25.310  0.00  0.00    +0.174 C 
ATOM      9  O   UNL     1      -0.161   1.549  25.225  0.00  0.00    -0.349 OA
ATOM     10  C   UNL     1      -0.658   1.446  24.576  0.00  0.00    +0.167 C 
ATOM     11  C   UNL     1      -1.056   0.884  24.122  0.00  0.00    +0.156 C 
ATOM     12  C   UNL     1      -1.463   1.280  23.524  0.00  0.00    +0.166 C 
ATOM     13  O   UNL     1      -1.317   2.088  23.608  0.00  0.00    -0.349 OA
ATOM     14  C   UNL     1      -0.819   2.190  24.258  0.00  0.00    +0.173 C 
ENDROOT
BRANCH  11  15
ATOM     15  N   UNL     1      -1.049   0.068  24.245  0.00  0.00    -0.184 NA
ATOM     16  C   UNL     1      -1.738  -0.320  24.480  0.00  0.00    +0.344 C 
ATOM     17  O   UNL     1      -2.434   0.108  24.592  0.00  0.00    -0.249 OA
ATOM     18  N   UNL     1      -1.730  -1.136  24.603  0.00  0.00    -0.161 NA
BRANCH  18  19
ATOM     19  C   UNL     1      -2.419  -1.523  24.839  0.00  0.00    +0.075 A 
ATOM     20  C   UNL     1      -2.902  -1.885  24.274  0.00  0.00    +0.021 A 
ATOM     21  C   UNL     1      -3.591  -2.272  24.510  0.00  0.00    +0.073 A 
ATOM     22  C   UNL     1      -3.798  -2.299  25.308  0.00  0.00    +0.004 A 
ATOM     23  C   UNL     1      -3.316  -1.938  25.871  0.00  0.00    +0.001 A 
ATOM     24  C   UNL     1      -2.626  -1.550  25.637  0.00  0.00    +0.017 A 
BRANCH  21  25
ATOM     25  C   UNL     1      -4.074  -2.634  23.946  0.00  0.00    +0.419 C 
ATOM     26  F   UNL     1      -4.555  -2.995  23.382  0.00  0.00    -0.166 F 
ATOM     27  F   UNL     1      -3.640  -3.331  24.022  0.00  0.00    -0.166 F 
ATOM     28  F   UNL     1      -4.507  -1.936  23.870  0.00  0.00    -0.166 F 
ENDBRANCH  21  25
ENDBRANCH  18  19
ENDBRANCH  11  15
BRANCH   7   6
ATOM      6  O   UNL     1      -0.429   3.568  24.589  0.00  0.00    -0.340 OA
BRANCH   6   5
ATOM      5  C   UNL     1      -0.664   4.076  25.196  0.00  0.00    +0.252 C 
BRANCH   5   3
ATOM      3  C   UNL     1      -0.913   4.842  25.021  0.00  0.00    +0.348 C 
ATOM      4  O   UNL     1      -0.428   5.342  24.579  0.00  0.00    -0.247 OA
BRANCH   3   2
ATOM      1  C   UNL     1      -1.885   5.883  25.133  0.00  0.00    +0.256 C 
ATOM      2  O   UNL     1      -1.646   5.109  25.287  0.00  0.00    -0.443 OA
ENDBRANCH   3   2
ENDBRANCH   5   3
ENDBRANCH   6   5
ENDBRANCH   7   6
TORSDOF 7
ENDMDL
MODEL 4
REMARK VINA RESULT:      -9.6      3.407      6.200
REMARK  Name = 
REMARK  7 active torsions:
REMARK  status: ('A' for Active; 'I' for Inactive)
REMARK    1  A    between atoms: O_2  and  C_3
REMARK    2  A    between atoms: C_3  and  C_5
REMARK    3  A    between atoms: C_5  and  O_6
REMARK    4  A    between atoms: O_6  and  C_7
REMARK    5  A    between atoms: C_11  and  N_15
REMARK    6  A    between atoms: N_18  and  C_19
REMARK    7  A    between atoms: C_21  and  C_25
REMARK                            x       y       z     vdW  Elec       q    Type
REMARK                         _______ _______ _______ _____ _____    ______ ____
ROOT
ATOM      7  C   UNL     1      -1.147  -0.977  24.973  0.00  0.00    +0.175 C 
ATOM      8  C   UNL     1      -1.212  -0.844  25.785  0.00  0.00    +0.174 C 
ATOM      9  O   UNL     1      -0.961  -0.073  25.937  0.00  0.00    -0.349 OA
ATOM     10  C   UNL     1      -0.742   0.270  25.220  0.00  0.00    +0.167 C 
ATOM     11  C   UNL     1      -0.451   0.958  24.870  0.00  0.00    +0.156 C 
ATOM     12  C   UNL     1      -0.387   0.826  24.059  0.00  0.00    +0.166 C 
ATOM     13  O   UNL     1      -0.637   0.054  23.906  0.00  0.00    -0.349 OA
ATOM     14  C   UNL     1      -0.857  -0.288  24.624  0.00  0.00    +0.173 C 
ENDROOT
BRANCH  11  15
ATOM     15  N   UNL     1      -0.259   1.658  25.264  0.00  0.00    -0.184 NA
ATOM     16  C   UNL     1      -0.720   2.333  25.154  0.00  0.00    +0.344 C 
ATOM     17  O   UNL     1      -1.373   2.309  24.650  0.00  0.00    -0.249 OA
ATOM     18  N   UNL     1      -0.528   3.033  25.548  0.00  0.00    -0.161 NA
BRANCH  18  19
ATOM     19  C   UNL     1      -0.989   3.708  25.437  0.00  0.00    +0.075 A 
ATOM     20  C   UNL     1      -1.761   3.731  25.728  0.00  0.00    +0.021 A 
ATOM     21  C   UNL     1      -2.222   4.406  25.617  0.00  0.00    +0.073 A 
ATOM     22  C   UNL     1      -1.912   5.057  25.216  0.00  0.00    +0.004 A 
ATOM     23  C   UNL     1      -1.141   5.033  24.926  0.00  0.00    +0.001 A 
ATOM     24  C   UNL     1      -0.679   4.359  25.036  0.00  0.00    +0.017 A 
BRANCH  21  25
ATOM     25  C   UNL     1      -2.995   4.430  25.908  0.00  0.00    +0.419 C 
ATOM     26  F   UNL     1      -3.766   4.454  26.198  0.00  0.00    -0.166 F 
ATOM     27  F   UNL     1      -2.702   4.461  26.679  0.00  0.00    -0.166 F 
ATOM     28  F   UNL     1      -3.285   4.399  25.136  0.00  0.00    -0.166 F 
ENDBRANCH  21  25
ENDBRANCH  18  19
ENDBRANCH  11  15
BRANCH   7   6
ATOM      6  O   UNL     1      -1.339  -1.676  24.580  0.00  0.00    -0.340 OA
BRANCH   6   5
ATOM      5  C   UNL     1      -1.977  -2.133  24.836  0.00  0.00    +0.252 C 
BRANCH   5   3
ATOM      3  C   UNL     1      -2.388  -2.606  24.300  0.00  0.00    +0.348 C 
ATOM      4  O   UNL     1      -2.001  -3.225  23.916  0.00  0.00    -0.247 OA
BRANCH   3   2
ATOM      1  C   UNL     1      -3.741  -3.063  24.244  0.00  0.00    +0.256 C 
ATOM      2  O   UNL     1      -3.186  -2.461  24.148  0.00  0.00    -0.443 OA
ENDBRANCH   3   2
ENDBRANCH   5   3
ENDBRANCH   6   5
ENDBRANCH   7   6
TORSDOF 7
ENDMDL
MODEL 5
REMARK VINA RESULT:      -9.3      3.858      4.398
REMARK  Name = 
REMARK  7 active torsions:
REMARK  status: ('A' for Active; 'I' for Inactive)
REMARK    1  A    between atoms: O_2  and  C_3
REMARK    2  A    between atoms: C_3  and  C_5
REMARK    3  A    between atoms: C_5  and  O_6
REMARK    4  A    between atoms: O_6  and  C_7
REMARK    5  A    between atoms: C_11  and  N_15
REMARK    6  A    between atoms: N_18  and  C_19
REMARK    7  A    between atoms: C_21  and  C_25
REMARK                            x       y       z     vdW  Elec       q    Type
REMARK                         _______ _______ _______ _____ _____    ______ ____
ROOT
ATOM      7  C   UNL     1       1.504   0.535  23.187  0.00  0.00    +0.175 C 
ATOM      8  C   UNL     1       1.188   0.065  22.587  0.00  0.00    +0.174 C 
ATOM      9  O   UNL     1       0.369   0.044  22.686  0.00  0.00    -0.349 OA
ATOM     10  C   UNL     1       0.178   0.501  23.345  0.00  0.00    +0.167 C 
ATOM     11  C   UNL     1      -0.444   0.771  23.814  0.00  0.00    +0.156 C 
ATOM     12  C   UNL     1      -0.128   1.241  24.413  0.00  0.00    +0.166 C 
ATOM     13  O   UNL     1       0.691   1.263  24.315  0.00  0.00    -0.349 OA
ATOM     14  C   UNL     1       0.880   0.805  23.655  0.00  0.00    +0.173 C 
ENDROOT
BRANCH  11  15
ATOM     15  N   UNL     1      -1.244   0.600  23.702  0.00  0.00    -0.184 NA
ATOM     16  C   UNL     1      -1.632   0.090  24.221  0.00  0.00    +0.344 C 
ATOM     17  O   UNL     1      -1.222  -0.249  24.851  0.00  0.00    -0.249 OA
ATOM     18  N   UNL     1      -2.433  -0.081  24.109  0.00  0.00    -0.161 NA
BRANCH  18  19
ATOM     19  C   UNL     1      -2.821  -0.591  24.628  0.00  0.00    +0.075 A 
ATOM     20  C   UNL     1      -3.019  -1.355  24.384  0.00  0.00    +0.021 A 
ATOM     21  C   UNL     1      -3.407  -1.865  24.903  0.00  0.00    +0.073 A 
ATOM     22  C   UNL     1      -3.598  -1.613  25.665  0.00  0.00    +0.004 A 
ATOM     23  C   UNL     1      -3.400  -0.850  25.909  0.00  0.00    +0.001 A 
ATOM     24  C   UNL     1      -3.011  -0.339  25.390  0.00  0.00    +0.017 A 
BRANCH  21  25
ATOM     25  C   UNL     1      -3.605  -2.629  24.660  0.00  0.00    +0.419 C 
ATOM     26  F   UNL     1      -3.803  -3.391  24.416  0.00  0.00    -0.166 F 
ATOM     27  F   UNL     1      -4.234  -2.324  24.220  0.00  0.00    -0.166 F 
ATOM     28  F   UNL     1      -2.976  -2.931  25.099  0.00  0.00    -0.166 F 
ENDBRANCH  21  25
ENDBRANCH  18  19
ENDBRANCH  11  15
BRANCH   7   6
ATOM      6  O   UNL     1       2.303   0.706  23.298  0.00  0.00    -0.340 OA
BRANCH   6   5
ATOM      5  C   UNL     1       2.867   0.401  22.779  0.00  0.00    +0.252 C 
BRANCH   5   3
ATOM      3  C   UNL     1       3.661   0.604  22.866  0.00  0.00    +0.348 C 
ATOM      4  O   UNL     1       3.912   1.370  22.691  0.00  0.00    -0.247 OA
BRANCH   3   2
ATOM      1  C   UNL     1       5.008   0.226  23.156  0.00  0.00    +0.256 C 
ATOM      2  O   UNL     1       4.205   0.042  23.128  0.00  0.00    -0.443 OA
ENDBRANCH   3   2
ENDBRANCH   5   3
ENDBRANCH   6   5
ENDBRANCH   7   6
TORSDOF 7
ENDMDL
MODEL 6
REMARK VINA RESULT:      -9.0      3.024      5.994
REMARK  Name = 
REMARK  7 active torsions:
REMARK  status: ('A' for Active; 'I' for Inactive)
REMARK    1  A    between atoms: O_2  and  C_3
REMARK    2  A    between atoms: C_3  and  C_5
REMARK    3  A    between atoms: C_5  and  O_6
REMARK    4  A    between atoms: O_6  and  C_7
REMARK    5  A    between atoms: C_11  and  N_15
REMARK    6  A    between atoms: N_18  and  C_19
REMARK    7  A    between atoms: C_21  and  C_25
REMARK                            x       y       z     vdW  Elec       q    Type
REMARK                         _______ _______ _______ _____ _____    ______ ____
ROOT
ATOM      7  C   UNL     1      -3.953  -0.537  24.076  0.00  0.00    +0.175 C 
ATOM      8  C   UNL     1      -3.537  -0.246  23.425  0.00  0.00    +0.174 C 
ATOM      9  O   UNL     1      -3.564   0.578  23.455  0.00  0.00    -0.349 OA
ATOM     10  C   UNL     1      -3.996   0.796  24.123  0.00  0.00    +0.167 C 
ATOM     11  C   UNL     1      -4.280   1.439  24.554  0.00  0.00    +0.156 C 
ATOM     12  C   UNL     1      -4.695   1.148  25.204  0.00  0.00    +0.166 C 
ATOM     13  O   UNL     1      -4.669   0.323  25.175  0.00  0.00    -0.349 OA
ATOM     14  C   UNL     1      -4.236   0.107  24.506  0.00  0.00    +0.173 C 
ENDROOT
BRANCH  11  15
ATOM     15  N   UNL     1      -4.168   2.236  24.368  0.00  0.00    -0.184 NA
ATOM     16  C   UNL     1      -3.672   2.702  24.834  0.00  0.00    +0.344 C 
ATOM     17  O   UNL     1      -3.289   2.373  25.486  0.00  0.00    -0.249 OA
ATOM     18  N   UNL     1      -3.560   3.498  24.647  0.00  0.00    -0.161 NA
BRANCH  18  19
ATOM     19  C   UNL     1      -3.064   3.964  25.114  0.00  0.00    +0.075 A 
ATOM     20  C   UNL     1      -2.343   4.229  24.811  0.00  0.00    +0.021 A 
ATOM     21  C   UNL     1      -1.847   4.696  25.277  0.00  0.00    +0.073 A 
ATOM     22  C   UNL     1      -2.072   4.897  26.045  0.00  0.00    +0.004 A 
ATOM     23  C   UNL     1      -2.792   4.632  26.347  0.00  0.00    +0.001 A 
ATOM     24  C   UNL     1      -3.289   4.166  25.881  0.00  0.00    +0.017 A 
BRANCH  21  25
ATOM     25  C   UNL     1      -1.126   4.961  24.975  0.00  0.00    +0.419 C 
ATOM     26  F   UNL     1      -0.406   5.225  24.673  0.00  0.00    -0.166 F 
ATOM     27  F   UNL     1      -0.784   4.231  25.154  0.00  0.00    -0.166 F 
ATOM     28  F   UNL     1      -1.469   5.689  24.797  0.00  0.00    -0.166 F 
ENDBRANCH  21  25
ENDBRANCH  18  19
ENDBRANCH  11  15
BRANCH   7   6
ATOM      6  O   UNL     1      -4.065  -1.333  24.262  0.00  0.00    -0.340 OA
BRANCH   6   5
ATOM      5  C   UNL     1      -3.513  -1.896  24.018  0.00  0.00    +0.252 C 
BRANCH   5   3
ATOM      3  C   UNL     1      -3.467  -2.623  24.405  0.00  0.00    +0.348 C 
ATOM      4  O   UNL     1      -4.031  -3.206  24.255  0.00  0.00    -0.247 OA
BRANCH   3   2
ATOM      1  C   UNL     1      -2.147  -3.098  24.680  0.00  0.00    +0.256 C 
ATOM      2  O   UNL     1      -2.856  -2.767  24.941  0.00  0.00    -0.443 OA
ENDBRANCH   3   2
ENDBRANCH   5   3
ENDBRANCH   6   5
ENDBRANCH   7   6
TORSDOF 7
ENDMDL
MODEL 7
REMARK VINA RESULT:      -7.1     14.564     16.376
REMARK  Name = 
REMARK  7 active torsions:
REMARK  status: ('A' for Active; 'I' for Inactive)
REMARK    1  A    between atoms: O_2  and  C_3
REMARK    2  A    between atoms: C_3  and  C_5
REMARK    3  A    between atoms: C_5  and  O_6
REMARK    4  A    between atoms: O_6  and  C_7
REMARK    5  A    between atoms: C_11  and  N_15
REMARK    6  A    between atoms: N_18  and  C_19
REMARK    7  A    between atoms: C_21  and  C_25
REMARK                            x       y       z     vdW  Elec       q    Type
REMARK                         _______ _______ _______ _____ _____    ______ ____
ROOT
ATOM      7  C   UNL     1      -5.825 -10.001  15.890  0.00  0.00    +0.175 C 
ATOM      8  C   UNL     1      -5.167 -10.390  16.201  0.00  0.00    +0.174 C 
ATOM      9  O   UNL     1      -4.702 -10.647  15.571  0.00  0.00    -0.349 OA
ATOM     10  C   UNL     1      -5.071 -10.418  14.870  0.00  0.00    +0.167 C 
ATOM     11  C   UNL     1      -5.013 -10.436  14.048  0.00  0.00    +0.156 C 
ATOM     12  C   UNL     1      -5.670 -10.047  13.736  0.00  0.00    +0.166 C 
ATOM     13  O   UNL     1      -6.136  -9.789  14.366  0.00  0.00    -0.349 OA
ATOM     14  C   UNL     1      -5.766 -10.019  15.067  0.00  0.00    +0.173 C 
ENDROOT
BRANCH  11  15
ATOM     15  N   UNL     1      -4.402 -10.781  13.612  0.00  0.00    -0.184 NA
ATOM     16  C   UNL     1      -4.145 -10.430  12.912  0.00  0.00    +0.344 C 
ATOM     17  O   UNL     1      -4.498  -9.733  12.646  0.00  0.00    -0.249 OA
ATOM     18  N   UNL     1      -3.535 -10.775  12.476  0.00  0.00    -0.161 NA
BRANCH  18  19
ATOM     19  C   UNL     1      -3.278 -10.424  11.776  0.00  0.00    +0.075 A 
ATOM     20  C   UNL     1      -2.557 -10.023  11.756  0.00  0.00    +0.021 A 
ATOM     21  C   UNL     1      -2.300  -9.671  11.055  0.00  0.00    +0.073 A 
ATOM     22  C   UNL     1      -2.764  -9.719  10.375  0.00  0.00    +0.004 A 
ATOM     23  C   UNL     1      -3.485 -10.119  10.395  0.00  0.00    +0.001 A 
ATOM     24  C   UNL     1      -3.742 -10.472  11.095  0.00  0.00    +0.017 A 
BRANCH  21  25
ATOM     25  C   UNL     1      -1.578  -9.271  11.036  0.00  0.00    +0.419 C 
ATOM     26  F   UNL     1      -0.858  -8.870  11.016  0.00  0.00    -0.166 F 
ATOM     27  F   UNL     1      -1.955  -8.610  10.715  0.00  0.00    -0.166 F 
ATOM     28  F   UNL     1      -1.203  -9.932  11.356  0.00  0.00    -0.166 F 
ENDBRANCH  21  25
ENDBRANCH  18  19
ENDBRANCH  11  15
BRANCH   7   6
ATOM      6  O   UNL     1      -6.435  -9.656  16.325  0.00  0.00    -0.340 OA
BRANCH   6   5
ATOM      5  C   UNL     1      -6.653  -9.974  17.054  0.00  0.00    +0.252 C 
BRANCH   5   3
ATOM      3  C   UNL     1      -7.319  -9.687  17.447  0.00  0.00    +0.348 C 
ATOM      4  O   UNL     1      -7.658  -8.971  17.215  0.00  0.00    -0.247 OA
BRANCH   3   2
ATOM      1  C   UNL     1      -8.456 -10.077  18.219  0.00  0.00    +0.256 C 
ATOM      2  O   UNL     1      -7.646 -10.114  18.073  0.00  0.00    -0.443 OA
ENDBRANCH   3   2
ENDBRANCH   5   3
ENDBRANCH   6   5
ENDBRANCH   7   6
TORSDOF 7
ENDMDL
MODEL 8
REMARK VINA RESULT:      -6.8     14.063     14.778
REMARK  Name = 
REMARK  7 active torsions:
REMARK  status: ('A' for Active; 'I' for Inactive)
REMARK    1  A    between atoms: O_2  and  C_3
REMARK    2  A    between atoms: C_3  and  C_5
REMARK    3  A    between atoms: C_5  and  O_6
REMARK    4  A    between atoms: O_6  and  C_7
REMARK    5  A    between atoms: C_11  and  N_15
REMARK    6  A    between atoms: N_18  and  C_19
REMARK    7  A    between atoms: C_21  and  C_25
REMARK                            x       y       z     vdW  Elec       q    Type
REMARK                         _______ _______ _______ _____ _____    ______ ____
ROOT
ATOM      7  C   UNL     1      -4.116 -10.513  15.988  0.00  0.00    +0.175 C 
ATOM      8  C   UNL     1      -4.376 -10.765  15.246  0.00  0.00    +0.174 C 
ATOM      9  O   UNL     1      -5.200 -10.723  15.237  0.00  0.00    -0.349 OA
ATOM     10  C   UNL     1      -5.450 -10.444  15.973  0.00  0.00    +0.167 C 
ATOM     11  C   UNL     1      -6.112 -10.246  16.422  0.00  0.00    +0.156 C 
ATOM     12  C   UNL     1      -5.853  -9.994  17.162  0.00  0.00    +0.166 C 
ATOM     13  O   UNL     1      -5.029 -10.036  17.172  0.00  0.00    -0.349 OA
ATOM     14  C   UNL     1      -4.780 -10.315  16.436  0.00  0.00    +0.173 C 
ENDROOT
BRANCH  11  15
ATOM     15  N   UNL     1      -6.898 -10.292  16.172  0.00  0.00    -0.184 NA
ATOM     16  C   UNL     1      -7.457  -9.764  16.471  0.00  0.00    +0.344 C 
ATOM     17  O   UNL     1      -7.230  -9.189  17.018  0.00  0.00    -0.249 OA
ATOM     18  N   UNL     1      -8.242  -9.810  16.222  0.00  0.00    -0.161 NA
BRANCH  18  19
ATOM     19  C   UNL     1      -8.801  -9.281  16.520  0.00  0.00    +0.075 A 
ATOM     20  C   UNL     1      -9.106  -8.687  16.035  0.00  0.00    +0.021 A 
ATOM     21  C   UNL     1      -9.665  -8.158  16.334  0.00  0.00    +0.073 A 
ATOM     22  C   UNL     1      -9.918  -8.223  17.116  0.00  0.00    +0.004 A 
ATOM     23  C   UNL     1      -9.612  -8.817  17.600  0.00  0.00    +0.001 A 
ATOM     24  C   UNL     1      -9.054  -9.346  17.303  0.00  0.00    +0.017 A 
BRANCH  21  25
ATOM     25  C   UNL     1      -9.970  -7.564  15.849  0.00  0.00    +0.419 C 
ATOM     26  F   UNL     1     -10.275  -6.970  15.365  0.00  0.00    -0.166 F 
ATOM     27  F   UNL     1      -9.576  -6.995  16.299  0.00  0.00    -0.166 F 
ATOM     28  F   UNL     1     -10.363  -8.133  15.400  0.00  0.00    -0.166 F 
ENDBRANCH  21  25
ENDBRANCH  18  19
ENDBRANCH  11  15
BRANCH   7   6
ATOM      6  O   UNL     1      -3.332 -10.467  16.237  0.00  0.00    -0.340 OA
BRANCH   6   5
ATOM      5  C   UNL     1      -2.730 -10.781  15.767  0.00  0.00    +0.252 C 
BRANCH   5   3
ATOM      3  C   UNL     1      -1.944 -10.713  16.004  0.00  0.00    +0.348 C 
ATOM      4  O   UNL     1      -1.746 -10.777  16.802  0.00  0.00    -0.247 OA
BRANCH   3   2
ATOM      1  C   UNL     1      -0.748 -10.043  15.598  0.00  0.00    +0.256 C 
ATOM      2  O   UNL     1      -1.353 -10.581  15.442  0.00  0.00    -0.443 OA
ENDBRANCH   3   2
ENDBRANCH   5   3
ENDBRANCH   6   5
ENDBRANCH   7   6
TORSDOF 7
ENDMDL
MODEL 9
REMARK VINA RESULT:      -6.5     15.591     18.250
REMARK  Name = 
REMARK  7 active torsions:
REMARK  status: ('A' for Active; 'I' for Inactive)
REMARK    1  A    between atoms: O_2  and  C_3
REMARK    2  A    between atoms: C_3  and  C_5
REMARK    3  A    between atoms: C_5  and  O_6
REMARK    4  A    between atoms: O_6  and  C_7
REMARK    5  A    between atoms: C_11  and  N_15
REMARK    6  A    between atoms: N_18  and  C_19
REMARK    7  A    between atoms: C_21  and  C_25
REMARK                            x       y       z     vdW  Elec       q    Type
REMARK                         _______ _______ _______ _____ _____    ______ ____
ROOT
ATOM      7  C   UNL     1      13.887   8.390  17.355  0.00  0.00    +0.175 C 
ATOM      8  C   UNL     1      14.393   7.790  17.609  0.00  0.00    +0.174 C 
ATOM      9  O   UNL     1      14.210   7.618  18.395  0.00  0.00    -0.349 OA
ATOM     10  C   UNL     1      13.591   8.112  18.627  0.00  0.00    +0.167 C 
ATOM     11  C   UNL     1      13.096   8.311  19.256  0.00  0.00    +0.156 C 
ATOM     12  C   UNL     1      12.590   8.911  19.002  0.00  0.00    +0.166 C 
ATOM     13  O   UNL     1      12.773   9.084  18.216  0.00  0.00    -0.349 OA
ATOM     14  C   UNL     1      13.392   8.589  17.985  0.00  0.00    +0.173 C 
ENDROOT
BRANCH  11  15
ATOM     15  N   UNL     1      13.105   7.969  20.007  0.00  0.00    -0.184 NA
ATOM     16  C   UNL     1      12.413   7.647  20.321  0.00  0.00    +0.344 C 
ATOM     17  O   UNL     1      11.713   7.666  19.885  0.00  0.00    -0.249 OA
ATOM     18  N   UNL     1      12.422   7.305  21.072  0.00  0.00    -0.161 NA
BRANCH  18  19
ATOM     19  C   UNL     1      11.731   6.982  21.386  0.00  0.00    +0.075 A 
ATOM     20  C   UNL     1      11.620   6.164  21.386  0.00  0.00    +0.021 A 
ATOM     21  C   UNL     1      10.929   5.842  21.700  0.00  0.00    +0.073 A 
ATOM     22  C   UNL     1      10.348   6.336  22.014  0.00  0.00    +0.004 A 
ATOM     23  C   UNL     1      10.459   7.153  22.014  0.00  0.00    +0.001 A 
ATOM     24  C   UNL     1      11.150   7.477  21.700  0.00  0.00    +0.017 A 
BRANCH  21  25
ATOM     25  C   UNL     1      10.819   5.023  21.700  0.00  0.00    +0.419 C 
ATOM     26  F   UNL     1      10.709   4.206  21.700  0.00  0.00    -0.166 F 
ATOM     27  F   UNL     1      11.078   4.989  22.482  0.00  0.00    -0.166 F 
ATOM     28  F   UNL     1      10.559   5.059  20.918  0.00  0.00    -0.166 F 
ENDBRANCH  21  25
ENDBRANCH  18  19
ENDBRANCH  11  15
BRANCH   7   6
ATOM      6  O   UNL     1      13.878   8.732  16.605  0.00  0.00    -0.340 OA
BRANCH   6   5
ATOM      5  C   UNL     1      14.456   8.529  16.052  0.00  0.00    +0.252 C 
BRANCH   5   3
ATOM      3  C   UNL     1      14.391   8.788  15.272  0.00  0.00    +0.348 C 
ATOM      4  O   UNL     1      13.665   8.741  14.882  0.00  0.00    -0.247 OA
BRANCH   3   2
ATOM      1  C   UNL     1      15.079   9.093  14.058  0.00  0.00    +0.256 C 
ATOM      2  O   UNL     1      15.050   9.094  14.881  0.00  0.00    -0.443 OA
ENDBRANCH   3   2
ENDBRANCH   5   3
ENDBRANCH   6   5
ENDBRANCH   7   6
TORSDOF 7
ENDMDL
MODEL 10
REMARK VINA RESULT:      -6.3     14.994     16.982
REMARK  Name = 
REMARK  7 active torsions:
REMARK  status: ('A' for Active; 'I' for Inactive)
REMARK    1  A    between atoms: O_2  and  C_3
REMARK    2  A    between atoms: C_3  and  C_5
REMARK    3  A    between atoms: C_5  and  O_6
REMARK    4  A    between atoms: O_6  and  C_7
REMARK    5  A    between atoms: C_11  and  N_15
REMARK    6  A    between atoms: N_18  and  C_19
REMARK    7  A    between atoms: C_21  and  C_25
REMARK                            x       y       z     vdW  Elec       q    Type
REMARK                         _______ _______ _______ _____ _____    ______ ____
ROOT
ATOM      7  C   UNL     1      -6.427  -9.908  15.349  0.00  0.00    +0.175 C 
ATOM      8  C   UNL     1      -5.632  -9.849  15.565  0.00  0.00    +0.174 C 
ATOM      9  O   UNL     1      -5.178  -9.920  14.880  0.00  0.00    -0.349 OA
ATOM     10  C   UNL     1      -5.690 -10.023  14.242  0.00  0.00    +0.167 C 
ATOM     11  C   UNL     1      -5.726 -10.131  13.425  0.00  0.00    +0.156 C 
ATOM     12  C   UNL     1      -6.520 -10.190  13.210  0.00  0.00    +0.166 C 
ATOM     13  O   UNL     1      -6.976 -10.119  13.894  0.00  0.00    -0.349 OA
ATOM     14  C   UNL     1      -6.462 -10.016  14.532  0.00  0.00    +0.173 C 
ENDROOT
BRANCH  11  15
ATOM     15  N   UNL     1      -5.080 -10.172  12.913  0.00  0.00    -0.184 NA
ATOM     16  C   UNL     1      -5.138  -9.858  12.152  0.00  0.00    +0.344 C 
ATOM     17  O   UNL     1      -5.840  -9.503  11.903  0.00  0.00    -0.249 OA
ATOM     18  N   UNL     1      -4.492  -9.900  11.639  0.00  0.00    -0.161 NA
BRANCH  18  19
ATOM     19  C   UNL     1      -4.549  -9.586  10.879  0.00  0.00    +0.075 A 
ATOM     20  C   UNL     1      -4.535 -10.088  10.223  0.00  0.00    +0.021 A 
ATOM     21  C   UNL     1      -4.592  -9.774   9.463  0.00  0.00    +0.073 A 
ATOM     22  C   UNL     1      -4.663  -8.959   9.357  0.00  0.00    +0.004 A 
ATOM     23  C   UNL     1      -4.677  -8.458  10.011  0.00  0.00    +0.001 A 
ATOM     24  C   UNL     1      -4.620  -8.770  10.773  0.00  0.00    +0.017 A 
BRANCH  21  25
ATOM     25  C   UNL     1      -4.578 -10.276   8.808  0.00  0.00    +0.419 C 
ATOM     26  F   UNL     1      -4.563 -10.777   8.153  0.00  0.00    -0.166 F 
ATOM     27  F   UNL     1      -3.753 -10.284   8.833  0.00  0.00    -0.166 F 
ATOM     28  F   UNL     1      -5.402 -10.266   8.783  0.00  0.00    -0.166 F 
ENDBRANCH  21  25
ENDBRANCH  18  19
ENDBRANCH  11  15
BRANCH   7   6
ATOM      6  O   UNL     1      -7.072  -9.867  15.861  0.00  0.00    -0.340 OA
BRANCH   6   5
ATOM      5  C   UNL     1      -6.951  -9.760  16.671  0.00  0.00    +0.252 C 
BRANCH   5   3
ATOM      3  C   UNL     1      -7.595  -9.737  17.185  0.00  0.00    +0.348 C 
ATOM      4  O   UNL     1      -8.011  -9.034  17.293  0.00  0.00    -0.247 OA
BRANCH   3   2
ATOM      1  C   UNL     1      -8.121 -10.361  18.358  0.00  0.00    +0.256 C 
ATOM      2  O   UNL     1      -7.823 -10.418  17.592  0.00  0.00    -0.443 OA
ENDBRANCH   3   2
ENDBRANCH   5   3
ENDBRANCH   6   5
ENDBRANCH   7   6
TORSDOF 7
ENDMDL
