MODEL 1
REMARK VINA RESULT:      -8.4      0.000      0.000
REMARK  Name = 
REMARK  5 active torsions:
REMARK  status: ('A' for Active; 'I' for Inactive)
REMARK    1  A    between atoms: N_2  and  C_4
REMARK    2  A    between atoms: C_7  and  C_10
REMARK    3  A    between atoms: N_12  and  C_13
REMARK    4  A    between atoms: C_17  and  N_21
REMARK    5  A    between atoms: C_24  and  C_28
REMARK                            x       y       z     vdW  Elec       q    Type
REMARK                         _______ _______ _______ _____ _____    ______ ____
ROOT
ATOM     13  C   UNL     1      -1.752   2.034  24.324  0.00  0.00    +0.155 C 
ATOM     14  C   UNL     1      -1.357   2.755  24.264  0.00  0.00    +0.166 C 
ATOM     15  O   UNL     1      -0.552   2.598  24.180  0.00  0.00    -0.350 OA
ATOM     16  C   UNL     1      -0.449   1.780  24.188  0.00  0.00    +0.166 C 
ATOM     17  C   UNL     1       0.111   1.176  24.141  0.00  0.00    +0.154 C 
ATOM     18  C   UNL     1      -0.284   0.455  24.201  0.00  0.00    +0.166 C 
ATOM     19  O   UNL     1      -1.089   0.613  24.285  0.00  0.00    -0.350 OA
ATOM     20  C   UNL     1      -1.191   1.431  24.277  0.00  0.00    +0.166 C 
ENDROOT
BRANCH  17  21
ATOM     21  N   UNL     1       0.925   1.277  24.050  0.00  0.00    -0.200 NA
ATOM     22  C   UNL     1       1.344   0.800  23.522  0.00  0.00    +0.237 A 
ATOM     23  N   UNL     1       2.157   0.901  23.431  0.00  0.00    -0.209 NA
ATOM     24  C   UNL     1       2.576   0.424  22.904  0.00  0.00    +0.120 A 
ATOM     25  C   UNL     1       2.181  -0.154  22.468  0.00  0.00    +0.043 A 
ATOM     26  C   UNL     1       1.367  -0.255  22.559  0.00  0.00    +0.104 A 
ATOM     27  N   UNL     1       0.949   0.223  23.086  0.00  0.00    -0.211 NA
BRANCH  24  28
ATOM     28  C   UNL     1       3.389   0.524  22.813  0.00  0.00    +0.163 A 
ATOM     29  C   UNL     1       3.978   0.083  23.187  0.00  0.00    +0.042 A 
ATOM     30  C   UNL     1       4.709   0.370  22.937  0.00  0.00    +0.044 A 
ATOM     31  C   UNL     1       4.574   0.988  22.409  0.00  0.00    +0.180 A 
ATOM     32  O   UNL     1       3.758   1.084  22.332  0.00  0.00    -0.449 OA
ENDBRANCH  24  28
ENDBRANCH  17  21
BRANCH  13  12
ATOM     10  C   UNL     1      -2.987   2.419  24.932  0.00  0.00    +0.265 C 
ATOM     11  O   UNL     1      -2.593   3.005  25.359  0.00  0.00    -0.268 OA
ATOM     12  N   UNL     1      -2.566   1.933  24.415  0.00  0.00    -0.198 NA
BRANCH  10   7
ATOM      4  C   UNL     1      -5.428   2.117  25.206  0.00  0.00    +0.048 A 
ATOM      5  C   UNL     1      -5.105   2.876  25.196  0.00  0.00    +0.015 A 
ATOM      6  C   UNL     1      -4.291   2.976  25.105  0.00  0.00    +0.006 A 
ATOM      7  C   UNL     1      -3.800   2.318  25.024  0.00  0.00    +0.055 A 
ATOM      8  C   UNL     1      -4.123   1.559  25.033  0.00  0.00    +0.006 A 
ATOM      9  C   UNL     1      -4.937   1.458  25.125  0.00  0.00    +0.015 A 
BRANCH   4   2
ATOM      1  C   UNL     1      -6.578   2.039  26.050  0.00  0.00    +0.112 C 
ATOM      2  N   UNL     1      -6.242   2.016  25.297  0.00  0.00    -0.304 N 
ATOM      3  C   UNL     1      -6.719   1.891  24.636  0.00  0.00    +0.112 C 
ENDBRANCH   4   2
ENDBRANCH  10   7
ENDBRANCH  13  12
TORSDOF 5
ENDMDL
MODEL 2
REMARK VINA RESULT:      -7.6      1.195      7.253
REMARK  Name = 
REMARK  5 active torsions:
REMARK  status: ('A' for Active; 'I' for Inactive)
REMARK    1  A    between atoms: N_2  and  C_4
REMARK    2  A    between atoms: C_7  and  C_10
REMARK    3  A    between atoms: N_12  and  C_13
REMARK    4  A    between atoms: C_17  and  N_21
REMARK    5  A    between atoms: C_24  and  C_28
REMARK                            x       y       z     vdW  Elec       q    Type
REMARK                         _______ _______ _______ _____ _____    ______ ____
ROOT
ATOM     13  C   UNL     1       0.350   0.489  23.828  0.00  0.00    +0.155 C 
ATOM     14  C   UNL     1      -0.153   0.074  23.323  0.00  0.00    +0.166 C 
ATOM     15  O   UNL     1      -0.928   0.203  23.575  0.00  0.00    -0.350 OA
ATOM     16  C   UNL     1      -0.904   0.696  24.234  0.00  0.00    +0.166 C 
ATOM     17  C   UNL     1      -1.367   1.081  24.798  0.00  0.00    +0.154 C 
ATOM     18  C   UNL     1      -0.864   1.496  25.303  0.00  0.00    +0.166 C 
ATOM     19  O   UNL     1      -0.089   1.367  25.052  0.00  0.00    -0.350 OA
ATOM     20  C   UNL     1      -0.114   0.873  24.391  0.00  0.00    +0.166 C 
ENDROOT
BRANCH  17  21
ATOM     21  N   UNL     1      -2.191   1.056  24.848  0.00  0.00    -0.200 NA
ATOM     22  C   UNL     1      -2.623   1.756  24.905  0.00  0.00    +0.237 A 
ATOM     23  N   UNL     1      -3.445   1.731  24.955  0.00  0.00    -0.209 NA
ATOM     24  C   UNL     1      -3.877   2.432  25.012  0.00  0.00    +0.120 A 
ATOM     25  C   UNL     1      -3.486   3.158  25.020  0.00  0.00    +0.043 A 
ATOM     26  C   UNL     1      -2.662   3.183  24.970  0.00  0.00    +0.104 A 
ATOM     27  N   UNL     1      -2.231   2.482  24.913  0.00  0.00    -0.211 NA
BRANCH  24  28
ATOM     28  C   UNL     1      -4.700   2.407  25.062  0.00  0.00    +0.163 A 
ATOM     29  C   UNL     1      -5.162   2.760  25.648  0.00  0.00    +0.042 A 
ATOM     30  C   UNL     1      -5.953   2.596  25.483  0.00  0.00    +0.044 A 
ATOM     31  C   UNL     1      -5.980   2.141  24.796  0.00  0.00    +0.180 A 
ATOM     32  O   UNL     1      -5.206   2.024  24.536  0.00  0.00    -0.449 OA
ENDBRANCH  24  28
ENDBRANCH  17  21
BRANCH  13  12
ATOM     10  C   UNL     1       1.557   0.203  23.117  0.00  0.00    +0.265 C 
ATOM     11  O   UNL     1       1.116  -0.133  22.505  0.00  0.00    -0.268 OA
ATOM     12  N   UNL     1       1.173   0.514  23.778  0.00  0.00    -0.198 NA
BRANCH  10   7
ATOM      4  C   UNL     1       4.025   0.279  22.967  0.00  0.00    +0.048 A 
ATOM      5  C   UNL     1       3.582   0.955  22.803  0.00  0.00    +0.015 A 
ATOM      6  C   UNL     1       2.759   0.929  22.853  0.00  0.00    +0.006 A 
ATOM      7  C   UNL     1       2.379   0.229  23.067  0.00  0.00    +0.055 A 
ATOM      8  C   UNL     1       2.823  -0.447  23.231  0.00  0.00    +0.006 A 
ATOM      9  C   UNL     1       3.647  -0.422  23.181  0.00  0.00    +0.015 A 
BRANCH   4   2
ATOM      1  C   UNL     1       5.294   0.550  23.566  0.00  0.00    +0.112 C 
ATOM      2  N   UNL     1       4.849   0.304  22.917  0.00  0.00    -0.304 N 
ATOM      3  C   UNL     1       5.227   0.084  22.217  0.00  0.00    +0.112 C 
ENDBRANCH   4   2
ENDBRANCH  10   7
ENDBRANCH  13  12
TORSDOF 5
ENDMDL
MODEL 3
REMARK VINA RESULT:      -6.9     15.132     16.116
REMARK  Name = 
REMARK  5 active torsions:
REMARK  status: ('A' for Active; 'I' for Inactive)
REMARK    1  A    between atoms: N_2  and  C_4
REMARK    2  A    between atoms: C_7  and  C_10
REMARK    3  A    between atoms: N_12  and  C_13
REMARK    4  A    between atoms: C_17  and  N_21
REMARK    5  A    between atoms: C_24  and  C_28
REMARK                            x       y       z     vdW  Elec       q    Type
REMARK                         _______ _______ _______ _____ _____    ______ ____
ROOT
ATOM     13  C   UNL     1      -6.802 -10.094  15.441  0.00  0.00    +0.155 C 
ATOM     14  C   UNL     1      -6.034  -9.882  15.653  0.00  0.00    +0.166 C 
ATOM     15  O   UNL     1      -5.574  -9.877  14.968  0.00  0.00    -0.350 OA
ATOM     16  C   UNL     1      -6.057 -10.085  14.334  0.00  0.00    +0.166 C 
ATOM     17  C   UNL     1      -6.072 -10.211  13.519  0.00  0.00    +0.154 C 
ATOM     18  C   UNL     1      -6.841 -10.423  13.307  0.00  0.00    +0.166 C 
ATOM     19  O   UNL     1      -7.301 -10.429  13.991  0.00  0.00    -0.350 OA
ATOM     20  C   UNL     1      -6.817 -10.220  14.626  0.00  0.00    +0.166 C 
ENDROOT
BRANCH  17  21
ATOM     21  N   UNL     1      -5.431 -10.138  13.005  0.00  0.00    -0.200 NA
ATOM     22  C   UNL     1      -5.514  -9.723  12.297  0.00  0.00    +0.237 A 
ATOM     23  N   UNL     1      -4.873  -9.649  11.783  0.00  0.00    -0.209 NA
ATOM     24  C   UNL     1      -4.957  -9.234  11.075  0.00  0.00    +0.120 A 
ATOM     25  C   UNL     1      -5.682  -8.893  10.880  0.00  0.00    +0.043 A 
ATOM     26  C   UNL     1      -6.324  -8.967  11.394  0.00  0.00    +0.104 A 
ATOM     27  N   UNL     1      -6.239  -9.382  12.102  0.00  0.00    -0.211 NA
BRANCH  24  28
ATOM     28  C   UNL     1      -4.316  -9.161  10.562  0.00  0.00    +0.163 A 
ATOM     29  C   UNL     1      -4.357  -9.108   9.739  0.00  0.00    +0.042 A 
ATOM     30  C   UNL     1      -3.587  -9.041   9.449  0.00  0.00    +0.044 A 
ATOM     31  C   UNL     1      -3.071  -9.053  10.092  0.00  0.00    +0.180 A 
ATOM     32  O   UNL     1      -3.521  -9.127  10.780  0.00  0.00    -0.449 OA
ENDBRANCH  24  28
ENDBRANCH  17  21
BRANCH  13  12
ATOM     10  C   UNL     1      -7.460  -9.740  16.660  0.00  0.00    +0.265 C 
ATOM     11  O   UNL     1      -6.832  -9.238  16.851  0.00  0.00    -0.268 OA
ATOM     12  N   UNL     1      -7.444 -10.168  15.955  0.00  0.00    -0.198 NA
BRANCH  10   7
ATOM      4  C   UNL     1      -9.383  -9.959  18.200  0.00  0.00    +0.048 A 
ATOM      5  C   UNL     1      -8.730 -10.456  18.283  0.00  0.00    +0.015 A 
ATOM      6  C   UNL     1      -8.089 -10.383  17.770  0.00  0.00    +0.006 A 
ATOM      7  C   UNL     1      -8.100  -9.813  17.173  0.00  0.00    +0.055 A 
ATOM      8  C   UNL     1      -8.754  -9.316  17.091  0.00  0.00    +0.006 A 
ATOM      9  C   UNL     1      -9.396  -9.389  17.604  0.00  0.00    +0.015 A 
BRANCH   4   2
ATOM      1  C   UNL     1     -10.710  -9.592  18.583  0.00  0.00    +0.112 C 
ATOM      2  N   UNL     1     -10.025 -10.032  18.714  0.00  0.00    -0.304 N 
ATOM      3  C   UNL     1      -9.982 -10.546  19.359  0.00  0.00    +0.112 C 
ENDBRANCH   4   2
ENDBRANCH  10   7
ENDBRANCH  13  12
TORSDOF 5
ENDMDL
MODEL 4
REMARK VINA RESULT:      -6.9     15.286     16.494
REMARK  Name = 
REMARK  5 active torsions:
REMARK  status: ('A' for Active; 'I' for Inactive)
REMARK    1  A    between atoms: N_2  and  C_4
REMARK    2  A    between atoms: C_7  and  C_10
REMARK    3  A    between atoms: N_12  and  C_13
REMARK    4  A    between atoms: C_17  and  N_21
REMARK    5  A    between atoms: C_24  and  C_28
REMARK                            x       y       z     vdW  Elec       q    Type
REMARK                         _______ _______ _______ _____ _____    ______ ____
ROOT
ATOM     13  C   UNL     1      -5.115 -10.640  15.027  0.00  0.00    +0.155 C 
ATOM     14  C   UNL     1      -4.314 -10.531  14.865  0.00  0.00    +0.166 C 
ATOM     15  O   UNL     1      -4.223 -10.491  14.047  0.00  0.00    -0.350 OA
ATOM     16  C   UNL     1      -4.967 -10.574  13.702  0.00  0.00    +0.166 C 
ATOM     17  C   UNL     1      -5.372 -10.601  12.984  0.00  0.00    +0.154 C 
ATOM     18  C   UNL     1      -6.173 -10.710  13.146  0.00  0.00    +0.166 C 
ATOM     19  O   UNL     1      -6.264 -10.750  13.964  0.00  0.00    -0.350 OA
ATOM     20  C   UNL     1      -5.519 -10.667  14.309  0.00  0.00    +0.166 C 
ENDROOT
BRANCH  17  21
ATOM     21  N   UNL     1      -5.033 -10.531  12.234  0.00  0.00    -0.200 NA
ATOM     22  C   UNL     1      -5.329  -9.978  11.698  0.00  0.00    +0.237 A 
ATOM     23  N   UNL     1      -4.991  -9.908  10.949  0.00  0.00    -0.209 NA
ATOM     24  C   UNL     1      -5.287  -9.355  10.413  0.00  0.00    +0.120 A 
ATOM     25  C   UNL     1      -5.921  -8.872  10.626  0.00  0.00    +0.043 A 
ATOM     26  C   UNL     1      -6.259  -8.942  11.376  0.00  0.00    +0.104 A 
ATOM     27  N   UNL     1      -5.963  -9.495  11.911  0.00  0.00    -0.211 NA
BRANCH  24  28
ATOM     28  C   UNL     1      -4.949  -9.285   9.664  0.00  0.00    +0.163 A 
ATOM     29  C   UNL     1      -4.187  -9.014   9.499  0.00  0.00    +0.042 A 
ATOM     30  C   UNL     1      -4.081  -9.035   8.681  0.00  0.00    +0.044 A 
ATOM     31  C   UNL     1      -4.776  -9.319   8.341  0.00  0.00    +0.180 A 
ATOM     32  O   UNL     1      -5.313  -9.473   8.948  0.00  0.00    -0.449 OA
ENDBRANCH  24  28
ENDBRANCH  17  21
BRANCH  13  12
ATOM     10  C   UNL     1      -5.039 -10.454  16.442  0.00  0.00    +0.265 C 
ATOM     11  O   UNL     1      -4.285 -10.127  16.358  0.00  0.00    -0.268 OA
ATOM     12  N   UNL     1      -5.453 -10.710  15.777  0.00  0.00    -0.198 NA
BRANCH  10   7
ATOM      4  C   UNL     1      -6.052 -10.663  18.690  0.00  0.00    +0.048 A 
ATOM      5  C   UNL     1      -6.530 -10.690  18.018  0.00  0.00    +0.015 A 
ATOM      6  C   UNL     1      -6.192 -10.620  17.269  0.00  0.00    +0.006 A 
ATOM      7  C   UNL     1      -5.377 -10.523  17.191  0.00  0.00    +0.055 A 
ATOM      8  C   UNL     1      -4.899 -10.496  17.863  0.00  0.00    +0.006 A 
ATOM      9  C   UNL     1      -5.236 -10.566  18.613  0.00  0.00    +0.015 A 
BRANCH   4   2
ATOM      1  C   UNL     1      -7.210 -10.754  19.522  0.00  0.00    +0.112 C 
ATOM      2  N   UNL     1      -6.390 -10.733  19.440  0.00  0.00    -0.304 N 
ATOM      3  C   UNL     1      -5.907 -10.781  20.107  0.00  0.00    +0.112 C 
ENDBRANCH   4   2
ENDBRANCH  10   7
ENDBRANCH  13  12
TORSDOF 5
ENDMDL
MODEL 5
REMARK VINA RESULT:      -6.8     15.186     16.996
REMARK  Name = 
REMARK  5 active torsions:
REMARK  status: ('A' for Active; 'I' for Inactive)
REMARK    1  A    between atoms: N_2  and  C_4
REMARK    2  A    between atoms: C_7  and  C_10
REMARK    3  A    between atoms: N_12  and  C_13
REMARK    4  A    between atoms: C_17  and  N_21
REMARK    5  A    between atoms: C_24  and  C_28
REMARK                            x       y       z     vdW  Elec       q    Type
REMARK                         _______ _______ _______ _____ _____    ______ ____
ROOT
ATOM     13  C   UNL     1      -4.834 -10.376  13.311  0.00  0.00    +0.155 C 
ATOM     14  C   UNL     1      -4.131 -10.608  13.674  0.00  0.00    +0.166 C 
ATOM     15  O   UNL     1      -4.289 -10.741  14.473  0.00  0.00    -0.350 OA
ATOM     16  C   UNL     1      -5.089 -10.592  14.603  0.00  0.00    +0.166 C 
ATOM     17  C   UNL     1      -5.682 -10.581  15.177  0.00  0.00    +0.154 C 
ATOM     18  C   UNL     1      -6.385 -10.350  14.813  0.00  0.00    +0.166 C 
ATOM     19  O   UNL     1      -6.227 -10.217  14.015  0.00  0.00    -0.350 OA
ATOM     20  C   UNL     1      -5.426 -10.366  13.885  0.00  0.00    +0.166 C 
ENDROOT
BRANCH  17  21
ATOM     21  N   UNL     1      -5.588 -10.770  15.974  0.00  0.00    -0.200 NA
ATOM     22  C   UNL     1      -6.062 -10.407  16.544  0.00  0.00    +0.237 A 
ATOM     23  N   UNL     1      -5.968 -10.596  17.341  0.00  0.00    -0.209 NA
ATOM     24  C   UNL     1      -6.443 -10.233  17.910  0.00  0.00    +0.120 A 
ATOM     25  C   UNL     1      -7.012  -9.681  17.681  0.00  0.00    +0.043 A 
ATOM     26  C   UNL     1      -7.106  -9.492  16.883  0.00  0.00    +0.104 A 
ATOM     27  N   UNL     1      -6.631  -9.856  16.315  0.00  0.00    -0.211 NA
BRANCH  24  28
ATOM     28  C   UNL     1      -6.349 -10.421  18.707  0.00  0.00    +0.163 A 
ATOM     29  C   UNL     1      -6.951 -10.460  19.270  0.00  0.00    +0.042 A 
ATOM     30  C   UNL     1      -6.610 -10.667  19.993  0.00  0.00    +0.044 A 
ATOM     31  C   UNL     1      -5.799 -10.755  19.876  0.00  0.00    +0.180 A 
ATOM     32  O   UNL     1      -5.637 -10.603  19.081  0.00  0.00    -0.449 OA
ENDBRANCH  24  28
ENDBRANCH  17  21
BRANCH  13  12
ATOM     10  C   UNL     1      -4.266 -10.082  12.032  0.00  0.00    +0.265 C 
ATOM     11  O   UNL     1      -3.509 -10.166  12.351  0.00  0.00    -0.268 OA
ATOM     12  N   UNL     1      -4.929 -10.187  12.513  0.00  0.00    -0.198 NA
BRANCH  10   7
ATOM      4  C   UNL     1      -4.548  -9.517   9.640  0.00  0.00    +0.048 A 
ATOM      5  C   UNL     1      -4.809  -8.992  10.221  0.00  0.00    +0.015 A 
ATOM      6  C   UNL     1      -4.715  -9.181  11.018  0.00  0.00    +0.006 A 
ATOM      7  C   UNL     1      -4.360  -9.894  11.235  0.00  0.00    +0.055 A 
ATOM      8  C   UNL     1      -4.099 -10.418  10.654  0.00  0.00    +0.006 A 
ATOM      9  C   UNL     1      -4.193 -10.229   9.856  0.00  0.00    +0.015 A 
BRANCH   4   2
ATOM      1  C   UNL     1      -4.844  -9.917   8.300  0.00  0.00    +0.112 C 
ATOM      2  N   UNL     1      -4.642  -9.328   8.842  0.00  0.00    -0.304 N 
ATOM      3  C   UNL     1      -4.535  -8.551   8.586  0.00  0.00    +0.112 C 
ENDBRANCH   4   2
ENDBRANCH  10   7
ENDBRANCH  13  12
TORSDOF 5
ENDMDL
MODEL 6
REMARK VINA RESULT:      -6.5     15.471     17.513
REMARK  Name = 
REMARK  5 active torsions:
REMARK  status: ('A' for Active; 'I' for Inactive)
REMARK    1  A    between atoms: N_2  and  C_4
REMARK    2  A    between atoms: C_7  and  C_10
REMARK    3  A    between atoms: N_12  and  C_13
REMARK    4  A    between atoms: C_17  and  N_21
REMARK    5  A    between atoms: C_24  and  C_28
REMARK                            x       y       z     vdW  Elec       q    Type
REMARK                         _______ _______ _______ _____ _____    ______ ____
ROOT
ATOM     13  C   UNL     1      -7.023  -9.901  13.031  0.00  0.00    +0.155 C 
ATOM     14  C   UNL     1      -7.818  -9.786  12.843  0.00  0.00    +0.166 C 
ATOM     15  O   UNL     1      -8.262  -9.917  13.526  0.00  0.00    -0.350 OA
ATOM     16  C   UNL     1      -7.742 -10.112  14.135  0.00  0.00    +0.166 C 
ATOM     17  C   UNL     1      -7.694 -10.314  14.934  0.00  0.00    +0.154 C 
ATOM     18  C   UNL     1      -6.899 -10.429  15.122  0.00  0.00    +0.166 C 
ATOM     19  O   UNL     1      -6.455 -10.298  14.439  0.00  0.00    -0.350 OA
ATOM     20  C   UNL     1      -6.976 -10.102  13.829  0.00  0.00    +0.166 C 
ENDROOT
BRANCH  17  21
ATOM     21  N   UNL     1      -8.331 -10.388  15.454  0.00  0.00    -0.200 NA
ATOM     22  C   UNL     1      -8.310 -10.012  16.188  0.00  0.00    +0.237 A 
ATOM     23  N   UNL     1      -8.946 -10.086  16.708  0.00  0.00    -0.209 NA
ATOM     24  C   UNL     1      -8.925  -9.711  17.442  0.00  0.00    +0.120 A 
ATOM     25  C   UNL     1      -8.268  -9.261  17.656  0.00  0.00    +0.043 A 
ATOM     26  C   UNL     1      -7.631  -9.187  17.136  0.00  0.00    +0.104 A 
ATOM     27  N   UNL     1      -7.653  -9.563  16.402  0.00  0.00    -0.211 NA
BRANCH  24  28
ATOM     28  C   UNL     1      -9.561  -9.784  17.962  0.00  0.00    +0.163 A 
ATOM     29  C   UNL     1     -10.226  -9.296  17.987  0.00  0.00    +0.042 A 
ATOM     30  C   UNL     1     -10.720  -9.569  18.589  0.00  0.00    +0.044 A 
ATOM     31  C   UNL     1     -10.361 -10.226  18.934  0.00  0.00    +0.180 A 
ATOM     32  O   UNL     1      -9.645 -10.359  18.547  0.00  0.00    -0.449 OA
ENDBRANCH  24  28
ENDBRANCH  17  21
BRANCH  13  12
ATOM     10  C   UNL     1      -6.456  -9.355  11.838  0.00  0.00    +0.265 C 
ATOM     11  O   UNL     1      -7.163  -8.958  11.685  0.00  0.00    -0.268 OA
ATOM     12  N   UNL     1      -6.386  -9.827  12.511  0.00  0.00    -0.198 NA
BRANCH  10   7
ATOM      4  C   UNL     1      -4.548  -9.132  10.278  0.00  0.00    +0.048 A 
ATOM      5  C   UNL     1      -4.873  -9.875  10.428  0.00  0.00    +0.015 A 
ATOM      6  C   UNL     1      -5.509  -9.949  10.948  0.00  0.00    +0.006 A 
ATOM      7  C   UNL     1      -5.820  -9.281  11.318  0.00  0.00    +0.055 A 
ATOM      8  C   UNL     1      -5.495  -8.538  11.168  0.00  0.00    +0.006 A 
ATOM      9  C   UNL     1      -4.858  -8.463  10.648  0.00  0.00    +0.015 A 
BRANCH   4   2
ATOM      1  C   UNL     1      -3.139  -9.111  10.042  0.00  0.00    +0.112 C 
ATOM      2  N   UNL     1      -3.911  -9.058   9.758  0.00  0.00    -0.304 N 
ATOM      3  C   UNL     1      -4.048  -8.930   8.954  0.00  0.00    +0.112 C 
ENDBRANCH   4   2
ENDBRANCH  10   7
ENDBRANCH  13  12
TORSDOF 5
ENDMDL
MODEL 7
REMARK VINA RESULT:      -5.8     15.122     16.992
REMARK  Name = 
REMARK  5 active torsions:
REMARK  status: ('A' for Active; 'I' for Inactive)
REMARK    1  A    between atoms: N_2  and  C_4
REMARK    2  A    between atoms: C_7  and  C_10
REMARK    3  A    between atoms: N_12  and  C_13
REMARK    4  A    between atoms: C_17  and  N_21
REMARK    5  A    between atoms: C_24  and  C_28
REMARK                            x       y       z     vdW  Elec       q    Type
REMARK                         _______ _______ _______ _____ _____    ______ ____
ROOT
ATOM     13  C   UNL     1      -5.373 -10.467  15.288  0.00  0.00    +0.155 C 
ATOM     14  C   UNL     1      -5.034 -10.453  16.040  0.00  0.00    +0.166 C 
ATOM     15  O   UNL     1      -5.639 -10.543  16.593  0.00  0.00    -0.350 OA
ATOM     16  C   UNL     1      -6.351 -10.611  16.184  0.00  0.00    +0.166 C 
ATOM     17  C   UNL     1      -7.166 -10.709  16.272  0.00  0.00    +0.154 C 
ATOM     18  C   UNL     1      -7.505 -10.723  15.520  0.00  0.00    +0.166 C 
ATOM     19  O   UNL     1      -6.900 -10.633  14.967  0.00  0.00    -0.350 OA
ATOM     20  C   UNL     1      -6.187 -10.564  15.377  0.00  0.00    +0.166 C 
ENDROOT
BRANCH  17  21
ATOM     21  N   UNL     1      -7.570 -10.781  16.988  0.00  0.00    -0.200 NA
ATOM     22  C   UNL     1      -8.284 -10.382  17.101  0.00  0.00    +0.237 A 
ATOM     23  N   UNL     1      -8.688 -10.454  17.816  0.00  0.00    -0.209 NA
ATOM     24  C   UNL     1      -9.402 -10.055  17.929  0.00  0.00    +0.120 A 
ATOM     25  C   UNL     1      -9.710  -9.584  17.326  0.00  0.00    +0.043 A 
ATOM     26  C   UNL     1      -9.306  -9.512  16.610  0.00  0.00    +0.104 A 
ATOM     27  N   UNL     1      -8.592  -9.911  16.498  0.00  0.00    -0.211 NA
BRANCH  24  28
ATOM     28  C   UNL     1      -9.806 -10.127  18.643  0.00  0.00    +0.163 A 
ATOM     29  C   UNL     1      -9.575 -10.589  19.287  0.00  0.00    +0.042 A 
ATOM     30  C   UNL     1     -10.139 -10.497  19.882  0.00  0.00    +0.044 A 
ATOM     31  C   UNL     1     -10.718  -9.978  19.607  0.00  0.00    +0.180 A 
ATOM     32  O   UNL     1     -10.512  -9.750  18.841  0.00  0.00    -0.449 OA
ENDBRANCH  24  28
ENDBRANCH  17  21
BRANCH  13  12
ATOM     10  C   UNL     1      -4.158 -10.549  14.538  0.00  0.00    +0.265 C 
ATOM     11  O   UNL     1      -3.753 -10.776  15.221  0.00  0.00    -0.268 OA
ATOM     12  N   UNL     1      -4.968 -10.395  14.572  0.00  0.00    -0.198 NA
BRANCH  10   7
ATOM      4  C   UNL     1      -2.945 -10.334  12.393  0.00  0.00    +0.048 A 
ATOM      5  C   UNL     1      -2.525 -10.420  13.098  0.00  0.00    +0.015 A 
ATOM      6  C   UNL     1      -2.929 -10.492  13.812  0.00  0.00    +0.006 A 
ATOM      7  C   UNL     1      -3.754 -10.477  13.824  0.00  0.00    +0.055 A 
ATOM      8  C   UNL     1      -4.174 -10.391  13.119  0.00  0.00    +0.006 A 
ATOM      9  C   UNL     1      -3.770 -10.319  12.403  0.00  0.00    +0.015 A 
BRANCH   4   2
ATOM      1  C   UNL     1      -2.944 -10.028  10.997  0.00  0.00    +0.112 C 
ATOM      2  N   UNL     1      -2.540 -10.262  11.677  0.00  0.00    -0.304 N 
ATOM      3  C   UNL     1      -1.732 -10.424  11.642  0.00  0.00    +0.112 C 
ENDBRANCH   4   2
ENDBRANCH  10   7
ENDBRANCH  13  12
TORSDOF 5
ENDMDL
