MODEL 1
REMARK VINA RESULT:     -10.1      0.000      0.000
REMARK  Name = 
REMARK  7 active torsions:
REMARK  status: ('A' for Active; 'I' for Inactive)
REMARK    1  A    between atoms: O_2  and  C_3
REMARK    2  A    between atoms: C_3  and  C_4
REMARK    3  A    between atoms: C_4  and  O_5
REMARK    4  A    between atoms: O_5  and  C_6
REMARK    5  A    between atoms: C_8  and  C_12
REMARK    6  A    between atoms: C_15  and  C_17
REMARK    7  A    between atoms: N_21  and  C_22
REMARK                            x       y       z     vdW  Elec       q    Type
REMARK                         _______ _______ _______ _____ _____    ______ ____
ROOT
ATOM     12  C   UNL     1      -4.235   0.846  24.624  0.00  0.00    +0.204 A 
ATOM     13  N   UNL     1      -4.111   0.692  23.824  0.00  0.00    -0.056 NA
ATOM     14  O   UNL     1      -3.769  -0.055  23.757  0.00  0.00    -0.336 OA
ATOM     15  C   UNL     1      -3.681  -0.364  24.518  0.00  0.00    +0.251 A 
ATOM     16  N   UNL     1      -3.968   0.193  25.053  0.00  0.00    -0.190 NA
ENDROOT
BRANCH  12   8
ATOM      6  C   UNL     1      -4.486   2.931  25.219  0.00  0.00    +0.225 A 
ATOM      7  C   UNL     1      -4.154   2.246  24.902  0.00  0.00    +0.061 A 
ATOM      8  C   UNL     1      -4.566   1.532  24.941  0.00  0.00    +0.045 A 
ATOM      9  C   UNL     1      -5.310   1.504  25.298  0.00  0.00    +0.024 A 
ATOM     10  C   UNL     1      -5.641   2.190  25.615  0.00  0.00    +0.102 A 
ATOM     11  N   UNL     1      -5.229   2.904  25.575  0.00  0.00    -0.210 NA
BRANCH   6   5
ATOM      5  O   UNL     1      -4.073   3.645  25.178  0.00  0.00    -0.457 OA
BRANCH   5   4
ATOM      4  C   UNL     1      -3.309   3.696  25.485  0.00  0.00    +0.239 C 
BRANCH   4   3
ATOM      3  C   UNL     1      -2.843   4.358  25.323  0.00  0.00    +0.189 C 
BRANCH   3   2
ATOM      1  C   UNL     1      -1.493   4.821  25.260  0.00  0.00    +0.174 C 
ATOM      2  O   UNL     1      -2.096   4.430  25.666  0.00  0.00    -0.347 OA
ENDBRANCH   3   2
ENDBRANCH   4   3
ENDBRANCH   5   4
ENDBRANCH   6   5
ENDBRANCH  12   8
BRANCH  15  17
ATOM     17  C   UNL     1      -3.360  -1.100  24.707  0.00  0.00    +0.138 C 
ATOM     18  C   UNL     1      -3.776  -1.809  24.765  0.00  0.00    +0.027 C 
ATOM     19  C   UNL     1      -3.239  -2.403  24.966  0.00  0.00    +0.019 C 
ATOM     20  C   UNL     1      -2.492  -2.060  25.032  0.00  0.00    +0.072 C 
ATOM     21  N   UNL     1      -2.566  -1.255  24.872  0.00  0.00    -0.268 NA
BRANCH  21  22
ATOM     22  C   UNL     1      -1.955  -0.700  24.876  0.00  0.00    +0.061 C 
ATOM     23  C   UNL     1      -1.557  -0.522  24.175  0.00  0.00    +0.033 C 
ATOM     24  C   UNL     1      -0.946   0.032  24.178  0.00  0.00    +0.074 C 
ATOM     25  N   UNL     1      -0.733   0.409  24.881  0.00  0.00    -0.271 NA
ATOM     26  C   UNL     1      -0.123   0.963  24.884  0.00  0.00    +0.090 C 
ATOM     27  C   UNL     1      -1.132   0.231  25.581  0.00  0.00    +0.074 C 
ATOM     28  C   UNL     1      -1.743  -0.324  25.578  0.00  0.00    +0.033 C 
ENDBRANCH  21  22
ENDBRANCH  15  17
TORSDOF 7
ENDMDL
MODEL 2
REMARK VINA RESULT:     -10.0      1.618      5.415
REMARK  Name = 
REMARK  7 active torsions:
REMARK  status: ('A' for Active; 'I' for Inactive)
REMARK    1  A    between atoms: O_2  and  C_3
REMARK    2  A    between atoms: C_3  and  C_4
REMARK    3  A    between atoms: C_4  and  O_5
REMARK    4  A    between atoms: O_5  and  C_6
REMARK    5  A    between atoms: C_8  and  C_12
REMARK    6  A    between atoms: C_15  and  C_17
REMARK    7  A    between atoms: N_21  and  C_22
REMARK                            x       y       z     vdW  Elec       q    Type
REMARK                         _______ _______ _______ _____ _____    ______ ____
ROOT
ATOM     12  C   UNL     1      -0.830   1.882  25.190  0.00  0.00    +0.204 A 
ATOM     13  N   UNL     1      -0.867   2.041  25.998  0.00  0.00    -0.056 NA
ATOM     14  O   UNL     1      -1.001   2.849  26.094  0.00  0.00    -0.336 OA
ATOM     15  C   UNL     1      -1.047   3.190  25.343  0.00  0.00    +0.251 A 
ATOM     16  N   UNL     1      -0.941   2.592  24.785  0.00  0.00    -0.190 NA
ENDROOT
BRANCH  12   8
ATOM      6  C   UNL     1      -0.987  -0.257  24.781  0.00  0.00    +0.225 A 
ATOM      7  C   UNL     1      -1.113   0.483  25.124  0.00  0.00    +0.061 A 
ATOM      8  C   UNL     1      -0.703   1.143  24.847  0.00  0.00    +0.045 A 
ATOM      9  C   UNL     1      -0.166   1.063  24.225  0.00  0.00    +0.024 A 
ATOM     10  C   UNL     1      -0.040   0.323  23.881  0.00  0.00    +0.102 A 
ATOM     11  N   UNL     1      -0.451  -0.336  24.160  0.00  0.00    -0.210 NA
BRANCH   6   5
ATOM      5  O   UNL     1      -1.398  -0.916  25.059  0.00  0.00    -0.457 OA
BRANCH   5   4
ATOM      4  C   UNL     1      -1.925  -1.312  24.564  0.00  0.00    +0.239 C 
BRANCH   4   3
ATOM      3  C   UNL     1      -2.401  -1.915  24.865  0.00  0.00    +0.189 C 
BRANCH   3   2
ATOM      1  C   UNL     1      -3.553  -2.702  24.557  0.00  0.00    +0.174 C 
ATOM      2  O   UNL     1      -2.807  -2.416  24.350  0.00  0.00    -0.347 OA
ENDBRANCH   3   2
ENDBRANCH   4   3
ENDBRANCH   5   4
ENDBRANCH   6   5
ENDBRANCH  12   8
BRANCH  15  17
ATOM     17  C   UNL     1      -1.176   3.988  25.181  0.00  0.00    +0.138 C 
ATOM     18  C   UNL     1      -0.595   4.554  25.036  0.00  0.00    +0.027 C 
ATOM     19  C   UNL     1      -0.971   5.277  24.901  0.00  0.00    +0.019 C 
ATOM     20  C   UNL     1      -1.784   5.156  24.962  0.00  0.00    +0.072 C 
ATOM     21  N   UNL     1      -1.912   4.361  25.135  0.00  0.00    -0.268 NA
BRANCH  21  22
ATOM     22  C   UNL     1      -2.646   3.998  25.244  0.00  0.00    +0.061 C 
ATOM     23  C   UNL     1      -3.045   3.677  24.597  0.00  0.00    +0.033 C 
ATOM     24  C   UNL     1      -3.779   3.314  24.705  0.00  0.00    +0.074 C 
ATOM     25  N   UNL     1      -4.112   3.274  25.459  0.00  0.00    -0.271 NA
ATOM     26  C   UNL     1      -4.845   2.911  25.566  0.00  0.00    +0.090 C 
ATOM     27  C   UNL     1      -3.712   3.595  26.104  0.00  0.00    +0.074 C 
ATOM     28  C   UNL     1      -2.979   3.958  25.997  0.00  0.00    +0.033 C 
ENDBRANCH  21  22
ENDBRANCH  15  17
TORSDOF 7
ENDMDL
MODEL 3
REMARK VINA RESULT:     -10.0      1.614      4.372
REMARK  Name = 
REMARK  7 active torsions:
REMARK  status: ('A' for Active; 'I' for Inactive)
REMARK    1  A    between atoms: O_2  and  C_3
REMARK    2  A    between atoms: C_3  and  C_4
REMARK    3  A    between atoms: C_4  and  O_5
REMARK    4  A    between atoms: O_5  and  C_6
REMARK    5  A    between atoms: C_8  and  C_12
REMARK    6  A    between atoms: C_15  and  C_17
REMARK    7  A    between atoms: N_21  and  C_22
REMARK                            x       y       z     vdW  Elec       q    Type
REMARK                         _______ _______ _______ _____ _____    ______ ____
ROOT
ATOM     12  C   UNL     1      -3.208   0.776  24.461  0.00  0.00    +0.204 A 
ATOM     13  N   UNL     1      -3.378   1.129  23.735  0.00  0.00    -0.056 NA
ATOM     14  O   UNL     1      -3.960   1.699  23.858  0.00  0.00    -0.336 OA
ATOM     15  C   UNL     1      -4.150   1.699  24.662  0.00  0.00    +0.251 A 
ATOM     16  N   UNL     1      -3.685   1.129  25.033  0.00  0.00    -0.190 NA
ENDROOT
BRANCH  12   8
ATOM      6  C   UNL     1      -1.302  -0.279  24.605  0.00  0.00    +0.225 A 
ATOM      7  C   UNL     1      -1.853   0.321  24.474  0.00  0.00    +0.061 A 
ATOM      8  C   UNL     1      -2.657   0.177  24.591  0.00  0.00    +0.045 A 
ATOM      9  C   UNL     1      -2.909  -0.570  24.839  0.00  0.00    +0.024 A 
ATOM     10  C   UNL     1      -2.358  -1.170  24.969  0.00  0.00    +0.102 A 
ATOM     11  N   UNL     1      -1.554  -1.023  24.852  0.00  0.00    -0.210 NA
BRANCH   6   5
ATOM      5  O   UNL     1      -0.498  -0.132  24.488  0.00  0.00    -0.457 OA
BRANCH   5   4
ATOM      4  C   UNL     1      -0.140  -0.347  23.776  0.00  0.00    +0.239 C 
BRANCH   4   3
ATOM      3  C   UNL     1       0.603  -0.047  23.581  0.00  0.00    +0.189 C 
BRANCH   3   2
ATOM      1  C   UNL     1       1.700   0.046  22.670  0.00  0.00    +0.174 C 
ATOM      2  O   UNL     1       0.974  -0.284  22.883  0.00  0.00    -0.347 OA
ENDBRANCH   3   2
ENDBRANCH   4   3
ENDBRANCH   5   4
ENDBRANCH   6   5
ENDBRANCH  12   8
BRANCH  15  17
ATOM     17  C   UNL     1      -4.708   2.185  25.027  0.00  0.00    +0.138 C 
ATOM     18  C   UNL     1      -5.496   1.993  25.176  0.00  0.00    +0.027 C 
ATOM     19  C   UNL     1      -5.849   2.639  25.549  0.00  0.00    +0.019 C 
ATOM     20  C   UNL     1      -5.279   3.230  25.631  0.00  0.00    +0.072 C 
ATOM     21  N   UNL     1      -4.574   2.950  25.309  0.00  0.00    -0.268 NA
BRANCH  21  22
ATOM     22  C   UNL     1      -3.859   3.361  25.273  0.00  0.00    +0.061 C 
ATOM     23  C   UNL     1      -3.357   3.371  25.928  0.00  0.00    +0.033 C 
ATOM     24  C   UNL     1      -2.642   3.782  25.893  0.00  0.00    +0.074 C 
ATOM     25  N   UNL     1      -2.429   4.182  25.203  0.00  0.00    -0.271 NA
ATOM     26  C   UNL     1      -1.715   4.592  25.168  0.00  0.00    +0.090 C 
ATOM     27  C   UNL     1      -2.931   4.171  24.549  0.00  0.00    +0.074 C 
ATOM     28  C   UNL     1      -3.646   3.761  24.584  0.00  0.00    +0.033 C 
ENDBRANCH  21  22
ENDBRANCH  15  17
TORSDOF 7
ENDMDL
MODEL 4
REMARK VINA RESULT:      -9.9      1.549      4.219
REMARK  Name = 
REMARK  7 active torsions:
REMARK  status: ('A' for Active; 'I' for Inactive)
REMARK    1  A    between atoms: O_2  and  C_3
REMARK    2  A    between atoms: C_3  and  C_4
REMARK    3  A    between atoms: C_4  and  O_5
REMARK    4  A    between atoms: O_5  and  C_6
REMARK    5  A    between atoms: C_8  and  C_12
REMARK    6  A    between atoms: C_15  and  C_17
REMARK    7  A    between atoms: N_21  and  C_22
REMARK                            x       y       z     vdW  Elec       q    Type
REMARK                         _______ _______ _______ _____ _____    ______ ____
ROOT
ATOM     12  C   UNL     1      -3.639   2.545  24.510  0.00  0.00    +0.204 A 
ATOM     13  N   UNL     1      -3.439   2.751  23.737  0.00  0.00    -0.056 NA
ATOM     14  O   UNL     1      -2.843   3.319  23.771  0.00  0.00    -0.336 OA
ATOM     15  C   UNL     1      -2.674   3.464  24.566  0.00  0.00    +0.251 A 
ATOM     16  N   UNL     1      -3.166   2.986  25.022  0.00  0.00    -0.190 NA
ENDROOT
BRANCH  12   8
ATOM      6  C   UNL     1      -4.575   0.654  25.073  0.00  0.00    +0.225 A 
ATOM      7  C   UNL     1      -4.003   1.205  24.851  0.00  0.00    +0.061 A 
ATOM      8  C   UNL     1      -4.212   1.994  24.732  0.00  0.00    +0.045 A 
ATOM      9  C   UNL     1      -4.996   2.233  24.837  0.00  0.00    +0.024 A 
ATOM     10  C   UNL     1      -5.568   1.682  25.059  0.00  0.00    +0.102 A 
ATOM     11  N   UNL     1      -5.358   0.893  25.177  0.00  0.00    -0.210 NA
BRANCH   6   5
ATOM      5  O   UNL     1      -4.364  -0.135  25.191  0.00  0.00    -0.457 OA
BRANCH   5   4
ATOM      4  C   UNL     1      -4.275  -0.638  24.544  0.00  0.00    +0.239 C 
BRANCH   4   3
ATOM      3  C   UNL     1      -4.029  -1.417  24.657  0.00  0.00    +0.189 C 
BRANCH   3   2
ATOM      1  C   UNL     1      -3.730  -2.704  24.113  0.00  0.00    +0.174 C 
ATOM      2  O   UNL     1      -4.086  -1.963  24.041  0.00  0.00    -0.347 OA
ENDBRANCH   3   2
ENDBRANCH   4   3
ENDBRANCH   5   4
ENDBRANCH   6   5
ENDBRANCH  12   8
BRANCH  15  17
ATOM     17  C   UNL     1      -2.111   3.995  24.852  0.00  0.00    +0.138 C 
ATOM     18  C   UNL     1      -2.245   4.783  25.053  0.00  0.00    +0.027 C 
ATOM     19  C   UNL     1      -1.531   5.105  25.313  0.00  0.00    +0.019 C 
ATOM     20  C   UNL     1      -0.956   4.515  25.271  0.00  0.00    +0.072 C 
ATOM     21  N   UNL     1      -1.313   3.829  24.987  0.00  0.00    -0.268 NA
BRANCH  21  22
ATOM     22  C   UNL     1      -0.941   3.104  24.859  0.00  0.00    +0.061 C 
ATOM     23  C   UNL     1      -0.853   2.572  25.484  0.00  0.00    +0.033 C 
ATOM     24  C   UNL     1      -0.480   1.846  25.356  0.00  0.00    +0.074 C 
ATOM     25  N   UNL     1      -0.197   1.653  24.605  0.00  0.00    -0.271 NA
ATOM     26  C   UNL     1       0.175   0.928  24.479  0.00  0.00    +0.090 C 
ATOM     27  C   UNL     1      -0.285   2.186  23.982  0.00  0.00    +0.074 C 
ATOM     28  C   UNL     1      -0.657   2.912  24.110  0.00  0.00    +0.033 C 
ENDBRANCH  21  22
ENDBRANCH  15  17
TORSDOF 7
ENDMDL
MODEL 5
REMARK VINA RESULT:      -9.9      1.363      3.374
REMARK  Name = 
REMARK  7 active torsions:
REMARK  status: ('A' for Active; 'I' for Inactive)
REMARK    1  A    between atoms: O_2  and  C_3
REMARK    2  A    between atoms: C_3  and  C_4
REMARK    3  A    between atoms: C_4  and  O_5
REMARK    4  A    between atoms: O_5  and  C_6
REMARK    5  A    between atoms: C_8  and  C_12
REMARK    6  A    between atoms: C_15  and  C_17
REMARK    7  A    between atoms: N_21  and  C_22
REMARK                            x       y       z     vdW  Elec       q    Type
REMARK                         _______ _______ _______ _____ _____    ______ ____
ROOT
ATOM     12  C   UNL     1      -1.152  -0.027  25.014  0.00  0.00    +0.204 A 
ATOM     13  N   UNL     1      -1.281  -0.257  25.796  0.00  0.00    -0.056 NA
ATOM     14  O   UNL     1      -1.851  -0.851  25.797  0.00  0.00    -0.336 OA
ATOM     15  C   UNL     1      -2.076  -0.989  25.014  0.00  0.00    +0.251 A 
ATOM     16  N   UNL     1      -1.644  -0.480  24.532  0.00  0.00    -0.190 NA
ENDROOT
BRANCH  12   8
ATOM      6  C   UNL     1      -0.113   1.886  24.845  0.00  0.00    +0.225 A 
ATOM      7  C   UNL     1      -0.641   1.305  25.099  0.00  0.00    +0.061 A 
ATOM      8  C   UNL     1      -0.624   0.554  24.760  0.00  0.00    +0.045 A 
ATOM      9  C   UNL     1      -0.077   0.383  24.165  0.00  0.00    +0.024 A 
ATOM     10  C   UNL     1       0.451   0.963  23.910  0.00  0.00    +0.102 A 
ATOM     11  N   UNL     1       0.432   1.715  24.251  0.00  0.00    -0.210 NA
BRANCH   6   5
ATOM      5  O   UNL     1      -0.131   2.637  25.186  0.00  0.00    -0.457 OA
BRANCH   5   4
ATOM      4  C   UNL     1      -0.569   3.240  24.830  0.00  0.00    +0.239 C 
BRANCH   4   3
ATOM      3  C   UNL     1      -0.767   3.915  25.261  0.00  0.00    +0.189 C 
BRANCH   3   2
ATOM      1  C   UNL     1      -1.391   5.189  25.092  0.00  0.00    +0.174 C 
ATOM      2  O   UNL     1      -0.803   4.649  24.885  0.00  0.00    -0.347 OA
ENDBRANCH   3   2
ENDBRANCH   4   3
ENDBRANCH   5   4
ENDBRANCH   6   5
ENDBRANCH  12   8
BRANCH  15  17
ATOM     17  C   UNL     1      -2.635  -1.541  24.762  0.00  0.00    +0.138 C 
ATOM     18  C   UNL     1      -2.498  -2.341  24.619  0.00  0.00    +0.027 C 
ATOM     19  C   UNL     1      -3.209  -2.682  24.376  0.00  0.00    +0.019 C 
ATOM     20  C   UNL     1      -3.786  -2.093  24.370  0.00  0.00    +0.072 C 
ATOM     21  N   UNL     1      -3.432  -1.387  24.608  0.00  0.00    -0.268 NA
BRANCH  21  22
ATOM     22  C   UNL     1      -3.807  -0.656  24.680  0.00  0.00    +0.061 C 
ATOM     23  C   UNL     1      -4.125  -0.427  25.406  0.00  0.00    +0.033 C 
ATOM     24  C   UNL     1      -4.500   0.305  25.479  0.00  0.00    +0.074 C 
ATOM     25  N   UNL     1      -4.557   0.807  24.826  0.00  0.00    -0.271 NA
ATOM     26  C   UNL     1      -4.931   1.538  24.900  0.00  0.00    +0.090 C 
ATOM     27  C   UNL     1      -4.239   0.577  24.101  0.00  0.00    +0.074 C 
ATOM     28  C   UNL     1      -3.864  -0.154  24.028  0.00  0.00    +0.033 C 
ENDBRANCH  21  22
ENDBRANCH  15  17
TORSDOF 7
ENDMDL
MODEL 6
REMARK VINA RESULT:      -9.8      1.524      3.341
REMARK  Name = 
REMARK  7 active torsions:
REMARK  status: ('A' for Active; 'I' for Inactive)
REMARK    1  A    between atoms: O_2  and  C_3
REMARK    2  A    between atoms: C_3  and  C_4
REMARK    3  A    between atoms: C_4  and  O_5
REMARK    4  A    between atoms: O_5  and  C_6
REMARK    5  A    between atoms: C_8  and  C_12
REMARK    6  A    between atoms: C_15  and  C_17
REMARK    7  A    between atoms: N_21  and  C_22
REMARK                            x       y       z     vdW  Elec       q    Type
REMARK                         _______ _______ _______ _____ _____    ______ ____
ROOT
ATOM     12  C   UNL     1      -0.992   2.601  25.333  0.00  0.00    +0.204 A 
ATOM     13  N   UNL     1      -0.572   2.246  25.948  0.00  0.00    -0.056 NA
ATOM     14  O   UNL     1      -0.206   1.571  25.649  0.00  0.00    -0.336 OA
ATOM     15  C   UNL     1      -0.399   1.508  24.849  0.00  0.00    +0.251 A 
ATOM     16  N   UNL     1      -0.885   2.145  24.655  0.00  0.00    -0.190 NA
ENDROOT
BRANCH  12   8
ATOM      6  C   UNL     1      -2.674   3.946  25.691  0.00  0.00    +0.225 A 
ATOM      7  C   UNL     1      -2.226   3.255  25.636  0.00  0.00    +0.061 A 
ATOM      8  C   UNL     1      -1.440   3.292  25.388  0.00  0.00    +0.045 A 
ATOM      9  C   UNL     1      -1.102   4.020  25.195  0.00  0.00    +0.024 A 
ATOM     10  C   UNL     1      -1.551   4.710  25.250  0.00  0.00    +0.102 A 
ATOM     11  N   UNL     1      -2.337   4.673  25.498  0.00  0.00    -0.210 NA
BRANCH   6   5
ATOM      5  O   UNL     1      -3.461   3.908  25.939  0.00  0.00    -0.457 OA
BRANCH   5   4
ATOM      4  C   UNL     1      -4.030   3.562  25.452  0.00  0.00    +0.239 C 
BRANCH   4   3
ATOM      3  C   UNL     1      -4.783   3.400  25.748  0.00  0.00    +0.189 C 
BRANCH   3   2
ATOM      1  C   UNL     1      -5.777   2.432  25.409  0.00  0.00    +0.174 C 
ATOM      2  O   UNL     1      -5.377   3.134  25.241  0.00  0.00    -0.347 OA
ENDBRANCH   3   2
ENDBRANCH   4   3
ENDBRANCH   5   4
ENDBRANCH   6   5
ENDBRANCH  12   8
BRANCH  15  17
ATOM     17  C   UNL     1      -0.150   0.913  24.335  0.00  0.00    +0.138 C 
ATOM     18  C   UNL     1       0.496   0.952  23.824  0.00  0.00    +0.027 C 
ATOM     19  C   UNL     1       0.541   0.236  23.416  0.00  0.00    +0.019 C 
ATOM     20  C   UNL     1      -0.076  -0.245  23.676  0.00  0.00    +0.072 C 
ATOM     21  N   UNL     1      -0.503   0.172  24.244  0.00  0.00    -0.268 NA
BRANCH  21  22
ATOM     22  C   UNL     1      -1.168  -0.100  24.650  0.00  0.00    +0.061 C 
ATOM     23  C   UNL     1      -1.920   0.015  24.331  0.00  0.00    +0.033 C 
ATOM     24  C   UNL     1      -2.586  -0.258  24.737  0.00  0.00    +0.074 C 
ATOM     25  N   UNL     1      -2.498  -0.645  25.461  0.00  0.00    -0.271 NA
ATOM     26  C   UNL     1      -3.162  -0.917  25.866  0.00  0.00    +0.090 C 
ATOM     27  C   UNL     1      -1.745  -0.759  25.778  0.00  0.00    +0.074 C 
ATOM     28  C   UNL     1      -1.080  -0.487  25.373  0.00  0.00    +0.033 C 
ENDBRANCH  21  22
ENDBRANCH  15  17
TORSDOF 7
ENDMDL
MODEL 7
REMARK VINA RESULT:      -9.7      2.011      4.228
REMARK  Name = 
REMARK  7 active torsions:
REMARK  status: ('A' for Active; 'I' for Inactive)
REMARK    1  A    between atoms: O_2  and  C_3
REMARK    2  A    between atoms: C_3  and  C_4
REMARK    3  A    between atoms: C_4  and  O_5
REMARK    4  A    between atoms: O_5  and  C_6
REMARK    5  A    between atoms: C_8  and  C_12
REMARK    6  A    between atoms: C_15  and  C_17
REMARK    7  A    between atoms: N_21  and  C_22
REMARK                            x       y       z     vdW  Elec       q    Type
REMARK                         _______ _______ _______ _____ _____    ______ ____
ROOT
ATOM     12  C   UNL     1      -2.194   1.537  24.016  0.00  0.00    +0.204 A 
ATOM     13  N   UNL     1      -2.585   1.435  23.297  0.00  0.00    -0.056 NA
ATOM     14  O   UNL     1      -3.390   1.356  23.452  0.00  0.00    -0.336 OA
ATOM     15  C   UNL     1      -3.499   1.410  24.269  0.00  0.00    +0.251 A 
ATOM     16  N   UNL     1      -2.760   1.522  24.617  0.00  0.00    -0.190 NA
ENDROOT
BRANCH  12   8
ATOM      6  C   UNL     1      -0.051   1.123  24.031  0.00  0.00    +0.225 A 
ATOM      7  C   UNL     1      -0.864   1.023  23.929  0.00  0.00    +0.061 A 
ATOM      8  C   UNL     1      -1.382   1.637  24.118  0.00  0.00    +0.045 A 
ATOM      9  C   UNL     1      -1.086   2.351  24.407  0.00  0.00    +0.024 A 
ATOM     10  C   UNL     1      -0.274   2.451  24.509  0.00  0.00    +0.102 A 
ATOM     11  N   UNL     1       0.244   1.836  24.320  0.00  0.00    -0.210 NA
BRANCH   6   5
ATOM      5  O   UNL     1       0.466   0.508  23.842  0.00  0.00    -0.457 OA
BRANCH   5   4
ATOM      4  C   UNL     1       0.982   0.586  23.203  0.00  0.00    +0.239 C 
BRANCH   4   3
ATOM      3  C   UNL     1       1.524  -0.013  23.034  0.00  0.00    +0.189 C 
BRANCH   3   2
ATOM      1  C   UNL     1       2.792   0.048  22.379  0.00  0.00    +0.174 C 
ATOM      2  O   UNL     1       1.968   0.015  22.340  0.00  0.00    -0.347 OA
ENDBRANCH   3   2
ENDBRANCH   4   3
ENDBRANCH   5   4
ENDBRANCH   6   5
ENDBRANCH  12   8
BRANCH  15  17
ATOM     17  C   UNL     1      -4.220   1.361  24.666  0.00  0.00    +0.138 C 
ATOM     18  C   UNL     1      -4.709   1.994  24.864  0.00  0.00    +0.027 C 
ATOM     19  C   UNL     1      -5.371   1.693  25.255  0.00  0.00    +0.019 C 
ATOM     20  C   UNL     1      -5.289   0.873  25.299  0.00  0.00    +0.072 C 
ATOM     21  N   UNL     1      -4.579   0.667  24.935  0.00  0.00    -0.268 NA
BRANCH  21  22
ATOM     22  C   UNL     1      -4.278  -0.096  24.854  0.00  0.00    +0.061 C 
ATOM     23  C   UNL     1      -3.832  -0.429  25.463  0.00  0.00    +0.033 C 
ATOM     24  C   UNL     1      -3.530  -1.194  25.383  0.00  0.00    +0.074 C 
ATOM     25  N   UNL     1      -3.675  -1.624  24.693  0.00  0.00    -0.271 NA
ATOM     26  C   UNL     1      -3.373  -2.387  24.613  0.00  0.00    +0.090 C 
ATOM     27  C   UNL     1      -4.120  -1.290  24.085  0.00  0.00    +0.074 C 
ATOM     28  C   UNL     1      -4.422  -0.526  24.166  0.00  0.00    +0.033 C 
ENDBRANCH  21  22
ENDBRANCH  15  17
TORSDOF 7
ENDMDL
MODEL 8
REMARK VINA RESULT:      -9.5      2.106      5.388
REMARK  Name = 
REMARK  7 active torsions:
REMARK  status: ('A' for Active; 'I' for Inactive)
REMARK    1  A    between atoms: O_2  and  C_3
REMARK    2  A    between atoms: C_3  and  C_4
REMARK    3  A    between atoms: C_4  and  O_5
REMARK    4  A    between atoms: O_5  and  C_6
REMARK    5  A    between atoms: C_8  and  C_12
REMARK    6  A    between atoms: C_15  and  C_17
REMARK    7  A    between atoms: N_21  and  C_22
REMARK                            x       y       z     vdW  Elec       q    Type
REMARK                         _______ _______ _______ _____ _____    ______ ____
ROOT
ATOM     12  C   UNL     1      -0.924   1.856  25.240  0.00  0.00    +0.204 A 
ATOM     13  N   UNL     1      -0.938   2.026  26.047  0.00  0.00    -0.056 NA
ATOM     14  O   UNL     1      -1.069   2.835  26.135  0.00  0.00    -0.336 OA
ATOM     15  C   UNL     1      -1.136   3.166  25.381  0.00  0.00    +0.251 A 
ATOM     16  N   UNL     1      -1.046   2.560  24.829  0.00  0.00    -0.190 NA
ENDROOT
BRANCH  12   8
ATOM      6  C   UNL     1      -0.224   0.288  23.893  0.00  0.00    +0.225 A 
ATOM      7  C   UNL     1      -0.340   1.032  24.230  0.00  0.00    +0.061 A 
ATOM      8  C   UNL     1      -0.808   1.112  24.904  0.00  0.00    +0.045 A 
ATOM      9  C   UNL     1      -1.162   0.446  25.241  0.00  0.00    +0.024 A 
ATOM     10  C   UNL     1      -1.046  -0.298  24.905  0.00  0.00    +0.102 A 
ATOM     11  N   UNL     1      -0.577  -0.377  24.230  0.00  0.00    -0.210 NA
BRANCH   6   5
ATOM      5  O   UNL     1       0.245   0.209  23.219  0.00  0.00    -0.457 OA
BRANCH   5   4
ATOM      4  C   UNL     1       1.042   0.008  23.292  0.00  0.00    +0.239 C 
BRANCH   4   3
ATOM      3  C   UNL     1       1.546   0.074  22.643  0.00  0.00    +0.189 C 
BRANCH   3   2
ATOM      1  C   UNL     1       2.937   0.186  22.336  0.00  0.00    +0.174 C 
ATOM      2  O   UNL     1       2.313  -0.228  22.683  0.00  0.00    -0.347 OA
ENDBRANCH   3   2
ENDBRANCH   4   3
ENDBRANCH   5   4
ENDBRANCH   6   5
ENDBRANCH  12   8
BRANCH  15  17
ATOM     17  C   UNL     1      -1.268   3.962  25.212  0.00  0.00    +0.138 C 
ATOM     18  C   UNL     1      -0.689   4.533  25.078  0.00  0.00    +0.027 C 
ATOM     19  C   UNL     1      -1.068   5.251  24.930  0.00  0.00    +0.019 C 
ATOM     20  C   UNL     1      -1.882   5.123  24.974  0.00  0.00    +0.072 C 
ATOM     21  N   UNL     1      -2.006   4.328  25.148  0.00  0.00    -0.268 NA
BRANCH  21  22
ATOM     22  C   UNL     1      -2.739   3.959  25.241  0.00  0.00    +0.061 C 
ATOM     23  C   UNL     1      -3.123   3.636  24.586  0.00  0.00    +0.033 C 
ATOM     24  C   UNL     1      -3.856   3.268  24.679  0.00  0.00    +0.074 C 
ATOM     25  N   UNL     1      -4.203   3.222  25.427  0.00  0.00    -0.271 NA
ATOM     26  C   UNL     1      -4.935   2.853  25.519  0.00  0.00    +0.090 C 
ATOM     27  C   UNL     1      -3.818   3.545  26.080  0.00  0.00    +0.074 C 
ATOM     28  C   UNL     1      -3.086   3.913  25.987  0.00  0.00    +0.033 C 
ENDBRANCH  21  22
ENDBRANCH  15  17
TORSDOF 7
ENDMDL
MODEL 9
REMARK VINA RESULT:      -9.3      1.513      3.272
REMARK  Name = 
REMARK  7 active torsions:
REMARK  status: ('A' for Active; 'I' for Inactive)
REMARK    1  A    between atoms: O_2  and  C_3
REMARK    2  A    between atoms: C_3  and  C_4
REMARK    3  A    between atoms: C_4  and  O_5
REMARK    4  A    between atoms: O_5  and  C_6
REMARK    5  A    between atoms: C_8  and  C_12
REMARK    6  A    between atoms: C_15  and  C_17
REMARK    7  A    between atoms: N_21  and  C_22
REMARK                            x       y       z     vdW  Elec       q    Type
REMARK                         _______ _______ _______ _____ _____    ______ ____
ROOT
ATOM     12  C   UNL     1      -2.252  -0.269  24.803  0.00  0.00    +0.204 A 
ATOM     13  N   UNL     1      -1.798  -0.441  25.469  0.00  0.00    -0.056 NA
ATOM     14  O   UNL     1      -1.011  -0.270  25.293  0.00  0.00    -0.336 OA
ATOM     15  C   UNL     1      -0.979   0.009  24.516  0.00  0.00    +0.251 A 
ATOM     16  N   UNL     1      -1.745   0.010  24.214  0.00  0.00    -0.190 NA
ENDROOT
BRANCH  12   8
ATOM      6  C   UNL     1      -4.392   0.113  25.001  0.00  0.00    +0.225 A 
ATOM      7  C   UNL     1      -3.575   0.203  25.067  0.00  0.00    +0.061 A 
ATOM      8  C   UNL     1      -3.070  -0.358  24.736  0.00  0.00    +0.045 A 
ATOM      9  C   UNL     1      -3.382  -1.011  24.338  0.00  0.00    +0.024 A 
ATOM     10  C   UNL     1      -4.200  -1.101  24.271  0.00  0.00    +0.102 A 
ATOM     11  N   UNL     1      -4.704  -0.538  24.603  0.00  0.00    -0.210 NA
BRANCH   6   5
ATOM      5  O   UNL     1      -4.897   0.675  25.333  0.00  0.00    -0.457 OA
BRANCH   5   4
ATOM      4  C   UNL     1      -4.937   1.434  25.011  0.00  0.00    +0.239 C 
BRANCH   4   3
ATOM      3  C   UNL     1      -5.400   2.012  25.374  0.00  0.00    +0.189 C 
BRANCH   3   2
ATOM      1  C   UNL     1      -5.385   3.432  25.536  0.00  0.00    +0.174 C 
ATOM      2  O   UNL     1      -5.445   2.769  25.048  0.00  0.00    -0.347 OA
ENDBRANCH   3   2
ENDBRANCH   4   3
ENDBRANCH   5   4
ENDBRANCH   6   5
ENDBRANCH  12   8
BRANCH  15  17
ATOM     17  C   UNL     1      -0.298   0.246  24.115  0.00  0.00    +0.138 C 
ATOM     18  C   UNL     1       0.189  -0.238  23.659  0.00  0.00    +0.027 C 
ATOM     19  C   UNL     1       0.804   0.226  23.362  0.00  0.00    +0.019 C 
ATOM     20  C   UNL     1       0.695   0.997  23.635  0.00  0.00    +0.072 C 
ATOM     21  N   UNL     1       0.015   1.010  24.100  0.00  0.00    -0.268 NA
BRANCH  21  22
ATOM     22  C   UNL     1      -0.299   1.669  24.484  0.00  0.00    +0.061 C 
ATOM     23  C   UNL     1      -0.811   2.175  24.080  0.00  0.00    +0.033 C 
ATOM     24  C   UNL     1      -1.126   2.835  24.464  0.00  0.00    +0.074 C 
ATOM     25  N   UNL     1      -0.928   2.989  25.250  0.00  0.00    -0.271 NA
ATOM     26  C   UNL     1      -1.243   3.648  25.633  0.00  0.00    +0.090 C 
ATOM     27  C   UNL     1      -0.416   2.483  25.653  0.00  0.00    +0.074 C 
ATOM     28  C   UNL     1      -0.101   1.823  25.269  0.00  0.00    +0.033 C 
ENDBRANCH  21  22
ENDBRANCH  15  17
TORSDOF 7
ENDMDL
