MODEL 1
REMARK VINA RESULT:      -8.1      0.000      0.000
REMARK  Name = 
REMARK  6 active torsions:
REMARK  status: ('A' for Active; 'I' for Inactive)
REMARK    1  A    between atoms: C_2  and  N_4
REMARK    2  A    between atoms: N_7  and  C_8
REMARK    3  A    between atoms: C_8  and  C_9
REMARK    4  A    between atoms: C_12  and  N_13
REMARK    5  A    between atoms: N_13  and  C_14
REMARK    6  A    between atoms: C_14  and  C_15
REMARK                            x       y       z     vdW  Elec       q    Type
REMARK                         _______ _______ _______ _____ _____    ______ ____
ROOT
ATOM      9  C   UNL     1      -3.578   1.873  24.525  0.00  0.00    +0.169 C 
ATOM     10  O   UNL     1      -4.133   1.695  25.110  0.00  0.00    -0.350 OA
ATOM     11  C   UNL     1      -4.312   0.891  25.055  0.00  0.00    +0.162 C 
ATOM     12  C   UNL     1      -3.868   0.572  24.437  0.00  0.00    +0.135 C 
ATOM     20  C   UNL     1      -3.415   1.179  24.110  0.00  0.00    +0.199 C 
ATOM     21  O   UNL     1      -2.889   1.105  23.478  0.00  0.00    -0.219 OA
ENDROOT
BRANCH   9   8
ATOM      8  C   UNL     1      -3.246   2.613  24.382  0.00  0.00    +0.149 C 
BRANCH   8   7
ATOM      4  N   UNL     1      -1.941   4.054  25.376  0.00  0.00    -0.189 NA
ATOM      5  C   UNL     1      -2.398   3.686  24.795  0.00  0.00    +0.339 C 
ATOM      6  O   UNL     1      -2.461   4.025  24.045  0.00  0.00    -0.249 OA
ATOM      7  N   UNL     1      -2.790   2.981  24.963  0.00  0.00    -0.185 NA
BRANCH   4   2
ATOM      1  C   UNL     1      -1.940   5.480  25.293  0.00  0.00    +0.023 C 
ATOM      2  C   UNL     1      -1.549   4.759  25.208  0.00  0.00    +0.097 C 
ATOM      3  C   UNL     1      -0.764   4.744  24.954  0.00  0.00    +0.023 C 
ENDBRANCH   4   2
ENDBRANCH   8   7
ENDBRANCH   9   8
BRANCH  12  13
ATOM     13  N   UNL     1      -3.875  -0.215  24.190  0.00  0.00    -0.209 NA
BRANCH  13  14
ATOM     14  C   UNL     1      -4.045  -0.815  24.731  0.00  0.00    +0.122 C 
BRANCH  14  15
ATOM     15  C   UNL     1      -3.916  -1.604  24.525  0.00  0.00    +0.025 A 
ATOM     16  C   UNL     1      -4.270  -2.006  23.897  0.00  0.00    +0.004 A 
ATOM     17  C   UNL     1      -3.983  -2.780  23.896  0.00  0.00    +0.007 A 
ATOM     18  C   UNL     1      -3.452  -2.855  24.523  0.00  0.00    +0.035 A 
ATOM     19  S   UNL     1      -3.410  -2.129  24.912  0.00  0.00    -0.089 S 
ENDBRANCH  14  15
ENDBRANCH  13  14
ENDBRANCH  12  13
TORSDOF 6
ENDMDL
MODEL 2
REMARK VINA RESULT:      -7.8      1.953      5.630
REMARK  Name = 
REMARK  6 active torsions:
REMARK  status: ('A' for Active; 'I' for Inactive)
REMARK    1  A    between atoms: C_2  and  N_4
REMARK    2  A    between atoms: N_7  and  C_8
REMARK    3  A    between atoms: C_8  and  C_9
REMARK    4  A    between atoms: C_12  and  N_13
REMARK    5  A    between atoms: N_13  and  C_14
REMARK    6  A    between atoms: C_14  and  C_15
REMARK                            x       y       z     vdW  Elec       q    Type
REMARK                         _______ _______ _______ _____ _____    ______ ____
ROOT
ATOM      9  C   UNL     1      -2.708   0.901  24.922  0.00  0.00    +0.169 C 
ATOM     10  O   UNL     1      -1.944   0.847  25.232  0.00  0.00    -0.350 OA
ATOM     11  C   UNL     1      -1.630   1.609  25.267  0.00  0.00    +0.162 C 
ATOM     12  C   UNL     1      -2.198   2.134  24.979  0.00  0.00    +0.135 C 
ATOM     20  C   UNL     1      -2.864   1.696  24.765  0.00  0.00    +0.199 C 
ATOM     21  O   UNL     1      -3.563   1.999  24.451  0.00  0.00    -0.219 OA
ENDROOT
BRANCH   9   8
ATOM      8  C   UNL     1      -3.223   0.271  24.792  0.00  0.00    +0.149 C 
BRANCH   8   7
ATOM      4  N   UNL     1      -3.119  -1.857  24.315  0.00  0.00    -0.189 NA
ATOM      5  C   UNL     1      -3.413  -1.127  24.560  0.00  0.00    +0.339 C 
ATOM      6  O   UNL     1      -4.195  -1.063  24.817  0.00  0.00    -0.249 OA
ATOM      7  N   UNL     1      -2.928  -0.460  24.547  0.00  0.00    -0.185 NA
BRANCH   4   2
ATOM      1  C   UNL     1      -3.492  -3.105  24.902  0.00  0.00    +0.023 C 
ATOM      2  C   UNL     1      -3.604  -2.524  24.328  0.00  0.00    +0.097 C 
ATOM      3  C   UNL     1      -4.202  -2.609  23.766  0.00  0.00    +0.023 C 
ENDBRANCH   4   2
ENDBRANCH   8   7
ENDBRANCH   9   8
BRANCH  12  13
ATOM     13  N   UNL     1      -2.115   2.953  24.914  0.00  0.00    -0.209 NA
BRANCH  13  14
ATOM     14  C   UNL     1      -1.484   3.332  25.285  0.00  0.00    +0.122 C 
BRANCH  14  15
ATOM     15  C   UNL     1      -1.352   4.137  25.154  0.00  0.00    +0.025 A 
ATOM     16  C   UNL     1      -1.852   4.753  25.381  0.00  0.00    +0.004 A 
ATOM     17  C   UNL     1      -1.506   5.463  25.141  0.00  0.00    +0.007 A 
ATOM     18  C   UNL     1      -0.794   5.285  24.765  0.00  0.00    +0.035 A 
ATOM     19  S   UNL     1      -0.698   4.465  24.773  0.00  0.00    -0.089 S 
ENDBRANCH  14  15
ENDBRANCH  13  14
ENDBRANCH  12  13
TORSDOF 6
ENDMDL
MODEL 3
REMARK VINA RESULT:      -6.8      1.750      2.007
REMARK  Name = 
REMARK  6 active torsions:
REMARK  status: ('A' for Active; 'I' for Inactive)
REMARK    1  A    between atoms: C_2  and  N_4
REMARK    2  A    between atoms: N_7  and  C_8
REMARK    3  A    between atoms: C_8  and  C_9
REMARK    4  A    between atoms: C_12  and  N_13
REMARK    5  A    between atoms: N_13  and  C_14
REMARK    6  A    between atoms: C_14  and  C_15
REMARK                            x       y       z     vdW  Elec       q    Type
REMARK                         _______ _______ _______ _____ _____    ______ ____
ROOT
ATOM      9  C   UNL     1      -1.120   0.998  24.998  0.00  0.00    +0.169 C 
ATOM     10  O   UNL     1      -0.702   0.639  24.384  0.00  0.00    -0.350 OA
ATOM     11  C   UNL     1      -1.002  -0.123  24.283  0.00  0.00    +0.162 C 
ATOM     12  C   UNL     1      -1.606  -0.235  24.834  0.00  0.00    +0.135 C 
ATOM     20  C   UNL     1      -1.678   0.457  25.276  0.00  0.00    +0.199 C 
ATOM     21  O   UNL     1      -2.215   0.588  25.889  0.00  0.00    -0.219 OA
ENDROOT
BRANCH   9   8
ATOM      8  C   UNL     1      -1.000   1.761  25.284  0.00  0.00    +0.149 C 
BRANCH   8   7
ATOM      4  N   UNL     1      -1.318   3.827  24.653  0.00  0.00    -0.189 NA
ATOM      5  C   UNL     1      -1.117   3.176  25.119  0.00  0.00    +0.339 C 
ATOM      6  O   UNL     1      -0.834   3.289  25.885  0.00  0.00    -0.249 OA
ATOM      7  N   UNL     1      -1.200   2.413  24.818  0.00  0.00    -0.185 NA
BRANCH   4   2
ATOM      1  C   UNL     1      -1.845   4.930  25.392  0.00  0.00    +0.023 C 
ATOM      2  C   UNL     1      -1.235   4.591  24.954  0.00  0.00    +0.097 C 
ATOM      3  C   UNL     1      -0.541   5.015  24.815  0.00  0.00    +0.023 C 
ENDBRANCH   4   2
ENDBRANCH   8   7
ENDBRANCH   9   8
BRANCH  12  13
ATOM     13  N   UNL     1      -2.058  -0.920  24.927  0.00  0.00    -0.209 NA
BRANCH  13  14
ATOM     14  C   UNL     1      -2.321  -1.332  24.263  0.00  0.00    +0.122 C 
BRANCH  14  15
ATOM     15  C   UNL     1      -2.888  -1.927  24.345  0.00  0.00    +0.025 A 
ATOM     16  C   UNL     1      -2.777  -2.655  24.716  0.00  0.00    +0.004 A 
ATOM     17  C   UNL     1      -3.486  -3.075  24.670  0.00  0.00    +0.007 A 
ATOM     18  C   UNL     1      -4.034  -2.606  24.271  0.00  0.00    +0.035 A 
ATOM     19  S   UNL     1      -3.665  -1.896  24.069  0.00  0.00    -0.089 S 
ENDBRANCH  14  15
ENDBRANCH  13  14
ENDBRANCH  12  13
TORSDOF 6
ENDMDL
