MODEL 1
REMARK VINA RESULT:     -11.1      0.000      0.000
REMARK  Name = 
REMARK  6 active torsions:
REMARK  status: ('A' for Active; 'I' for Inactive)
REMARK    1  A    between atoms: C_2  and  C_5
REMARK    2  A    between atoms: C_7  and  C_8
REMARK    3  A    between atoms: C_8  and  C_9
REMARK    4  A    between atoms: C_9  and  N_13
REMARK    5  A    between atoms: N_13  and  C_14
REMARK    6  A    between atoms: C_14  and  C_15
REMARK                            x       y       z     vdW  Elec       q    Type
REMARK                         _______ _______ _______ _____ _____    ______ ____
ROOT
ATOM      9  C   UNL     1      -4.709   2.440  25.124  0.00  0.00    +0.120 C 
ATOM     10  C   UNL     1      -5.323   2.103  25.562  0.00  0.00    +0.161 C 
ATOM     11  O   UNL     1      -5.706   2.834  25.585  0.00  0.00    -0.351 OA
ATOM     12  C   UNL     1      -5.093   3.170  25.149  0.00  0.00    +0.161 C 
ENDROOT
BRANCH   9   8
ATOM      8  C   UNL     1      -4.096   2.776  24.688  0.00  0.00    +0.070 C 
BRANCH   8   7
ATOM      5  C   UNL     1      -2.352   3.828  25.327  0.00  0.00    +0.153 A 
ATOM      6  C   UNL     1      -2.764   3.394  24.759  0.00  0.00    +0.054 A 
ATOM      7  C   UNL     1      -3.505   3.206  25.070  0.00  0.00    +0.102 A 
ATOM     22  N   UNL     1      -3.551   3.524  25.829  0.00  0.00    -0.082 NA
ATOM     23  O   UNL     1      -2.839   3.908  25.988  0.00  0.00    -0.358 OA
BRANCH   5   2
ATOM      1  C   UNL     1      -0.824   4.430  25.169  0.00  0.00    +0.008 C 
ATOM      2  C   UNL     1      -1.588   4.130  25.248  0.00  0.00    +0.054 C 
ATOM      3  C   UNL     1      -1.894   4.894  25.193  0.00  0.00    +0.008 C 
ATOM      4  C   UNL     1      -1.282   3.365  25.302  0.00  0.00    +0.008 C 
ENDBRANCH   5   2
ENDBRANCH   8   7
ENDBRANCH   9   8
BRANCH   9  13
ATOM     13  N   UNL     1      -4.326   1.709  25.101  0.00  0.00    -0.211 NA
BRANCH  13  14
ATOM     14  C   UNL     1      -4.753   1.026  24.922  0.00  0.00    +0.115 C 
BRANCH  14  15
ATOM     15  C   UNL     1      -4.359   0.308  24.824  0.00  0.00    -0.004 A 
ATOM     16  C   UNL     1      -4.239   0.003  24.067  0.00  0.00    -0.003 A 
ATOM     17  C   UNL     1      -3.845  -0.715  23.968  0.00  0.00    +0.001 A 
ATOM     18  C   UNL     1      -3.571  -1.128  24.628  0.00  0.00    +0.011 A 
ATOM     19  C   UNL     1      -3.691  -0.824  25.386  0.00  0.00    +0.057 A 
ATOM     20 CL   UNL     1      -3.417  -1.238  26.045  0.00  0.00    -0.082 Cl
ATOM     21  C   UNL     1      -4.085  -0.105  25.483  0.00  0.00    +0.009 A 
ENDBRANCH  14  15
ENDBRANCH  13  14
ENDBRANCH   9  13
TORSDOF 6
ENDMDL
MODEL 2
REMARK VINA RESULT:     -10.7      1.657      4.191
REMARK  Name = 
REMARK  6 active torsions:
REMARK  status: ('A' for Active; 'I' for Inactive)
REMARK    1  A    between atoms: C_2  and  C_5
REMARK    2  A    between atoms: C_7  and  C_8
REMARK    3  A    between atoms: C_8  and  C_9
REMARK    4  A    between atoms: C_9  and  N_13
REMARK    5  A    between atoms: N_13  and  C_14
REMARK    6  A    between atoms: C_14  and  C_15
REMARK                            x       y       z     vdW  Elec       q    Type
REMARK                         _______ _______ _______ _____ _____    ______ ____
ROOT
ATOM      9  C   UNL     1      -4.358   2.765  25.107  0.00  0.00    +0.120 C 
ATOM     10  C   UNL     1      -4.509   3.366  25.652  0.00  0.00    +0.161 C 
ATOM     11  O   UNL     1      -5.318   3.295  25.506  0.00  0.00    -0.351 OA
ATOM     12  C   UNL     1      -5.167   2.695  24.962  0.00  0.00    +0.161 C 
ENDROOT
BRANCH   9   8
ATOM      8  C   UNL     1      -4.207   2.165  24.562  0.00  0.00    +0.070 C 
BRANCH   8   7
ATOM      5  C   UNL     1      -4.178   0.050  24.849  0.00  0.00    +0.153 A 
ATOM      6  C   UNL     1      -3.890   0.732  24.485  0.00  0.00    +0.054 A 
ATOM      7  C   UNL     1      -4.314   1.376  24.777  0.00  0.00    +0.102 A 
ATOM     22  N   UNL     1      -4.865   1.093  25.321  0.00  0.00    -0.082 NA
ATOM     23  O   UNL     1      -4.781   0.273  25.366  0.00  0.00    -0.358 OA
BRANCH   5   2
ATOM      1  C   UNL     1      -3.643  -1.489  24.590  0.00  0.00    +0.008 C 
ATOM      2  C   UNL     1      -3.911  -0.719  24.720  0.00  0.00    +0.054 C 
ATOM      3  C   UNL     1      -3.639  -0.757  25.498  0.00  0.00    +0.008 C 
ATOM      4  C   UNL     1      -4.183  -0.682  23.942  0.00  0.00    +0.008 C 
ENDBRANCH   5   2
ENDBRANCH   8   7
ENDBRANCH   9   8
BRANCH   9  13
ATOM     13  N   UNL     1      -3.549   2.837  25.253  0.00  0.00    -0.211 NA
BRANCH  13  14
ATOM     14  C   UNL     1      -3.229   3.572  25.447  0.00  0.00    +0.115 C 
BRANCH  14  15
ATOM     15  C   UNL     1      -2.411   3.676  25.452  0.00  0.00    -0.004 A 
ATOM     16  C   UNL     1      -1.924   3.098  25.784  0.00  0.00    -0.003 A 
ATOM     17  C   UNL     1      -1.106   3.201  25.791  0.00  0.00    +0.001 A 
ATOM     18  C   UNL     1      -0.774   3.883  25.465  0.00  0.00    +0.011 A 
ATOM     19  C   UNL     1      -1.260   4.461  25.133  0.00  0.00    +0.057 A 
ATOM     20 CL   UNL     1      -0.928   5.142  24.807  0.00  0.00    -0.082 Cl
ATOM     21  C   UNL     1      -2.079   4.357  25.127  0.00  0.00    +0.009 A 
ENDBRANCH  14  15
ENDBRANCH  13  14
ENDBRANCH   9  13
TORSDOF 6
ENDMDL
MODEL 3
REMARK VINA RESULT:     -10.3      1.923      2.951
REMARK  Name = 
REMARK  6 active torsions:
REMARK  status: ('A' for Active; 'I' for Inactive)
REMARK    1  A    between atoms: C_2  and  C_5
REMARK    2  A    between atoms: C_7  and  C_8
REMARK    3  A    between atoms: C_8  and  C_9
REMARK    4  A    between atoms: C_9  and  N_13
REMARK    5  A    between atoms: N_13  and  C_14
REMARK    6  A    between atoms: C_14  and  C_15
REMARK                            x       y       z     vdW  Elec       q    Type
REMARK                         _______ _______ _______ _____ _____    ______ ____
ROOT
ATOM      9  C   UNL     1      -2.491   1.080  23.917  0.00  0.00    +0.120 C 
ATOM     10  C   UNL     1      -1.732   0.899  24.188  0.00  0.00    +0.161 C 
ATOM     11  O   UNL     1      -1.423   1.511  23.729  0.00  0.00    -0.351 OA
ATOM     12  C   UNL     1      -2.181   1.692  23.459  0.00  0.00    +0.161 C 
ENDROOT
BRANCH   9   8
ATOM      8  C   UNL     1      -3.248   1.260  23.646  0.00  0.00    +0.070 C 
BRANCH   8   7
ATOM      5  C   UNL     1      -4.489   2.678  24.650  0.00  0.00    +0.153 A 
ATOM      6  C   UNL     1      -4.247   1.901  24.515  0.00  0.00    +0.054 A 
ATOM      7  C   UNL     1      -3.649   1.916  23.947  0.00  0.00    +0.102 A 
ATOM     22  N   UNL     1      -3.521   2.701  23.731  0.00  0.00    -0.082 NA
ATOM     23  O   UNL     1      -4.040   3.172  24.166  0.00  0.00    -0.358 OA
BRANCH   5   2
ATOM      1  C   UNL     1      -5.663   3.159  25.705  0.00  0.00    +0.008 C 
ATOM      2  C   UNL     1      -5.076   2.918  25.177  0.00  0.00    +0.054 C 
ATOM      3  C   UNL     1      -5.558   2.298  24.924  0.00  0.00    +0.008 C 
ATOM      4  C   UNL     1      -4.594   3.538  25.430  0.00  0.00    +0.008 C 
ENDBRANCH   5   2
ENDBRANCH   8   7
ENDBRANCH   9   8
BRANCH   9  13
ATOM     13  N   UNL     1      -2.800   0.467  24.376  0.00  0.00    -0.211 NA
BRANCH  13  14
ATOM     14  C   UNL     1      -2.439  -0.275  24.369  0.00  0.00    +0.115 C 
BRANCH  14  15
ATOM     15  C   UNL     1      -2.812  -0.917  24.728  0.00  0.00    -0.004 A 
ATOM     16  C   UNL     1      -2.862  -0.956  25.551  0.00  0.00    -0.003 A 
ATOM     17  C   UNL     1      -3.234  -1.598  25.912  0.00  0.00    +0.001 A 
ATOM     18  C   UNL     1      -3.556  -2.201  25.450  0.00  0.00    +0.011 A 
ATOM     19  C   UNL     1      -3.506  -2.162  24.627  0.00  0.00    +0.057 A 
ATOM     20 CL   UNL     1      -3.829  -2.765  24.165  0.00  0.00    -0.082 Cl
ATOM     21  C   UNL     1      -3.134  -1.519  24.267  0.00  0.00    +0.009 A 
ENDBRANCH  14  15
ENDBRANCH  13  14
ENDBRANCH   9  13
TORSDOF 6
ENDMDL
MODEL 4
REMARK VINA RESULT:     -10.2      2.400      4.795
REMARK  Name = 
REMARK  6 active torsions:
REMARK  status: ('A' for Active; 'I' for Inactive)
REMARK    1  A    between atoms: C_2  and  C_5
REMARK    2  A    between atoms: C_7  and  C_8
REMARK    3  A    between atoms: C_8  and  C_9
REMARK    4  A    between atoms: C_9  and  N_13
REMARK    5  A    between atoms: N_13  and  C_14
REMARK    6  A    between atoms: C_14  and  C_15
REMARK                            x       y       z     vdW  Elec       q    Type
REMARK                         _______ _______ _______ _____ _____    ______ ____
ROOT
ATOM      9  C   UNL     1      -1.709   0.662  25.166  0.00  0.00    +0.120 C 
ATOM     10  C   UNL     1      -1.129   1.182  24.892  0.00  0.00    +0.161 C 
ATOM     11  O   UNL     1      -0.546   0.722  25.251  0.00  0.00    -0.351 OA
ATOM     12  C   UNL     1      -1.125   0.202  25.525  0.00  0.00    +0.161 C 
ENDROOT
BRANCH   9   8
ATOM      8  C   UNL     1      -2.287   0.143  25.440  0.00  0.00    +0.070 C 
BRANCH   8   7
ATOM      5  C   UNL     1      -3.094  -1.592  24.494  0.00  0.00    +0.153 A 
ATOM      6  C   UNL     1      -3.186  -0.914  24.955  0.00  0.00    +0.054 A 
ATOM      7  C   UNL     1      -2.449  -0.552  25.026  0.00  0.00    +0.102 A 
ATOM     22  N   UNL     1      -1.901  -1.005  24.608  0.00  0.00    -0.082 NA
ATOM     23  O   UNL     1      -2.299  -1.648  24.280  0.00  0.00    -0.358 OA
BRANCH   5   2
ATOM      1  C   UNL     1      -4.288  -2.651  24.075  0.00  0.00    +0.008 C 
ATOM      2  C   UNL     1      -3.691  -2.121  24.284  0.00  0.00    +0.054 C 
ATOM      3  C   UNL     1      -4.034  -1.545  23.803  0.00  0.00    +0.008 C 
ATOM      4  C   UNL     1      -3.349  -2.697  24.765  0.00  0.00    +0.008 C 
ENDBRANCH   5   2
ENDBRANCH   8   7
ENDBRANCH   9   8
BRANCH   9  13
ATOM     13  N   UNL     1      -2.291   1.123  24.807  0.00  0.00    -0.211 NA
BRANCH  13  14
ATOM     14  C   UNL     1      -2.273   1.944  24.884  0.00  0.00    +0.115 C 
BRANCH  14  15
ATOM     15  C   UNL     1      -2.909   2.397  24.617  0.00  0.00    -0.004 A 
ATOM     16  C   UNL     1      -3.067   2.448  23.809  0.00  0.00    -0.003 A 
ATOM     17  C   UNL     1      -3.703   2.900  23.541  0.00  0.00    +0.001 A 
ATOM     18  C   UNL     1      -4.179   3.303  24.081  0.00  0.00    +0.011 A 
ATOM     19  C   UNL     1      -4.021   3.252  24.890  0.00  0.00    +0.057 A 
ATOM     20 CL   UNL     1      -4.497   3.654  25.429  0.00  0.00    -0.082 Cl
ATOM     21  C   UNL     1      -3.385   2.799  25.157  0.00  0.00    +0.009 A 
ENDBRANCH  14  15
ENDBRANCH  13  14
ENDBRANCH   9  13
TORSDOF 6
ENDMDL
MODEL 5
REMARK VINA RESULT:     -10.0      2.108      2.920
REMARK  Name = 
REMARK  6 active torsions:
REMARK  status: ('A' for Active; 'I' for Inactive)
REMARK    1  A    between atoms: C_2  and  C_5
REMARK    2  A    between atoms: C_7  and  C_8
REMARK    3  A    between atoms: C_8  and  C_9
REMARK    4  A    between atoms: C_9  and  N_13
REMARK    5  A    between atoms: N_13  and  C_14
REMARK    6  A    between atoms: C_14  and  C_15
REMARK                            x       y       z     vdW  Elec       q    Type
REMARK                         _______ _______ _______ _____ _____    ______ ____
ROOT
ATOM      9  C   UNL     1      -0.943   0.792  24.377  0.00  0.00    +0.120 C 
ATOM     10  C   UNL     1      -0.473   0.124  24.501  0.00  0.00    +0.161 C 
ATOM     11  O   UNL     1       0.162   0.505  24.136  0.00  0.00    -0.351 OA
ATOM     12  C   UNL     1      -0.307   1.171  24.012  0.00  0.00    +0.161 C 
ENDROOT
BRANCH   9   8
ATOM      8  C   UNL     1      -1.412   1.458  24.253  0.00  0.00    +0.070 C 
BRANCH   8   7
ATOM      5  C   UNL     1      -1.401   3.369  25.205  0.00  0.00    +0.153 A 
ATOM      6  C   UNL     1      -1.624   2.875  24.583  0.00  0.00    +0.054 A 
ATOM      7  C   UNL     1      -1.321   2.123  24.733  0.00  0.00    +0.102 A 
ATOM     22  N   UNL     1      -0.911   2.151  25.448  0.00  0.00    -0.082 NA
ATOM     23  O   UNL     1      -0.960   2.921  25.740  0.00  0.00    -0.358 OA
BRANCH   5   2
ATOM      1  C   UNL     1      -1.770   4.969  25.355  0.00  0.00    +0.008 C 
ATOM      2  C   UNL     1      -1.586   4.169  25.280  0.00  0.00    +0.054 C 
ATOM      3  C   UNL     1      -2.322   3.970  25.596  0.00  0.00    +0.008 C 
ATOM      4  C   UNL     1      -0.851   4.368  24.964  0.00  0.00    +0.008 C 
ENDBRANCH   5   2
ENDBRANCH   8   7
ENDBRANCH   9   8
BRANCH   9  13
ATOM     13  N   UNL     1      -1.578   0.412  24.742  0.00  0.00    -0.211 NA
BRANCH  13  14
ATOM     14  C   UNL     1      -1.772  -0.361  24.529  0.00  0.00    +0.115 C 
BRANCH  14  15
ATOM     15  C   UNL     1      -2.476  -0.698  24.798  0.00  0.00    -0.004 A 
ATOM     16  C   UNL     1      -2.571  -0.868  25.600  0.00  0.00    -0.003 A 
ATOM     17  C   UNL     1      -3.275  -1.204  25.870  0.00  0.00    +0.001 A 
ATOM     18  C   UNL     1      -3.883  -1.370  25.338  0.00  0.00    +0.011 A 
ATOM     19  C   UNL     1      -3.788  -1.200  24.536  0.00  0.00    +0.057 A 
ATOM     20 CL   UNL     1      -4.397  -1.366  24.004  0.00  0.00    -0.082 Cl
ATOM     21  C   UNL     1      -3.084  -0.863  24.267  0.00  0.00    +0.009 A 
ENDBRANCH  14  15
ENDBRANCH  13  14
ENDBRANCH   9  13
TORSDOF 6
ENDMDL
