MODEL 1
REMARK VINA RESULT:     -12.2      0.000      0.000
REMARK  Name = 
REMARK  3 active torsions:
REMARK  status: ('A' for Active; 'I' for Inactive)
REMARK    1  A    between atoms: C_2  and  C_5
REMARK    2  A    between atoms: C_12  and  C_14
REMARK    3  A    between atoms: N_17  and  C_19
REMARK                            x       y       z     vdW  Elec       q    Type
REMARK                         _______ _______ _______ _____ _____    ______ ____
ROOT
ATOM      5  C   UNL     1      -3.967  -1.385  24.299  0.00  0.00    +0.073 A 
ATOM      6  C   UNL     1      -3.916  -0.677  23.880  0.00  0.00    +0.025 A 
ATOM      7  C   UNL     1      -3.691   0.017  24.267  0.00  0.00    +0.100 A 
ATOM      8  C   UNL     1      -3.517   0.001  25.073  0.00  0.00    +0.100 A 
ATOM      9  C   UNL     1      -3.568  -0.708  25.493  0.00  0.00    +0.021 A 
ATOM     10  C   UNL     1      -3.793  -1.401  25.106  0.00  0.00    +0.005 A 
ATOM     11  N   UNL     1      -3.311   0.765  25.305  0.00  0.00    -0.229 NA
ATOM     12  C   UNL     1      -3.358   1.254  24.642  0.00  0.00    +0.140 A 
ATOM     13  N   UNL     1      -3.593   0.791  24.001  0.00  0.00    -0.229 NA
ENDROOT
BRANCH  12  14
ATOM     14  C   UNL     1      -3.199   2.063  24.623  0.00  0.00    +0.076 C 
ATOM     15  C   UNL     1      -3.701   2.650  24.334  0.00  0.00    +0.026 C 
ATOM     16  C   UNL     1      -3.322   3.377  24.422  0.00  0.00    +0.073 C 
ATOM     17  N   UNL     1      -2.585   3.240  24.766  0.00  0.00    -0.274 NA
ATOM     18  C   UNL     1      -2.509   2.427  24.890  0.00  0.00    +0.080 C 
BRANCH  17  19
ATOM     19  C   UNL     1      -2.022   3.813  24.953  0.00  0.00    +0.058 C 
ATOM     20  C   UNL     1      -2.046   4.565  25.293  0.00  0.00    +0.016 C 
ATOM     21  C   UNL     1      -1.227   4.625  25.218  0.00  0.00    +0.003 C 
ATOM     22  C   UNL     1      -1.203   3.873  24.878  0.00  0.00    +0.016 C 
ENDBRANCH  17  19
ENDBRANCH  12  14
BRANCH   5   2
ATOM      1  F   UNL     1      -4.417  -2.771  23.526  0.00  0.00    -0.166 F 
ATOM      2  C   UNL     1      -4.192  -2.077  23.913  0.00  0.00    +0.419 C 
ATOM      3  F   UNL     1      -4.974  -1.815  23.895  0.00  0.00    -0.166 F 
ATOM      4  F   UNL     1      -3.410  -2.341  23.930  0.00  0.00    -0.166 F 
ENDBRANCH   5   2
TORSDOF 3
ENDMDL
MODEL 2
REMARK VINA RESULT:     -12.1      3.017      5.197
REMARK  Name = 
REMARK  3 active torsions:
REMARK  status: ('A' for Active; 'I' for Inactive)
REMARK    1  A    between atoms: C_2  and  C_5
REMARK    2  A    between atoms: C_12  and  C_14
REMARK    3  A    between atoms: N_17  and  C_19
REMARK                            x       y       z     vdW  Elec       q    Type
REMARK                         _______ _______ _______ _____ _____    ______ ____
ROOT
ATOM      5  C   UNL     1      -1.565   4.106  25.212  0.00  0.00    +0.073 A 
ATOM      6  C   UNL     1      -2.304   3.801  25.010  0.00  0.00    +0.025 A 
ATOM      7  C   UNL     1      -2.426   2.985  25.003  0.00  0.00    +0.100 A 
ATOM      8  C   UNL     1      -1.809   2.474  25.199  0.00  0.00    +0.100 A 
ATOM      9  C   UNL     1      -1.069   2.780  25.401  0.00  0.00    +0.021 A 
ATOM     10  C   UNL     1      -0.947   3.595  25.408  0.00  0.00    +0.005 A 
ATOM     11  N   UNL     1      -2.090   1.701  25.145  0.00  0.00    -0.229 NA
ATOM     12  C   UNL     1      -2.882   1.734  24.916  0.00  0.00    +0.140 A 
ATOM     13  N   UNL     1      -3.089   2.527  24.829  0.00  0.00    -0.229 NA
ENDROOT
BRANCH  12  14
ATOM     14  C   UNL     1      -3.379   1.087  24.795  0.00  0.00    +0.076 C 
ATOM     15  C   UNL     1      -4.203   1.106  24.770  0.00  0.00    +0.026 C 
ATOM     16  C   UNL     1      -4.474   0.338  24.638  0.00  0.00    +0.073 C 
ATOM     17  N   UNL     1      -3.816  -0.157  24.582  0.00  0.00    -0.274 NA
ATOM     18  C   UNL     1      -3.140   0.306  24.679  0.00  0.00    +0.080 C 
BRANCH  17  19
ATOM     19  C   UNL     1      -3.831  -0.971  24.452  0.00  0.00    +0.058 C 
ATOM     20  C   UNL     1      -4.183  -1.466  23.893  0.00  0.00    +0.016 C 
ATOM     21  C   UNL     1      -3.853  -2.123  24.267  0.00  0.00    +0.003 C 
ATOM     22  C   UNL     1      -3.502  -1.628  24.826  0.00  0.00    +0.016 C 
ENDBRANCH  17  19
ENDBRANCH  12  14
BRANCH   5   2
ATOM      1  F   UNL     1      -1.321   5.738  25.225  0.00  0.00    -0.166 F 
ATOM      2  C   UNL     1      -1.443   4.921  25.218  0.00  0.00    +0.419 C 
ATOM      3  F   UNL     1      -0.847   4.838  24.654  0.00  0.00    -0.166 F 
ATOM      4  F   UNL     1      -2.039   5.007  25.783  0.00  0.00    -0.166 F 
ENDBRANCH   5   2
TORSDOF 3
ENDMDL
MODEL 3
REMARK VINA RESULT:     -10.9      2.734      4.966
REMARK  Name = 
REMARK  3 active torsions:
REMARK  status: ('A' for Active; 'I' for Inactive)
REMARK    1  A    between atoms: C_2  and  C_5
REMARK    2  A    between atoms: C_12  and  C_14
REMARK    3  A    between atoms: N_17  and  C_19
REMARK                            x       y       z     vdW  Elec       q    Type
REMARK                         _______ _______ _______ _____ _____    ______ ____
ROOT
ATOM      5  C   UNL     1      -4.828   3.243  25.062  0.00  0.00    +0.073 A 
ATOM      6  C   UNL     1      -4.793   2.483  25.381  0.00  0.00    +0.025 A 
ATOM      7  C   UNL     1      -4.338   1.902  25.013  0.00  0.00    +0.100 A 
ATOM      8  C   UNL     1      -3.917   2.081  24.326  0.00  0.00    +0.100 A 
ATOM      9  C   UNL     1      -3.952   2.841  24.007  0.00  0.00    +0.021 A 
ATOM     10  C   UNL     1      -4.408   3.422  24.375  0.00  0.00    +0.005 A 
ATOM     11  N   UNL     1      -3.518   1.400  24.087  0.00  0.00    -0.229 NA
ATOM     12  C   UNL     1      -3.692   0.800  24.625  0.00  0.00    +0.140 A 
ATOM     13  N   UNL     1      -4.198   1.111  25.197  0.00  0.00    -0.229 NA
ENDROOT
BRANCH  12  14
ATOM     14  C   UNL     1      -3.409   0.026  24.597  0.00  0.00    +0.076 C 
ATOM     15  C   UNL     1      -2.626  -0.209  24.708  0.00  0.00    +0.026 C 
ATOM     16  C   UNL     1      -2.591  -1.030  24.632  0.00  0.00    +0.073 C 
ATOM     17  N   UNL     1      -3.354  -1.303  24.474  0.00  0.00    -0.274 NA
ATOM     18  C   UNL     1      -3.859  -0.650  24.452  0.00  0.00    +0.080 C 
BRANCH  17  19
ATOM     19  C   UNL     1      -3.573  -2.089  24.358  0.00  0.00    +0.058 C 
ATOM     20  C   UNL     1      -3.357  -2.811  24.695  0.00  0.00    +0.016 C 
ATOM     21  C   UNL     1      -3.883  -3.202  24.195  0.00  0.00    +0.003 C 
ATOM     22  C   UNL     1      -4.099  -2.481  23.858  0.00  0.00    +0.016 C 
ENDBRANCH  17  19
ENDBRANCH  12  14
BRANCH   5   2
ATOM      1  F   UNL     1      -5.739   4.406  25.798  0.00  0.00    -0.166 F 
ATOM      2  C   UNL     1      -5.283   3.824  25.430  0.00  0.00    +0.419 C 
ATOM      3  F   UNL     1      -5.972   3.442  25.183  0.00  0.00    -0.166 F 
ATOM      4  F   UNL     1      -4.596   4.207  25.677  0.00  0.00    -0.166 F 
ENDBRANCH   5   2
TORSDOF 3
ENDMDL
