MODEL 1
REMARK VINA RESULT:     -10.8      0.000      0.000
REMARK  Name = 
REMARK  3 active torsions:
REMARK  status: ('A' for Active; 'I' for Inactive)
REMARK    1  A    between atoms: N_6  and  C_7
REMARK    2  A    between atoms: C_7  and  C_8
REMARK    3  A    between atoms: N_14  and  C_15
REMARK                            x       y       z     vdW  Elec       q    Type
REMARK                         _______ _______ _______ _____ _____    ______ ____
ROOT
ATOM      1  O   UNL     1      -5.149   0.423  25.219  0.00  0.00    -0.252 OA
ATOM      2  C   UNL     1      -4.421   0.700  24.950  0.00  0.00    +0.311 C 
ATOM      3  N   UNL     1      -4.191   1.490  24.897  0.00  0.00    -0.261 N 
ATOM      4  C   UNL     1      -4.582   2.192  25.082  0.00  0.00    +0.112 C 
ATOM      5  C   UNL     1      -4.205   2.917  24.969  0.00  0.00    +0.094 C 
ATOM      6  N   UNL     1      -3.436   2.939  24.672  0.00  0.00    -0.270 NA
ATOM     11  C   UNL     1      -3.044   2.238  24.487  0.00  0.00    +0.094 C 
ATOM     12  C   UNL     1      -3.422   1.512  24.600  0.00  0.00    +0.113 C 
ATOM     13  C   UNL     1      -3.176   0.736  24.469  0.00  0.00    +0.121 C 
ATOM     14  N   UNL     1      -3.793   0.234  24.685  0.00  0.00    -0.241 N 
ENDROOT
BRANCH  14  15
ATOM     15  C   UNL     1      -3.785  -0.590  24.643  0.00  0.00    +0.055 A 
ATOM     16  C   UNL     1      -4.096  -0.974  23.982  0.00  0.00    +0.015 A 
ATOM     17  C   UNL     1      -4.088  -1.798  23.941  0.00  0.00    +0.001 A 
ATOM     18  C   UNL     1      -3.768  -2.238  24.560  0.00  0.00    +0.000 A 
ATOM     19  C   UNL     1      -3.457  -1.856  25.221  0.00  0.00    +0.001 A 
ATOM     20  C   UNL     1      -3.465  -1.032  25.263  0.00  0.00    +0.015 A 
ENDBRANCH  14  15
BRANCH   6   7
ATOM      7  C   UNL     1      -3.058   3.665  24.559  0.00  0.00    +0.072 C 
BRANCH   7   8
ATOM      8  C   UNL     1      -2.601   3.990  25.164  0.00  0.00    +0.016 C 
ATOM      9  C   UNL     1      -2.506   4.192  25.958  0.00  0.00    +0.001 C 
ATOM     10  C   UNL     1      -1.904   4.351  25.418  0.00  0.00    +0.001 C 
ENDBRANCH   7   8
ENDBRANCH   6   7
TORSDOF 3
ENDMDL
MODEL 2
REMARK VINA RESULT:      -9.9      1.893      4.831
REMARK  Name = 
REMARK  3 active torsions:
REMARK  status: ('A' for Active; 'I' for Inactive)
REMARK    1  A    between atoms: N_6  and  C_7
REMARK    2  A    between atoms: C_7  and  C_8
REMARK    3  A    between atoms: N_14  and  C_15
REMARK                            x       y       z     vdW  Elec       q    Type
REMARK                         _______ _______ _______ _____ _____    ______ ____
ROOT
ATOM      1  O   UNL     1      -0.410   2.219  26.096  0.00  0.00    -0.252 OA
ATOM      2  C   UNL     1      -1.026   1.996  25.594  0.00  0.00    +0.311 C 
ATOM      3  N   UNL     1      -1.258   1.223  25.427  0.00  0.00    -0.261 N 
ATOM      4  C   UNL     1      -0.973   0.492  25.685  0.00  0.00    +0.112 C 
ATOM      5  C   UNL     1      -1.323  -0.205  25.418  0.00  0.00    +0.094 C 
ATOM      6  N   UNL     1      -1.958  -0.172  24.892  0.00  0.00    -0.270 NA
ATOM     11  C   UNL     1      -2.243   0.557  24.633  0.00  0.00    +0.094 C 
ATOM     12  C   UNL     1      -1.893   1.255  24.901  0.00  0.00    +0.113 C 
ATOM     13  C   UNL     1      -2.053   2.048  24.744  0.00  0.00    +0.121 C 
ATOM     14  N   UNL     1      -1.517   2.506  25.172  0.00  0.00    -0.241 N 
ENDROOT
BRANCH  14  15
ATOM     15  C   UNL     1      -1.480   3.331  25.177  0.00  0.00    +0.055 A 
ATOM     16  C   UNL     1      -2.059   3.768  25.569  0.00  0.00    +0.015 A 
ATOM     17  C   UNL     1      -2.021   4.592  25.574  0.00  0.00    +0.001 A 
ATOM     18  C   UNL     1      -1.404   4.979  25.188  0.00  0.00    +0.000 A 
ATOM     19  C   UNL     1      -0.824   4.542  24.795  0.00  0.00    +0.001 A 
ATOM     20  C   UNL     1      -0.862   3.718  24.790  0.00  0.00    +0.015 A 
ENDBRANCH  14  15
BRANCH   6   7
ATOM      7  C   UNL     1      -2.309  -0.870  24.624  0.00  0.00    +0.072 C 
BRANCH   7   8
ATOM      8  C   UNL     1      -2.951  -1.191  25.031  0.00  0.00    +0.016 C 
ATOM      9  C   UNL     1      -3.365  -1.310  25.734  0.00  0.00    +0.001 C 
ATOM     10  C   UNL     1      -3.652  -1.627  25.029  0.00  0.00    +0.001 C 
ENDBRANCH   7   8
ENDBRANCH   6   7
TORSDOF 3
ENDMDL
MODEL 3
REMARK VINA RESULT:      -9.8      1.296      4.435
REMARK  Name = 
REMARK  3 active torsions:
REMARK  status: ('A' for Active; 'I' for Inactive)
REMARK    1  A    between atoms: N_6  and  C_7
REMARK    2  A    between atoms: C_7  and  C_8
REMARK    3  A    between atoms: N_14  and  C_15
REMARK                            x       y       z     vdW  Elec       q    Type
REMARK                         _______ _______ _______ _____ _____    ______ ____
ROOT
ATOM      1  O   UNL     1      -2.024   1.700  24.823  0.00  0.00    -0.252 OA
ATOM      2  C   UNL     1      -2.726   1.268  24.859  0.00  0.00    +0.311 C 
ATOM      3  N   UNL     1      -2.792   0.462  25.019  0.00  0.00    -0.261 N 
ATOM      4  C   UNL     1      -2.226  -0.117  25.180  0.00  0.00    +0.112 C 
ATOM      5  C   UNL     1      -2.461  -0.895  25.321  0.00  0.00    +0.094 C 
ATOM      6  N   UNL     1      -3.261  -1.095  25.302  0.00  0.00    -0.270 NA
ATOM     11  C   UNL     1      -3.827  -0.517  25.141  0.00  0.00    +0.094 C 
ATOM     12  C   UNL     1      -3.592   0.262  24.999  0.00  0.00    +0.113 C 
ATOM     13  C   UNL     1      -4.021   0.945  24.827  0.00  0.00    +0.121 C 
ATOM     14  N   UNL     1      -3.486   1.567  24.740  0.00  0.00    -0.241 N 
ENDROOT
BRANCH  14  15
ATOM     15  C   UNL     1      -3.677   2.350  24.566  0.00  0.00    +0.055 A 
ATOM     16  C   UNL     1      -3.692   2.607  23.782  0.00  0.00    +0.015 A 
ATOM     17  C   UNL     1      -3.883   3.390  23.607  0.00  0.00    +0.001 A 
ATOM     18  C   UNL     1      -4.059   3.917  24.216  0.00  0.00    +0.000 A 
ATOM     19  C   UNL     1      -4.045   3.661  25.001  0.00  0.00    +0.001 A 
ATOM     20  C   UNL     1      -3.854   2.878  25.175  0.00  0.00    +0.015 A 
ENDBRANCH  14  15
BRANCH   6   7
ATOM      7  C   UNL     1      -3.496  -1.873  25.443  0.00  0.00    +0.072 C 
BRANCH   7   8
ATOM      8  C   UNL     1      -3.564  -2.404  24.815  0.00  0.00    +0.016 C 
ATOM      9  C   UNL     1      -3.906  -2.621  24.097  0.00  0.00    +0.001 C 
ATOM     10  C   UNL     1      -3.338  -3.106  24.446  0.00  0.00    +0.001 C 
ENDBRANCH   7   8
ENDBRANCH   6   7
TORSDOF 3
ENDMDL
MODEL 4
REMARK VINA RESULT:      -9.8      1.857      2.237
REMARK  Name = 
REMARK  3 active torsions:
REMARK  status: ('A' for Active; 'I' for Inactive)
REMARK    1  A    between atoms: N_6  and  C_7
REMARK    2  A    between atoms: C_7  and  C_8
REMARK    3  A    between atoms: N_14  and  C_15
REMARK                            x       y       z     vdW  Elec       q    Type
REMARK                         _______ _______ _______ _____ _____    ______ ____
ROOT
ATOM      1  O   UNL     1      -1.162  -0.437  26.106  0.00  0.00    -0.252 OA
ATOM      2  C   UNL     1      -1.502   0.061  25.544  0.00  0.00    +0.311 C 
ATOM      3  N   UNL     1      -1.269   0.833  25.376  0.00  0.00    -0.261 N 
ATOM      4  C   UNL     1      -0.673   1.311  25.690  0.00  0.00    +0.112 C 
ATOM      5  C   UNL     1      -0.567   2.078  25.407  0.00  0.00    +0.094 C 
ATOM      6  N   UNL     1      -1.057   2.369  24.809  0.00  0.00    -0.270 NA
ATOM     11  C   UNL     1      -1.652   1.892  24.495  0.00  0.00    +0.094 C 
ATOM     12  C   UNL     1      -1.758   1.124  24.778  0.00  0.00    +0.113 C 
ATOM     13  C   UNL     1      -2.293   0.531  24.577  0.00  0.00    +0.121 C 
ATOM     14  N   UNL     1      -2.136  -0.127  25.049  0.00  0.00    -0.241 N 
ENDROOT
BRANCH  14  15
ATOM     15  C   UNL     1      -2.541  -0.845  25.031  0.00  0.00    +0.055 A 
ATOM     16  C   UNL     1      -3.244  -0.934  25.454  0.00  0.00    +0.015 A 
ATOM     17  C   UNL     1      -3.649  -1.653  25.436  0.00  0.00    +0.001 A 
ATOM     18  C   UNL     1      -3.350  -2.283  24.996  0.00  0.00    +0.000 A 
ATOM     19  C   UNL     1      -2.647  -2.195  24.573  0.00  0.00    +0.001 A 
ATOM     20  C   UNL     1      -2.242  -1.477  24.591  0.00  0.00    +0.015 A 
ENDBRANCH  14  15
BRANCH   6   7
ATOM      7  C   UNL     1      -0.951   3.137  24.525  0.00  0.00    +0.072 C 
BRANCH   7   8
ATOM      8  C   UNL     1      -1.254   3.777  24.948  0.00  0.00    +0.016 C 
ATOM      9  C   UNL     1      -1.794   4.084  25.490  0.00  0.00    +0.001 C 
ATOM     10  C   UNL     1      -1.239   4.580  25.136  0.00  0.00    +0.001 C 
ENDBRANCH   7   8
ENDBRANCH   6   7
TORSDOF 3
ENDMDL
