REMARK  Name = 
REMARK  10 active torsions:
REMARK  status: ('A' for Active; 'I' for Inactive)
REMARK    1  A    between atoms: N_2  and  C_3
REMARK    2  A    between atoms: N_2  and  C_29
REMARK    3  A    between atoms: C_3  and  C_4
REMARK    4  A    between atoms: C_6  and  C_7
REMARK    5  A    between atoms: C_7  and  C_8
REMARK    6  A    between atoms: C_10  and  N_11
REMARK    7  A    between atoms: N_11  and  C_12
REMARK    8  A    between atoms: N_11  and  C_18
REMARK    9  A    between atoms: C_12  and  C_13
REMARK   10  A    between atoms: C_18  and  C_19
REMARK                            x       y       z     vdW  Elec       q    Type
REMARK                         _______ _______ _______ _____ _____    ______ ____
ROOT
ATOM      8  C   UNL     1       2.337  -5.699   0.000  0.00  0.00    +0.009 C 
ATOM      9  C   UNL     1       1.754  -6.282   0.000  0.00  0.00    +0.016 C 
ATOM     10  C   UNL     1       1.170  -5.699   0.000  0.00  0.00    +0.058 C 
ATOM     24  C   UNL     1       1.754  -5.115   0.000  0.00  0.00    +0.014 C 
ATOM     25  C   UNL     1       1.323  -4.412   0.000  0.00  0.00    +0.001 C 
ATOM     26  C   UNL     1       2.185  -4.412   0.000  0.00  0.00    +0.001 C 
ENDROOT
BRANCH   8   7
ATOM      7  C   UNL     1       3.162  -5.699   0.000  0.00  0.00    +0.049 C 
BRANCH   7   6
ATOM      4  C   UNL     1       4.566  -4.091   0.000  0.00  0.00    +0.174 A 
ATOM      5  C   UNL     1       4.395  -4.898   0.000  0.00  0.00    +0.055 A 
ATOM      6  C   UNL     1       3.574  -4.984   0.000  0.00  0.00    +0.100 A 
ATOM     27  N   UNL     1       3.239  -4.230   0.000  0.00  0.00    -0.082 NA
ATOM     28  O   UNL     1       3.852  -3.678   0.000  0.00  0.00    -0.356 OA
BRANCH   4   3
ATOM      3  C   UNL     1       5.320  -3.755   0.000  0.00  0.00    +0.159 C 
BRANCH   3   2
ATOM      1  C   UNL     1       4.739  -2.450   0.000  0.00  0.00    +0.113 C 
ATOM      2  N   UNL     1       5.406  -2.935   0.000  0.00  0.00    -0.299 N 
BRANCH   2  29
ATOM     29  C   UNL     1       6.160  -2.599   0.000  0.00  0.00    +0.048 A 
ATOM     30  C   UNL     1       6.246  -1.779   0.000  0.00  0.00    +0.015 A 
ATOM     31  C   UNL     1       7.000  -1.443   0.000  0.00  0.00    +0.001 A 
ATOM     32  C   UNL     1       7.667  -1.928   0.000  0.00  0.00    +0.000 A 
ATOM     33  C   UNL     1       7.581  -2.749   0.000  0.00  0.00    +0.001 A 
ATOM     34  C   UNL     1       6.827  -3.084   0.000  0.00  0.00    +0.015 A 
ENDBRANCH   2  29
ENDBRANCH   3   2
ENDBRANCH   4   3
ENDBRANCH   7   6
ENDBRANCH   8   7
BRANCH  10  11
ATOM     11  N   UNL     1       0.345  -5.699   0.000  0.00  0.00    -0.261 NA
BRANCH  11  12
ATOM     12  C   UNL     1      -0.067  -4.984   0.000  0.00  0.00    +0.138 C 
BRANCH  12  13
ATOM     13  C   UNL     1      -0.892  -4.984   0.000  0.00  0.00    +0.139 A 
ATOM     14  C   UNL     1      -1.377  -5.652   0.000  0.00  0.00    +0.038 A 
ATOM     15  C   UNL     1      -2.162  -5.397   0.000  0.00  0.00    +0.043 A 
ATOM     16  C   UNL     1      -2.162  -4.572   0.000  0.00  0.00    +0.179 A 
ATOM     17  O   UNL     1      -1.377  -4.317   0.000  0.00  0.00    -0.453 OA
ENDBRANCH  12  13
ENDBRANCH  11  12
BRANCH  11  18
ATOM     18  C   UNL     1      -0.067  -6.413   0.000  0.00  0.00    +0.138 C 
BRANCH  18  19
ATOM     19  C   UNL     1       0.345  -7.128   0.000  0.00  0.00    +0.139 A 
ATOM     20  C   UNL     1       0.010  -7.881   0.000  0.00  0.00    +0.038 A 
ATOM     21  C   UNL     1       0.623  -8.433   0.000  0.00  0.00    +0.043 A 
ATOM     22  C   UNL     1       1.337  -8.021   0.000  0.00  0.00    +0.179 A 
ATOM     23  O   UNL     1       1.166  -7.214   0.000  0.00  0.00    -0.453 OA
ENDBRANCH  18  19
ENDBRANCH  11  18
ENDBRANCH  10  11
TORSDOF 10
