MODEL 1
REMARK VINA RESULT:     -11.9      0.000      0.000
REMARK  Name = 
REMARK  4 active torsions:
REMARK  status: ('A' for Active; 'I' for Inactive)
REMARK    1  A    between atoms: C_4  and  N_18
REMARK    2  A    between atoms: C_6  and  C_7
REMARK    3  A    between atoms: C_9  and  C_12
REMARK    4  A    between atoms: C_19  and  C_21
REMARK                            x       y       z     vdW  Elec       q    Type
REMARK                         _______ _______ _______ _____ _____    ______ ____
ROOT
ATOM      1  C   UNL     1      -5.323   2.644  24.678  0.00  0.00    +0.090 C 
ATOM      2  N   UNL     1      -4.833   2.005  24.858  0.00  0.00    -0.264 NA
ATOM      3  C   UNL     1      -5.021   1.208  24.760  0.00  0.00    +0.094 C 
ATOM      4  C   UNL     1      -4.374   0.761  25.009  0.00  0.00    +0.113 C 
ATOM      5  C   UNL     1      -3.786   1.282  25.261  0.00  0.00    +0.049 C 
ATOM      6  C   UNL     1      -4.070   2.051  25.168  0.00  0.00    +0.139 C 
ENDROOT
BRANCH   6   7
ATOM      7  C   UNL     1      -3.662   2.744  25.352  0.00  0.00    +0.251 A 
ATOM      8  N   UNL     1      -2.934   2.976  25.040  0.00  0.00    -0.188 NA
ATOM      9  C   UNL     1      -2.733   3.702  25.375  0.00  0.00    +0.223 A 
ATOM     10  N   UNL     1      -3.336   3.919  25.894  0.00  0.00    -0.054 NA
ATOM     11  O   UNL     1      -3.911   3.327  25.880  0.00  0.00    -0.336 OA
BRANCH   9  12
ATOM     12  C   UNL     1      -2.048   4.135  25.219  0.00  0.00    +0.139 A 
ATOM     13  C   UNL     1      -2.065   4.959  25.253  0.00  0.00    +0.121 A 
ATOM     14  N   UNL     1      -1.380   5.393  25.097  0.00  0.00    -0.239 NA
ATOM     15  C   UNL     1      -0.679   5.002  24.906  0.00  0.00    +0.120 A 
ATOM     16  C   UNL     1      -0.663   4.177  24.871  0.00  0.00    +0.120 A 
ATOM     17  N   UNL     1      -1.347   3.744  25.028  0.00  0.00    -0.237 NA
ENDBRANCH   9  12
ENDBRANCH   6   7
BRANCH   4  18
ATOM     18  N   UNL     1      -4.323  -0.063  25.006  0.00  0.00    -0.202 NA
ATOM     19  C   UNL     1      -3.908  -0.449  24.406  0.00  0.00    +0.265 C 
ATOM     20  O   UNL     1      -3.544  -0.010  23.810  0.00  0.00    -0.268 OA
BRANCH  19  21
ATOM     21  C   UNL     1      -3.857  -1.272  24.403  0.00  0.00    +0.055 A 
ATOM     22  C   UNL     1      -4.261  -1.708  23.833  0.00  0.00    +0.005 A 
ATOM     23  C   UNL     1      -4.210  -2.531  23.830  0.00  0.00    +0.000 A 
ATOM     24  C   UNL     1      -3.754  -2.919  24.398  0.00  0.00    +0.000 A 
ATOM     25  C   UNL     1      -3.349  -2.482  24.969  0.00  0.00    +0.000 A 
ATOM     26  C   UNL     1      -3.400  -1.659  24.972  0.00  0.00    +0.005 A 
ENDBRANCH  19  21
ENDBRANCH   4  18
TORSDOF 4
ENDMDL
MODEL 2
REMARK VINA RESULT:     -11.1      0.956      5.431
REMARK  Name = 
REMARK  4 active torsions:
REMARK  status: ('A' for Active; 'I' for Inactive)
REMARK    1  A    between atoms: C_4  and  N_18
REMARK    2  A    between atoms: C_6  and  C_7
REMARK    3  A    between atoms: C_9  and  C_12
REMARK    4  A    between atoms: C_19  and  C_21
REMARK                            x       y       z     vdW  Elec       q    Type
REMARK                         _______ _______ _______ _____ _____    ______ ____
ROOT
ATOM      1  C   UNL     1      -5.389   2.068  24.644  0.00  0.00    +0.090 C 
ATOM      2  N   UNL     1      -4.571   2.175  24.648  0.00  0.00    -0.264 NA
ATOM      3  C   UNL     1      -4.175   2.887  24.520  0.00  0.00    +0.094 C 
ATOM      4  C   UNL     1      -3.365   2.741  24.573  0.00  0.00    +0.113 C 
ATOM      5  C   UNL     1      -3.261   1.938  24.733  0.00  0.00    +0.049 C 
ATOM      6  C   UNL     1      -4.006   1.588  24.780  0.00  0.00    +0.139 C 
ENDROOT
BRANCH   6   7
ATOM      7  C   UNL     1      -4.159   0.793  24.931  0.00  0.00    +0.251 A 
ATOM      8  N   UNL     1      -3.807   0.150  24.551  0.00  0.00    -0.188 NA
ATOM      9  C   UNL     1      -4.122  -0.541  24.874  0.00  0.00    +0.223 A 
ATOM     10  N   UNL     1      -4.669  -0.325  25.454  0.00  0.00    -0.054 NA
ATOM     11  O   UNL     1      -4.692   0.499  25.489  0.00  0.00    -0.336 OA
BRANCH   9  12
ATOM     12  C   UNL     1      -3.925  -1.312  24.656  0.00  0.00    +0.139 A 
ATOM     13  C   UNL     1      -4.287  -1.661  24.002  0.00  0.00    +0.121 A 
ATOM     14  N   UNL     1      -4.090  -2.432  23.784  0.00  0.00    -0.239 NA
ATOM     15  C   UNL     1      -3.530  -2.853  24.220  0.00  0.00    +0.120 A 
ATOM     16  C   UNL     1      -3.168  -2.504  24.873  0.00  0.00    +0.120 A 
ATOM     17  N   UNL     1      -3.365  -1.733  25.091  0.00  0.00    -0.237 NA
ENDBRANCH   9  12
ENDBRANCH   6   7
BRANCH   4  18
ATOM     18  N   UNL     1      -2.764   3.300  24.481  0.00  0.00    -0.202 NA
ATOM     19  C   UNL     1      -2.422   3.650  25.146  0.00  0.00    +0.265 C 
ATOM     20  O   UNL     1      -2.681   3.442  25.901  0.00  0.00    -0.268 OA
BRANCH  19  21
ATOM     21  C   UNL     1      -1.822   4.208  25.055  0.00  0.00    +0.055 A 
ATOM     22  C   UNL     1      -1.987   5.011  25.146  0.00  0.00    +0.005 A 
ATOM     23  C   UNL     1      -1.387   5.569  25.055  0.00  0.00    +0.000 A 
ATOM     24  C   UNL     1      -0.620   5.325  24.873  0.00  0.00    +0.000 A 
ATOM     25  C   UNL     1      -0.455   4.521  24.782  0.00  0.00    +0.000 A 
ATOM     26  C   UNL     1      -1.055   3.963  24.873  0.00  0.00    +0.005 A 
ENDBRANCH  19  21
ENDBRANCH   4  18
TORSDOF 4
ENDMDL
MODEL 3
REMARK VINA RESULT:     -10.8      1.959      2.503
REMARK  Name = 
REMARK  4 active torsions:
REMARK  status: ('A' for Active; 'I' for Inactive)
REMARK    1  A    between atoms: C_4  and  N_18
REMARK    2  A    between atoms: C_6  and  C_7
REMARK    3  A    between atoms: C_9  and  C_12
REMARK    4  A    between atoms: C_19  and  C_21
REMARK                            x       y       z     vdW  Elec       q    Type
REMARK                         _______ _______ _______ _____ _____    ______ ____
ROOT
ATOM      1  C   UNL     1       0.304   0.896  24.111  0.00  0.00    +0.090 C 
ATOM      2  N   UNL     1      -0.389   0.581  24.429  0.00  0.00    -0.264 NA
ATOM      3  C   UNL     1      -0.695  -0.170  24.277  0.00  0.00    +0.094 C 
ATOM      4  C   UNL     1      -1.393  -0.253  24.708  0.00  0.00    +0.113 C 
ATOM      5  C   UNL     1      -1.519   0.447  25.127  0.00  0.00    +0.049 C 
ATOM      6  C   UNL     1      -0.899   0.962  24.954  0.00  0.00    +0.139 C 
ENDROOT
BRANCH   6   7
ATOM      7  C   UNL     1      -0.804   1.725  25.254  0.00  0.00    +0.251 A 
ATOM      8  N   UNL     1      -1.156   2.410  24.958  0.00  0.00    -0.188 NA
ATOM      9  C   UNL     1      -0.911   3.045  25.423  0.00  0.00    +0.223 A 
ATOM     10  N   UNL     1      -0.406   2.753  26.008  0.00  0.00    -0.054 NA
ATOM     11  O   UNL     1      -0.340   1.937  25.903  0.00  0.00    -0.336 OA
BRANCH   9  12
ATOM     12  C   UNL     1      -1.131   3.834  25.322  0.00  0.00    +0.139 A 
ATOM     13  C   UNL     1      -1.872   4.090  25.576  0.00  0.00    +0.121 A 
ATOM     14  N   UNL     1      -2.092   4.879  25.475  0.00  0.00    -0.239 NA
ATOM     15  C   UNL     1      -1.570   5.411  25.120  0.00  0.00    +0.120 A 
ATOM     16  C   UNL     1      -0.828   5.153  24.867  0.00  0.00    +0.120 A 
ATOM     17  N   UNL     1      -0.609   4.365  24.968  0.00  0.00    -0.237 NA
ENDBRANCH   9  12
ENDBRANCH   6   7
BRANCH   4  18
ATOM     18  N   UNL     1      -1.880  -0.919  24.720  0.00  0.00    -0.202 NA
ATOM     19  C   UNL     1      -2.611  -0.902  24.337  0.00  0.00    +0.265 C 
ATOM     20  O   UNL     1      -2.854  -0.219  23.943  0.00  0.00    -0.268 OA
BRANCH  19  21
ATOM     21  C   UNL     1      -3.098  -1.568  24.348  0.00  0.00    +0.055 A 
ATOM     22  C   UNL     1      -3.803  -1.570  23.920  0.00  0.00    +0.005 A 
ATOM     23  C   UNL     1      -4.290  -2.235  23.931  0.00  0.00    +0.000 A 
ATOM     24  C   UNL     1      -4.072  -2.899  24.370  0.00  0.00    +0.000 A 
ATOM     25  C   UNL     1      -3.366  -2.897  24.797  0.00  0.00    +0.000 A 
ATOM     26  C   UNL     1      -2.879  -2.232  24.787  0.00  0.00    +0.005 A 
ENDBRANCH  19  21
ENDBRANCH   4  18
TORSDOF 4
ENDMDL
MODEL 4
REMARK VINA RESULT:     -10.8      2.371      6.075
REMARK  Name = 
REMARK  4 active torsions:
REMARK  status: ('A' for Active; 'I' for Inactive)
REMARK    1  A    between atoms: C_4  and  N_18
REMARK    2  A    between atoms: C_6  and  C_7
REMARK    3  A    between atoms: C_9  and  C_12
REMARK    4  A    between atoms: C_19  and  C_21
REMARK                            x       y       z     vdW  Elec       q    Type
REMARK                         _______ _______ _______ _____ _____    ______ ____
ROOT
ATOM      1  C   UNL     1       0.457   0.183  23.595  0.00  0.00    +0.090 C 
ATOM      2  N   UNL     1       0.028   0.691  24.084  0.00  0.00    -0.264 NA
ATOM      3  C   UNL     1       0.114   1.510  24.127  0.00  0.00    +0.094 C 
ATOM      4  C   UNL     1      -0.423   1.794  24.684  0.00  0.00    +0.113 C 
ATOM      5  C   UNL     1      -0.842   1.150  24.986  0.00  0.00    +0.049 C 
ATOM      6  C   UNL     1      -0.563   0.468  24.615  0.00  0.00    +0.139 C 
ENDROOT
BRANCH   6   7
ATOM      7  C   UNL     1      -0.828  -0.300  24.751  0.00  0.00    +0.251 A 
ATOM      8  N   UNL     1      -1.585  -0.589  24.588  0.00  0.00    -0.188 NA
ATOM      9  C   UNL     1      -1.608  -1.383  24.810  0.00  0.00    +0.223 A 
ATOM     10  N   UNL     1      -0.866  -1.586  25.110  0.00  0.00    -0.054 NA
ATOM     11  O   UNL     1      -0.385  -0.917  25.073  0.00  0.00    -0.336 OA
BRANCH   9  12
ATOM     12  C   UNL     1      -2.258  -1.886  24.743  0.00  0.00    +0.139 A 
ATOM     13  C   UNL     1      -2.204  -2.572  24.289  0.00  0.00    +0.121 A 
ATOM     14  N   UNL     1      -2.855  -3.076  24.222  0.00  0.00    -0.239 NA
ATOM     15  C   UNL     1      -3.559  -2.892  24.610  0.00  0.00    +0.120 A 
ATOM     16  C   UNL     1      -3.613  -2.205  25.064  0.00  0.00    +0.120 A 
ATOM     17  N   UNL     1      -2.963  -1.703  25.131  0.00  0.00    -0.237 NA
ENDBRANCH   9  12
ENDBRANCH   6   7
BRANCH   4  18
ATOM     18  N   UNL     1      -0.525   2.583  24.902  0.00  0.00    -0.202 NA
ATOM     19  C   UNL     1      -1.096   3.045  24.526  0.00  0.00    +0.265 C 
ATOM     20  O   UNL     1      -1.565   2.717  23.931  0.00  0.00    -0.268 OA
BRANCH  19  21
ATOM     21  C   UNL     1      -1.198   3.834  24.743  0.00  0.00    +0.055 A 
ATOM     22  C   UNL     1      -0.621   4.392  24.553  0.00  0.00    +0.005 A 
ATOM     23  C   UNL     1      -0.723   5.181  24.770  0.00  0.00    +0.000 A 
ATOM     24  C   UNL     1      -1.402   5.413  25.178  0.00  0.00    +0.000 A 
ATOM     25  C   UNL     1      -1.979   4.854  25.368  0.00  0.00    +0.000 A 
ATOM     26  C   UNL     1      -1.877   4.065  25.151  0.00  0.00    +0.005 A 
ENDBRANCH  19  21
ENDBRANCH   4  18
TORSDOF 4
ENDMDL
MODEL 5
REMARK VINA RESULT:      -9.1      2.765      4.374
REMARK  Name = 
REMARK  4 active torsions:
REMARK  status: ('A' for Active; 'I' for Inactive)
REMARK    1  A    between atoms: C_4  and  N_18
REMARK    2  A    between atoms: C_6  and  C_7
REMARK    3  A    between atoms: C_9  and  C_12
REMARK    4  A    between atoms: C_19  and  C_21
REMARK                            x       y       z     vdW  Elec       q    Type
REMARK                         _______ _______ _______ _____ _____    ______ ____
ROOT
ATOM      1  C   UNL     1      -2.886  -1.799  24.387  0.00  0.00    +0.090 C 
ATOM      2  N   UNL     1      -2.999  -1.028  24.656  0.00  0.00    -0.264 NA
ATOM      3  C   UNL     1      -3.722  -0.685  24.857  0.00  0.00    +0.094 C 
ATOM      4  C   UNL     1      -3.578   0.091  25.096  0.00  0.00    +0.113 C 
ATOM      5  C   UNL     1      -2.766   0.228  25.044  0.00  0.00    +0.049 C 
ATOM      6  C   UNL     1      -2.408  -0.463  24.772  0.00  0.00    +0.139 C 
ENDROOT
BRANCH   6   7
ATOM      7  C   UNL     1      -1.602  -0.571  24.640  0.00  0.00    +0.251 A 
ATOM      8  N   UNL     1      -1.132  -0.131  24.123  0.00  0.00    -0.188 NA
ATOM      9  C   UNL     1      -0.363  -0.426  24.164  0.00  0.00    +0.223 A 
ATOM     10  N   UNL     1      -0.357  -1.049  24.706  0.00  0.00    -0.054 NA
ATOM     11  O   UNL     1      -1.122  -1.138  25.000  0.00  0.00    -0.336 OA
BRANCH   9  12
ATOM     12  C   UNL     1       0.287  -0.148  23.737  0.00  0.00    +0.139 A 
ATOM     13  C   UNL     1       0.597   0.599  23.900  0.00  0.00    +0.121 A 
ATOM     14  N   UNL     1       1.247   0.877  23.474  0.00  0.00    -0.239 NA
ATOM     15  C   UNL     1       1.585   0.408  22.885  0.00  0.00    +0.120 A 
ATOM     16  C   UNL     1       1.274  -0.338  22.723  0.00  0.00    +0.120 A 
ATOM     17  N   UNL     1       0.625  -0.617  23.149  0.00  0.00    -0.237 NA
ENDBRANCH   9  12
ENDBRANCH   6   7
BRANCH   4  18
ATOM     18  N   UNL     1      -4.147   0.635  25.345  0.00  0.00    -0.202 NA
ATOM     19  C   UNL     1      -4.400   1.231  24.833  0.00  0.00    +0.265 C 
ATOM     20  O   UNL     1      -4.084   1.281  24.072  0.00  0.00    -0.268 OA
BRANCH  19  21
ATOM     21  C   UNL     1      -4.969   1.774  25.080  0.00  0.00    +0.055 A 
ATOM     22  C   UNL     1      -5.761   1.552  25.124  0.00  0.00    +0.005 A 
ATOM     23  C   UNL     1      -6.330   2.096  25.372  0.00  0.00    +0.000 A 
ATOM     24  C   UNL     1      -6.105   2.863  25.576  0.00  0.00    +0.000 A 
ATOM     25  C   UNL     1      -5.311   3.086  25.533  0.00  0.00    +0.000 A 
ATOM     26  C   UNL     1      -4.743   2.542  25.285  0.00  0.00    +0.005 A 
ENDBRANCH  19  21
ENDBRANCH   4  18
TORSDOF 4
ENDMDL
MODEL 6
REMARK VINA RESULT:      -9.1      2.697      4.371
REMARK  Name = 
REMARK  4 active torsions:
REMARK  status: ('A' for Active; 'I' for Inactive)
REMARK    1  A    between atoms: C_4  and  N_18
REMARK    2  A    between atoms: C_6  and  C_7
REMARK    3  A    between atoms: C_9  and  C_12
REMARK    4  A    between atoms: C_19  and  C_21
REMARK                            x       y       z     vdW  Elec       q    Type
REMARK                         _______ _______ _______ _____ _____    ______ ____
ROOT
ATOM      1  C   UNL     1      -0.777   4.034  24.646  0.00  0.00    +0.090 C 
ATOM      2  N   UNL     1      -1.350   3.474  24.844  0.00  0.00    -0.264 NA
ATOM      3  C   UNL     1      -2.138   3.630  25.028  0.00  0.00    +0.094 C 
ATOM      4  C   UNL     1      -2.509   2.912  25.190  0.00  0.00    +0.113 C 
ATOM      5  C   UNL     1      -1.951   2.311  25.105  0.00  0.00    +0.049 C 
ATOM      6  C   UNL     1      -1.234   2.658  24.891  0.00  0.00    +0.139 C 
ENDROOT
BRANCH   6   7
ATOM      7  C   UNL     1      -0.526   2.259  24.749  0.00  0.00    +0.251 A 
ATOM      8  N   UNL     1      -0.384   1.725  24.137  0.00  0.00    -0.188 NA
ATOM      9  C   UNL     1       0.394   1.461  24.204  0.00  0.00    +0.223 A 
ATOM     10  N   UNL     1       0.734   1.832  24.858  0.00  0.00    -0.054 NA
ATOM     11  O   UNL     1       0.165   2.325  25.195  0.00  0.00    -0.336 OA
BRANCH   9  12
ATOM     12  C   UNL     1       0.768   0.920  23.704  0.00  0.00    +0.139 A 
ATOM     13  C   UNL     1       0.371   0.237  23.466  0.00  0.00    +0.121 A 
ATOM     14  N   UNL     1       0.745  -0.304  22.967  0.00  0.00    -0.239 NA
ATOM     15  C   UNL     1       1.514  -0.161  22.706  0.00  0.00    +0.120 A 
ATOM     16  C   UNL     1       1.910   0.523  22.944  0.00  0.00    +0.120 A 
ATOM     17  N   UNL     1       1.537   1.063  23.443  0.00  0.00    -0.237 NA
ENDBRANCH   9  12
ENDBRANCH   6   7
BRANCH   4  18
ATOM     18  N   UNL     1      -3.301   2.812  25.400  0.00  0.00    -0.202 NA
ATOM     19  C   UNL     1      -3.867   2.660  24.818  0.00  0.00    +0.265 C 
ATOM     20  O   UNL     1      -3.639   2.607  24.026  0.00  0.00    -0.268 OA
BRANCH  19  21
ATOM     21  C   UNL     1      -4.658   2.560  25.027  0.00  0.00    +0.055 A 
ATOM     22  C   UNL     1      -5.058   1.872  24.811  0.00  0.00    +0.005 A 
ATOM     23  C   UNL     1      -5.850   1.772  25.020  0.00  0.00    +0.000 A 
ATOM     24  C   UNL     1      -6.242   2.360  25.446  0.00  0.00    +0.000 A 
ATOM     25  C   UNL     1      -5.841   3.049  25.662  0.00  0.00    +0.000 A 
ATOM     26  C   UNL     1      -5.050   3.149  25.452  0.00  0.00    +0.005 A 
ENDBRANCH  19  21
ENDBRANCH   4  18
TORSDOF 4
ENDMDL
MODEL 7
REMARK VINA RESULT:      -8.9      4.155      6.097
REMARK  Name = 
REMARK  4 active torsions:
REMARK  status: ('A' for Active; 'I' for Inactive)
REMARK    1  A    between atoms: C_4  and  N_18
REMARK    2  A    between atoms: C_6  and  C_7
REMARK    3  A    between atoms: C_9  and  C_12
REMARK    4  A    between atoms: C_19  and  C_21
REMARK                            x       y       z     vdW  Elec       q    Type
REMARK                         _______ _______ _______ _____ _____    ______ ____
ROOT
ATOM      1  C   UNL     1      -0.299  -0.481  24.249  0.00  0.00    +0.090 C 
ATOM      2  N   UNL     1      -0.315   0.336  24.142  0.00  0.00    -0.264 NA
ATOM      3  C   UNL     1      -0.883   0.854  24.441  0.00  0.00    +0.094 C 
ATOM      4  C   UNL     1      -0.684   1.617  24.201  0.00  0.00    +0.113 C 
ATOM      5  C   UNL     1       0.007   1.572  23.753  0.00  0.00    +0.049 C 
ATOM      6  C   UNL     1       0.235   0.781  23.716  0.00  0.00    +0.139 C 
ENDROOT
BRANCH   6   7
ATOM      7  C   UNL     1       0.897   0.485  23.323  0.00  0.00    +0.251 A 
ATOM      8  N   UNL     1       1.684   0.675  23.486  0.00  0.00    -0.188 NA
ATOM      9  C   UNL     1       2.162   0.255  22.962  0.00  0.00    +0.223 A 
ATOM     10  N   UNL     1       1.671  -0.196  22.475  0.00  0.00    -0.054 NA
ATOM     11  O   UNL     1       0.890  -0.054  22.698  0.00  0.00    -0.336 OA
BRANCH   9  12
ATOM     12  C   UNL     1       2.986   0.280  22.930  0.00  0.00    +0.139 A 
ATOM     13  C   UNL     1       3.428  -0.372  23.174  0.00  0.00    +0.121 A 
ATOM     14  N   UNL     1       4.252  -0.347  23.143  0.00  0.00    -0.239 NA
ATOM     15  C   UNL     1       4.634   0.331  22.867  0.00  0.00    +0.120 A 
ATOM     16  C   UNL     1       4.191   0.983  22.624  0.00  0.00    +0.120 A 
ATOM     17  N   UNL     1       3.368   0.958  22.655  0.00  0.00    -0.237 NA
ENDBRANCH   9  12
ENDBRANCH   6   7
BRANCH   4  18
ATOM     18  N   UNL     1      -1.104   2.306  24.377  0.00  0.00    -0.202 NA
ATOM     19  C   UNL     1      -0.898   2.756  25.038  0.00  0.00    +0.265 C 
ATOM     20  O   UNL     1      -0.274   2.517  25.521  0.00  0.00    -0.268 OA
BRANCH  19  21
ATOM     21  C   UNL     1      -1.317   3.444  25.215  0.00  0.00    +0.055 A 
ATOM     22  C   UNL     1      -2.037   3.398  25.614  0.00  0.00    +0.005 A 
ATOM     23  C   UNL     1      -2.455   4.087  25.791  0.00  0.00    +0.000 A 
ATOM     24  C   UNL     1      -2.153   4.822  25.569  0.00  0.00    +0.000 A 
ATOM     25  C   UNL     1      -1.432   4.868  25.170  0.00  0.00    +0.000 A 
ATOM     26  C   UNL     1      -1.014   4.179  24.993  0.00  0.00    +0.005 A 
ENDBRANCH  19  21
ENDBRANCH   4  18
TORSDOF 4
ENDMDL
