MODEL 1
REMARK VINA RESULT:      -9.6      0.000      0.000
REMARK  Name = 
REMARK  10 active torsions:
REMARK  status: ('A' for Active; 'I' for Inactive)
REMARK    1  A    between atoms: C_2  and  C_4
REMARK    2  A    between atoms: C_6  and  C_7
REMARK    3  A    between atoms: C_7  and  C_8
REMARK    4  A    between atoms: N_10  and  C_11
REMARK    5  A    between atoms: C_11  and  C_12
REMARK    6  A    between atoms: C_12  and  N_13
REMARK    7  A    between atoms: C_22  and  C_23
REMARK    8  A    between atoms: C_23  and  N_24
REMARK    9  A    between atoms: N_24  and  S_25
REMARK   10  A    between atoms: S_25  and  C_28
REMARK                            x       y       z     vdW  Elec       q    Type
REMARK                         _______ _______ _______ _____ _____    ______ ____
ROOT
ATOM      4  C   UNL     1      -3.857   1.668  24.179  0.00  0.00    +0.006 C 
ATOM      5  C   UNL     1      -4.048   2.445  24.381  0.00  0.00    +0.005 C 
ATOM      6  C   UNL     1      -4.658   2.594  24.917  0.00  0.00    +0.027 C 
ATOM     19  C   UNL     1      -5.076   1.966  25.251  0.00  0.00    -0.048 C 
ATOM     20  C   UNL     1      -5.685   2.114  25.786  0.00  0.00    +0.026 C 
ATOM     21  C   UNL     1      -4.884   1.189  25.048  0.00  0.00    -0.033 C 
ATOM     22  C   UNL     1      -4.275   1.040  24.513  0.00  0.00    +0.041 C 
ENDROOT
BRANCH   4   2
ATOM      1  C   UNL     1      -3.396   1.550  22.832  0.00  0.00    +0.000 C 
ATOM      2  C   UNL     1      -3.247   1.520  23.643  0.00  0.00    +0.000 C 
ATOM      3  C   UNL     1      -2.490   1.342  23.918  0.00  0.00    +0.000 C 
ENDBRANCH   4   2
BRANCH   6   7
ATOM      7  C   UNL     1      -4.849   3.370  25.119  0.00  0.00    +0.091 C 
BRANCH   7   8
ATOM      8  C   UNL     1      -4.292   3.970  25.017  0.00  0.00    +0.242 C 
ATOM      9  O   UNL     1      -4.342   4.473  24.364  0.00  0.00    -0.273 OA
ATOM     10  N   UNL     1      -3.685   4.068  25.568  0.00  0.00    -0.204 NA
BRANCH  10  11
ATOM     11  C   UNL     1      -3.129   4.668  25.465  0.00  0.00    +0.132 C 
BRANCH  11  12
ATOM     12  C   UNL     1      -2.424   4.655  25.896  0.00  0.00    +0.096 C 
BRANCH  12  13
ATOM     13  N   UNL     1      -1.700   4.703  25.503  0.00  0.00    -0.267 NA
ATOM     14  C   UNL     1      -1.185   4.058  25.508  0.00  0.00    +0.105 C 
ATOM     15  C   UNL     1      -0.462   4.106  25.115  0.00  0.00    +0.159 C 
ATOM     16  O   UNL     1      -0.252   4.798  24.718  0.00  0.00    -0.351 OA
ATOM     17  C   UNL     1      -0.767   5.442  24.714  0.00  0.00    +0.159 C 
ATOM     18  C   UNL     1      -1.491   5.395  25.106  0.00  0.00    +0.105 C 
ENDBRANCH  12  13
ENDBRANCH  11  12
ENDBRANCH  10  11
ENDBRANCH   7   8
ENDBRANCH   6   7
BRANCH  22  23
ATOM     23  C   UNL     1      -4.083   0.264  24.310  0.00  0.00    +0.120 C 
BRANCH  23  24
ATOM     24  N   UNL     1      -4.432  -0.365  24.715  0.00  0.00    -0.077 NA
BRANCH  24  25
ATOM     25  S   UNL     1      -4.169  -1.136  24.583  0.00  0.00    +0.077 S 
ATOM     26  O   UNL     1      -3.750  -1.114  25.294  0.00  0.00    -0.152 OA
ATOM     27  O   UNL     1      -4.587  -1.158  23.872  0.00  0.00    -0.152 OA
BRANCH  25  28
ATOM     28  C   UNL     1      -3.905  -1.907  24.452  0.00  0.00    +0.124 A 
ATOM     29  C   UNL     1      -3.319  -2.231  24.933  0.00  0.00    +0.022 A 
ATOM     30  C   UNL     1      -3.056  -3.001  24.802  0.00  0.00    +0.031 A 
ATOM     31  C   UNL     1      -3.379  -3.449  24.188  0.00  0.00    +0.140 A 
ATOM     32  F   UNL     1      -3.116  -4.219  24.057  0.00  0.00    -0.204 F 
ATOM     33  C   UNL     1      -3.965  -3.125  23.707  0.00  0.00    +0.031 A 
ATOM     34  C   UNL     1      -4.229  -2.353  23.838  0.00  0.00    +0.022 A 
ENDBRANCH  25  28
ENDBRANCH  24  25
ENDBRANCH  23  24
ENDBRANCH  22  23
TORSDOF 10
ENDMDL
MODEL 2
REMARK VINA RESULT:      -9.4      4.021      5.642
REMARK  Name = 
REMARK  10 active torsions:
REMARK  status: ('A' for Active; 'I' for Inactive)
REMARK    1  A    between atoms: C_2  and  C_4
REMARK    2  A    between atoms: C_6  and  C_7
REMARK    3  A    between atoms: C_7  and  C_8
REMARK    4  A    between atoms: N_10  and  C_11
REMARK    5  A    between atoms: C_11  and  C_12
REMARK    6  A    between atoms: C_12  and  N_13
REMARK    7  A    between atoms: C_22  and  C_23
REMARK    8  A    between atoms: C_23  and  N_24
REMARK    9  A    between atoms: N_24  and  S_25
REMARK   10  A    between atoms: S_25  and  C_28
REMARK                            x       y       z     vdW  Elec       q    Type
REMARK                         _______ _______ _______ _____ _____    ______ ____
ROOT
ATOM      4  C   UNL     1      -0.921   1.437  24.492  0.00  0.00    +0.006 C 
ATOM      5  C   UNL     1      -0.312   0.917  24.292  0.00  0.00    +0.005 C 
ATOM      6  C   UNL     1      -0.482   0.127  24.124  0.00  0.00    +0.027 C 
ATOM     19  C   UNL     1      -1.261  -0.143  24.156  0.00  0.00    -0.048 C 
ATOM     20  C   UNL     1      -1.431  -0.932  23.989  0.00  0.00    +0.026 C 
ATOM     21  C   UNL     1      -1.869   0.377  24.357  0.00  0.00    -0.033 C 
ATOM     22  C   UNL     1      -1.700   1.167  24.525  0.00  0.00    +0.041 C 
ENDROOT
BRANCH   4   2
ATOM      1  C   UNL     1      -0.571   2.453  25.432  0.00  0.00    +0.000 C 
ATOM      2  C   UNL     1      -0.750   2.226  24.660  0.00  0.00    +0.000 C 
ATOM      3  C   UNL     1      -0.758   2.788  24.056  0.00  0.00    +0.000 C 
ENDBRANCH   4   2
BRANCH   6   7
ATOM      7  C   UNL     1       0.127  -0.392  23.923  0.00  0.00    +0.091 C 
BRANCH   7   8
ATOM      8  C   UNL     1       0.673  -0.181  23.342  0.00  0.00    +0.242 C 
ATOM      9  O   UNL     1       0.411   0.048  22.594  0.00  0.00    -0.273 OA
ATOM     10  N   UNL     1       1.481  -0.199  23.510  0.00  0.00    -0.204 NA
BRANCH  10  11
ATOM     11  C   UNL     1       2.027   0.012  22.928  0.00  0.00    +0.132 C 
BRANCH  11  12
ATOM     12  C   UNL     1       2.736  -0.404  22.858  0.00  0.00    +0.096 C 
BRANCH  12  13
ATOM     13  N   UNL     1       3.455  -0.002  22.901  0.00  0.00    -0.267 NA
ATOM     14  C   UNL     1       4.091  -0.338  23.307  0.00  0.00    +0.105 C 
ATOM     15  C   UNL     1       4.811   0.064  23.350  0.00  0.00    +0.159 C 
ATOM     16  O   UNL     1       4.895   0.800  22.988  0.00  0.00    -0.351 OA
ATOM     17  C   UNL     1       4.259   1.135  22.583  0.00  0.00    +0.159 C 
ATOM     18  C   UNL     1       3.539   0.734  22.539  0.00  0.00    +0.105 C 
ENDBRANCH  12  13
ENDBRANCH  11  12
ENDBRANCH  10  11
ENDBRANCH   7   8
ENDBRANCH   6   7
BRANCH  22  23
ATOM     23  C   UNL     1      -2.308   1.686  24.725  0.00  0.00    +0.120 C 
BRANCH  23  24
ATOM     24  N   UNL     1      -3.094   1.467  24.605  0.00  0.00    -0.077 NA
BRANCH  24  25
ATOM     25  S   UNL     1      -3.703   1.976  24.827  0.00  0.00    +0.077 S 
ATOM     26  O   UNL     1      -3.622   1.731  25.611  0.00  0.00    -0.152 OA
ATOM     27  O   UNL     1      -3.784   2.222  24.044  0.00  0.00    -0.152 OA
BRANCH  25  28
ATOM     28  C   UNL     1      -4.312   2.487  25.050  0.00  0.00    +0.124 A 
ATOM     29  C   UNL     1      -4.175   3.299  25.095  0.00  0.00    +0.022 A 
ATOM     30  C   UNL     1      -4.784   3.808  25.317  0.00  0.00    +0.031 A 
ATOM     31  C   UNL     1      -5.531   3.506  25.494  0.00  0.00    +0.140 A 
ATOM     32  F   UNL     1      -6.140   4.015  25.717  0.00  0.00    -0.204 F 
ATOM     33  C   UNL     1      -5.669   2.694  25.449  0.00  0.00    +0.031 A 
ATOM     34  C   UNL     1      -5.059   2.184  25.227  0.00  0.00    +0.022 A 
ENDBRANCH  25  28
ENDBRANCH  24  25
ENDBRANCH  23  24
ENDBRANCH  22  23
TORSDOF 10
ENDMDL
MODEL 3
REMARK VINA RESULT:      -8.9      2.440      5.714
REMARK  Name = 
REMARK  10 active torsions:
REMARK  status: ('A' for Active; 'I' for Inactive)
REMARK    1  A    between atoms: C_2  and  C_4
REMARK    2  A    between atoms: C_6  and  C_7
REMARK    3  A    between atoms: C_7  and  C_8
REMARK    4  A    between atoms: N_10  and  C_11
REMARK    5  A    between atoms: C_11  and  C_12
REMARK    6  A    between atoms: C_12  and  N_13
REMARK    7  A    between atoms: C_22  and  C_23
REMARK    8  A    between atoms: C_23  and  N_24
REMARK    9  A    between atoms: N_24  and  S_25
REMARK   10  A    between atoms: S_25  and  C_28
REMARK                            x       y       z     vdW  Elec       q    Type
REMARK                         _______ _______ _______ _____ _____    ______ ____
ROOT
ATOM      4  C   UNL     1      -3.359   1.212  23.736  0.00  0.00    +0.006 C 
ATOM      5  C   UNL     1      -3.751   0.485  23.758  0.00  0.00    +0.005 C 
ATOM      6  C   UNL     1      -4.313   0.337  24.345  0.00  0.00    +0.027 C 
ATOM     19  C   UNL     1      -4.482   0.915  24.908  0.00  0.00    -0.048 C 
ATOM     20  C   UNL     1      -5.044   0.767  25.494  0.00  0.00    +0.026 C 
ATOM     21  C   UNL     1      -4.090   1.641  24.885  0.00  0.00    -0.033 C 
ATOM     22  C   UNL     1      -3.529   1.790  24.299  0.00  0.00    +0.041 C 
ENDROOT
BRANCH   4   2
ATOM      1  C   UNL     1      -3.011   1.778  22.472  0.00  0.00    +0.000 C 
ATOM      2  C   UNL     1      -2.798   1.359  23.149  0.00  0.00    +0.000 C 
ATOM      3  C   UNL     1      -2.024   1.087  23.240  0.00  0.00    +0.000 C 
ENDBRANCH   4   2
BRANCH   6   7
ATOM      7  C   UNL     1      -4.704  -0.388  24.366  0.00  0.00    +0.091 C 
BRANCH   7   8
ATOM      8  C   UNL     1      -4.286  -1.085  24.222  0.00  0.00    +0.242 C 
ATOM      9  O   UNL     1      -4.354  -1.464  23.493  0.00  0.00    -0.273 OA
ATOM     10  N   UNL     1      -3.801  -1.403  24.810  0.00  0.00    -0.204 NA
BRANCH  10  11
ATOM     11  C   UNL     1      -3.383  -2.100  24.666  0.00  0.00    +0.132 C 
BRANCH  11  12
ATOM     12  C   UNL     1      -2.825  -2.367  25.213  0.00  0.00    +0.096 C 
BRANCH  12  13
ATOM     13  N   UNL     1      -2.023  -2.228  25.083  0.00  0.00    -0.267 NA
ATOM     14  C   UNL     1      -1.602  -1.732  25.592  0.00  0.00    +0.105 C 
ATOM     15  C   UNL     1      -0.800  -1.594  25.462  0.00  0.00    +0.159 C 
ATOM     16  O   UNL     1      -0.417  -1.950  24.824  0.00  0.00    -0.351 OA
ATOM     17  C   UNL     1      -0.837  -2.444  24.315  0.00  0.00    +0.159 C 
ATOM     18  C   UNL     1      -1.640  -2.584  24.444  0.00  0.00    +0.105 C 
ENDBRANCH  12  13
ENDBRANCH  11  12
ENDBRANCH  10  11
ENDBRANCH   7   8
ENDBRANCH   6   7
BRANCH  22  23
ATOM     23  C   UNL     1      -3.137   2.515  24.277  0.00  0.00    +0.120 C 
BRANCH  23  24
ATOM     24  N   UNL     1      -3.084   2.976  24.959  0.00  0.00    -0.077 NA
BRANCH  24  25
ATOM     25  S   UNL     1      -2.565   3.616  24.984  0.00  0.00    +0.077 S 
ATOM     26  O   UNL     1      -3.086   4.058  24.522  0.00  0.00    -0.152 OA
ATOM     27  O   UNL     1      -2.042   3.175  25.446  0.00  0.00    -0.152 OA
BRANCH  25  28
ATOM     28  C   UNL     1      -2.045   4.257  25.009  0.00  0.00    +0.124 A 
ATOM     29  C   UNL     1      -2.334   5.018  25.140  0.00  0.00    +0.022 A 
ATOM     30  C   UNL     1      -1.815   5.658  25.165  0.00  0.00    +0.031 A 
ATOM     31  C   UNL     1      -1.005   5.537  25.060  0.00  0.00    +0.140 A 
ATOM     32  F   UNL     1      -0.486   6.177  25.085  0.00  0.00    -0.204 F 
ATOM     33  C   UNL     1      -0.716   4.776  24.929  0.00  0.00    +0.031 A 
ATOM     34  C   UNL     1      -1.236   4.135  24.904  0.00  0.00    +0.022 A 
ENDBRANCH  25  28
ENDBRANCH  24  25
ENDBRANCH  23  24
ENDBRANCH  22  23
TORSDOF 10
ENDMDL
MODEL 4
REMARK VINA RESULT:      -8.6      3.651      5.459
REMARK  Name = 
REMARK  10 active torsions:
REMARK  status: ('A' for Active; 'I' for Inactive)
REMARK    1  A    between atoms: C_2  and  C_4
REMARK    2  A    between atoms: C_6  and  C_7
REMARK    3  A    between atoms: C_7  and  C_8
REMARK    4  A    between atoms: N_10  and  C_11
REMARK    5  A    between atoms: C_11  and  C_12
REMARK    6  A    between atoms: C_12  and  N_13
REMARK    7  A    between atoms: C_22  and  C_23
REMARK    8  A    between atoms: C_23  and  N_24
REMARK    9  A    between atoms: N_24  and  S_25
REMARK   10  A    between atoms: S_25  and  C_28
REMARK                            x       y       z     vdW  Elec       q    Type
REMARK                         _______ _______ _______ _____ _____    ______ ____
ROOT
ATOM      4  C   UNL     1      -1.123   0.269  24.468  0.00  0.00    +0.006 C 
ATOM      5  C   UNL     1      -1.848  -0.003  24.755  0.00  0.00    +0.005 C 
ATOM      6  C   UNL     1      -2.048  -0.800  24.682  0.00  0.00    +0.027 C 
ATOM     19  C   UNL     1      -1.523  -1.326  24.322  0.00  0.00    -0.048 C 
ATOM     20  C   UNL     1      -1.723  -2.122  24.249  0.00  0.00    +0.026 C 
ATOM     21  C   UNL     1      -0.799  -1.053  24.035  0.00  0.00    -0.033 C 
ATOM     22  C   UNL     1      -0.599  -0.256  24.108  0.00  0.00    +0.041 C 
ENDROOT
BRANCH   4   2
ATOM      1  C   UNL     1      -1.128   1.598  23.944  0.00  0.00    +0.000 C 
ATOM      2  C   UNL     1      -0.924   1.066  24.541  0.00  0.00    +0.000 C 
ATOM      3  C   UNL     1      -0.522   1.332  25.211  0.00  0.00    +0.000 C 
ENDBRANCH   4   2
BRANCH   6   7
ATOM      7  C   UNL     1      -2.772  -1.072  24.969  0.00  0.00    +0.091 C 
BRANCH   7   8
ATOM      8  C   UNL     1      -3.289  -0.548  25.341  0.00  0.00    +0.242 C 
ATOM      9  O   UNL     1      -3.222  -0.406  26.151  0.00  0.00    -0.273 OA
ATOM     10  N   UNL     1      -3.874  -0.165  24.901  0.00  0.00    -0.204 NA
BRANCH  10  11
ATOM     11  C   UNL     1      -4.392   0.359  25.273  0.00  0.00    +0.132 C 
BRANCH  11  12
ATOM     12  C   UNL     1      -4.921   0.805  24.823  0.00  0.00    +0.096 C 
BRANCH  12  13
ATOM     13  N   UNL     1      -5.143   1.558  25.075  0.00  0.00    -0.267 NA
ATOM     14  C   UNL     1      -4.757   2.224  24.774  0.00  0.00    +0.105 C 
ATOM     15  C   UNL     1      -4.978   2.977  25.026  0.00  0.00    +0.159 C 
ATOM     16  O   UNL     1      -5.585   3.066  25.577  0.00  0.00    -0.351 OA
ATOM     17  C   UNL     1      -5.970   2.402  25.878  0.00  0.00    +0.159 C 
ATOM     18  C   UNL     1      -5.749   1.648  25.626  0.00  0.00    +0.105 C 
ENDBRANCH  12  13
ENDBRANCH  11  12
ENDBRANCH  10  11
ENDBRANCH   7   8
ENDBRANCH   6   7
BRANCH  22  23
ATOM     23  C   UNL     1       0.125   0.016  23.821  0.00  0.00    +0.120 C 
BRANCH  23  24
ATOM     24  N   UNL     1       0.575  -0.461  23.321  0.00  0.00    -0.077 NA
BRANCH  24  25
ATOM     25  S   UNL     1       1.307  -0.196  23.048  0.00  0.00    +0.077 S 
ATOM     26  O   UNL     1       0.952   0.069  22.352  0.00  0.00    -0.152 OA
ATOM     27  O   UNL     1       1.663  -0.460  23.744  0.00  0.00    -0.152 OA
BRANCH  25  28
ATOM     28  C   UNL     1       2.040   0.069  22.775  0.00  0.00    +0.124 A 
ATOM     29  C   UNL     1       2.482   0.598  23.228  0.00  0.00    +0.022 A 
ATOM     30  C   UNL     1       3.213   0.863  22.955  0.00  0.00    +0.031 A 
ATOM     31  C   UNL     1       3.504   0.599  22.229  0.00  0.00    +0.140 A 
ATOM     32  F   UNL     1       4.235   0.863  21.956  0.00  0.00    -0.204 F 
ATOM     33  C   UNL     1       3.062   0.070  21.776  0.00  0.00    +0.031 A 
ATOM     34  C   UNL     1       2.329  -0.195  22.049  0.00  0.00    +0.022 A 
ENDBRANCH  25  28
ENDBRANCH  24  25
ENDBRANCH  23  24
ENDBRANCH  22  23
TORSDOF 10
ENDMDL
