MODEL 1
REMARK VINA RESULT:     -10.8      0.000      0.000
REMARK  Name = 
REMARK  3 active torsions:
REMARK  status: ('A' for Active; 'I' for Inactive)
REMARK    1  A    between atoms: C_2  and  C_3
REMARK    2  A    between atoms: N_12  and  C_13
REMARK    3  A    between atoms: C_13  and  C_14
REMARK                            x       y       z     vdW  Elec       q    Type
REMARK                         _______ _______ _______ _____ _____    ______ ____
ROOT
ATOM      1  O   UNL     1      -2.020  -1.128  24.522  0.00  0.00    -0.275 OA
ATOM      2  C   UNL     1      -2.838  -1.180  24.608  0.00  0.00    +0.225 C 
ATOM      6  N   UNL     1      -3.295  -0.492  24.632  0.00  0.00    -0.276 N 
ATOM      7  C   UNL     1      -4.114  -0.544  24.718  0.00  0.00    +0.115 C 
ATOM      8  C   UNL     1      -4.570   0.142  24.742  0.00  0.00    +0.116 C 
ATOM      9  N   UNL     1      -4.208   0.881  24.680  0.00  0.00    -0.261 N 
ATOM     10  C   UNL     1      -3.390   0.933  24.594  0.00  0.00    +0.116 C 
ATOM     11  C   UNL     1      -3.188   1.731  24.546  0.00  0.00    +0.117 C 
ATOM     12  N   UNL     1      -3.882   2.173  24.603  0.00  0.00    -0.258 N 
ATOM     20  C   UNL     1      -4.512   1.647  24.686  0.00  0.00    +0.308 C 
ATOM     21  O   UNL     1      -5.308   1.852  24.761  0.00  0.00    -0.252 OA
ATOM     22  C   UNL     1      -2.933   0.246  24.570  0.00  0.00    +0.115 C 
ENDROOT
BRANCH   2   3
ATOM      3  C   UNL     1      -3.201  -1.918  24.670  0.00  0.00    +0.077 C 
ATOM      4  C   UNL     1      -3.584  -2.558  24.317  0.00  0.00    +0.010 C 
ATOM      5  C   UNL     1      -3.448  -2.557  25.130  0.00  0.00    +0.010 C 
ENDBRANCH   2   3
BRANCH  12  13
ATOM     13  C   UNL     1      -3.936   2.996  24.581  0.00  0.00    +0.123 C 
BRANCH  13  14
ATOM     14  C   UNL     1      -3.375   3.457  24.972  0.00  0.00    +0.017 A 
ATOM     15  C   UNL     1      -3.491   3.669  25.760  0.00  0.00    +0.001 A 
ATOM     16  C   UNL     1      -2.928   4.131  26.150  0.00  0.00    +0.020 A 
ATOM     17  C   UNL     1      -2.251   4.381  25.751  0.00  0.00    +0.099 A 
ATOM     18  N   UNL     1      -2.136   4.169  24.962  0.00  0.00    -0.243 NA
ATOM     19  C   UNL     1      -2.697   3.707  24.572  0.00  0.00    +0.096 A 
ENDBRANCH  13  14
ENDBRANCH  12  13
TORSDOF 3
ENDMDL
MODEL 2
REMARK VINA RESULT:     -10.8      1.227      4.455
REMARK  Name = 
REMARK  3 active torsions:
REMARK  status: ('A' for Active; 'I' for Inactive)
REMARK    1  A    between atoms: C_2  and  C_3
REMARK    2  A    between atoms: N_12  and  C_13
REMARK    3  A    between atoms: C_13  and  C_14
REMARK                            x       y       z     vdW  Elec       q    Type
REMARK                         _______ _______ _______ _____ _____    ______ ____
ROOT
ATOM      1  O   UNL     1      -0.705   2.927  25.094  0.00  0.00    -0.275 OA
ATOM      2  C   UNL     1      -1.384   3.391  25.027  0.00  0.00    +0.225 C 
ATOM      6  N   UNL     1      -2.122   3.032  24.934  0.00  0.00    -0.276 N 
ATOM      7  C   UNL     1      -2.801   3.496  24.867  0.00  0.00    +0.115 C 
ATOM      8  C   UNL     1      -3.537   3.138  24.774  0.00  0.00    +0.116 C 
ATOM      9  N   UNL     1      -3.596   2.315  24.749  0.00  0.00    -0.261 N 
ATOM     10  C   UNL     1      -2.917   1.851  24.816  0.00  0.00    +0.116 C 
ATOM     11  C   UNL     1      -3.144   1.060  24.772  0.00  0.00    +0.117 C 
ATOM     12  N   UNL     1      -3.963   1.034  24.677  0.00  0.00    -0.258 N 
ATOM     20  C   UNL     1      -4.242   1.810  24.663  0.00  0.00    +0.308 C 
ATOM     21  O   UNL     1      -5.030   2.040  24.578  0.00  0.00    -0.252 OA
ATOM     22  C   UNL     1      -2.179   2.210  24.909  0.00  0.00    +0.115 C 
ENDROOT
BRANCH   2   3
ATOM      3  C   UNL     1      -1.326   4.214  25.052  0.00  0.00    +0.077 C 
ATOM      4  C   UNL     1      -0.977   4.913  24.790  0.00  0.00    +0.010 C 
ATOM      5  C   UNL     1      -1.575   4.939  25.357  0.00  0.00    +0.010 C 
ENDBRANCH   2   3
BRANCH  12  13
ATOM     13  C   UNL     1      -4.422   0.352  24.609  0.00  0.00    +0.123 C 
BRANCH  13  14
ATOM     14  C   UNL     1      -4.083  -0.389  24.740  0.00  0.00    +0.017 A 
ATOM     15  C   UNL     1      -3.908  -0.882  24.102  0.00  0.00    +0.001 A 
ATOM     16  C   UNL     1      -3.570  -1.623  24.235  0.00  0.00    +0.020 A 
ATOM     17  C   UNL     1      -3.406  -1.870  25.004  0.00  0.00    +0.099 A 
ATOM     18  N   UNL     1      -3.581  -1.377  25.642  0.00  0.00    -0.243 NA
ATOM     19  C   UNL     1      -3.920  -0.637  25.511  0.00  0.00    +0.096 A 
ENDBRANCH  13  14
ENDBRANCH  12  13
TORSDOF 3
ENDMDL
MODEL 3
REMARK VINA RESULT:     -10.2      2.040      2.690
REMARK  Name = 
REMARK  3 active torsions:
REMARK  status: ('A' for Active; 'I' for Inactive)
REMARK    1  A    between atoms: C_2  and  C_3
REMARK    2  A    between atoms: N_12  and  C_13
REMARK    3  A    between atoms: C_13  and  C_14
REMARK                            x       y       z     vdW  Elec       q    Type
REMARK                         _______ _______ _______ _____ _____    ______ ____
ROOT
ATOM      1  O   UNL     1      -3.877  -0.885  25.631  0.00  0.00    -0.275 OA
ATOM      2  C   UNL     1      -3.326  -1.268  25.151  0.00  0.00    +0.225 C 
ATOM      6  N   UNL     1      -2.601  -0.909  24.987  0.00  0.00    -0.276 N 
ATOM      7  C   UNL     1      -2.050  -1.293  24.506  0.00  0.00    +0.115 C 
ATOM      8  C   UNL     1      -1.326  -0.934  24.343  0.00  0.00    +0.116 C 
ATOM      9  N   UNL     1      -1.151  -0.193  24.660  0.00  0.00    -0.261 N 
ATOM     10  C   UNL     1      -1.701   0.190  25.141  0.00  0.00    +0.116 C 
ATOM     11  C   UNL     1      -1.378   0.912  25.374  0.00  0.00    +0.117 C 
ATOM     12  N   UNL     1      -0.628   0.975  25.037  0.00  0.00    -0.258 N 
ATOM     20  C   UNL     1      -0.488   0.293  24.597  0.00  0.00    +0.308 C 
ATOM     21  O   UNL     1       0.196   0.124  24.167  0.00  0.00    -0.252 OA
ATOM     22  C   UNL     1      -2.427  -0.168  25.304  0.00  0.00    +0.115 C 
ENDROOT
BRANCH   2   3
ATOM      3  C   UNL     1      -3.500  -2.009  24.833  0.00  0.00    +0.077 C 
ATOM      4  C   UNL     1      -3.848  -2.470  24.244  0.00  0.00    +0.010 C 
ATOM      5  C   UNL     1      -3.455  -2.832  24.871  0.00  0.00    +0.010 C 
ENDBRANCH   2   3
BRANCH  12  13
ATOM     13  C   UNL     1      -0.108   1.610  25.126  0.00  0.00    +0.123 C 
BRANCH  13  14
ATOM     14  C   UNL     1      -0.387   2.384  25.059  0.00  0.00    +0.017 A 
ATOM     15  C   UNL     1      -0.604   2.804  25.735  0.00  0.00    +0.001 A 
ATOM     16  C   UNL     1      -0.882   3.578  25.667  0.00  0.00    +0.020 A 
ATOM     17  C   UNL     1      -0.943   3.931  24.924  0.00  0.00    +0.099 A 
ATOM     18  N   UNL     1      -0.726   3.511  24.248  0.00  0.00    -0.243 NA
ATOM     19  C   UNL     1      -0.447   2.737  24.315  0.00  0.00    +0.096 A 
ENDBRANCH  13  14
ENDBRANCH  12  13
TORSDOF 3
ENDMDL
MODEL 4
REMARK VINA RESULT:     -10.1      1.336      1.954
REMARK  Name = 
REMARK  3 active torsions:
REMARK  status: ('A' for Active; 'I' for Inactive)
REMARK    1  A    between atoms: C_2  and  C_3
REMARK    2  A    between atoms: N_12  and  C_13
REMARK    3  A    between atoms: C_13  and  C_14
REMARK                            x       y       z     vdW  Elec       q    Type
REMARK                         _______ _______ _______ _____ _____    ______ ____
ROOT
ATOM      1  O   UNL     1      -4.471  -0.916  24.278  0.00  0.00    -0.275 OA
ATOM      2  C   UNL     1      -3.723  -1.219  24.448  0.00  0.00    +0.225 C 
ATOM      6  N   UNL     1      -3.076  -0.710  24.511  0.00  0.00    -0.276 N 
ATOM      7  C   UNL     1      -2.327  -1.013  24.681  0.00  0.00    +0.115 C 
ATOM      8  C   UNL     1      -1.682  -0.505  24.744  0.00  0.00    +0.116 C 
ATOM      9  N   UNL     1      -1.783   0.307  24.638  0.00  0.00    -0.261 N 
ATOM     10  C   UNL     1      -2.531   0.610  24.468  0.00  0.00    +0.116 C 
ATOM     11  C   UNL     1      -2.463   1.428  24.392  0.00  0.00    +0.117 C 
ATOM     12  N   UNL     1      -1.673   1.631  24.514  0.00  0.00    -0.258 N 
ATOM     20  C   UNL     1      -1.253   0.938  24.666  0.00  0.00    +0.308 C 
ATOM     21  O   UNL     1      -0.444   0.885  24.820  0.00  0.00    -0.252 OA
ATOM     22  C   UNL     1      -3.178   0.102  24.405  0.00  0.00    +0.115 C 
ENDROOT
BRANCH   2   3
ATOM      3  C   UNL     1      -3.621  -2.030  24.555  0.00  0.00    +0.077 C 
ATOM      4  C   UNL     1      -3.559  -2.790  24.239  0.00  0.00    +0.010 C 
ATOM      5  C   UNL     1      -3.505  -2.677  25.054  0.00  0.00    +0.010 C 
ENDBRANCH   2   3
BRANCH  12  13
ATOM     13  C   UNL     1      -1.359   2.394  24.489  0.00  0.00    +0.123 C 
BRANCH  13  14
ATOM     14  C   UNL     1      -1.740   3.011  24.882  0.00  0.00    +0.017 A 
ATOM     15  C   UNL     1      -1.530   3.198  25.658  0.00  0.00    +0.001 A 
ATOM     16  C   UNL     1      -1.912   3.816  26.050  0.00  0.00    +0.020 A 
ATOM     17  C   UNL     1      -2.502   4.246  25.667  0.00  0.00    +0.099 A 
ATOM     18  N   UNL     1      -2.712   4.058  24.891  0.00  0.00    -0.243 NA
ATOM     19  C   UNL     1      -2.331   3.441  24.498  0.00  0.00    +0.096 A 
ENDBRANCH  13  14
ENDBRANCH  12  13
TORSDOF 3
ENDMDL
MODEL 5
REMARK VINA RESULT:      -9.8      1.430      4.878
REMARK  Name = 
REMARK  3 active torsions:
REMARK  status: ('A' for Active; 'I' for Inactive)
REMARK    1  A    between atoms: C_2  and  C_3
REMARK    2  A    between atoms: N_12  and  C_13
REMARK    3  A    between atoms: C_13  and  C_14
REMARK                            x       y       z     vdW  Elec       q    Type
REMARK                         _______ _______ _______ _____ _____    ______ ____
ROOT
ATOM      1  O   UNL     1      -3.287   3.474  24.461  0.00  0.00    -0.275 OA
ATOM      2  C   UNL     1      -2.570   3.403  24.863  0.00  0.00    +0.225 C 
ATOM      6  N   UNL     1      -2.218   2.662  24.952  0.00  0.00    -0.276 N 
ATOM      7  C   UNL     1      -1.501   2.591  25.353  0.00  0.00    +0.115 C 
ATOM      8  C   UNL     1      -1.149   1.850  25.441  0.00  0.00    +0.116 C 
ATOM      9  N   UNL     1      -1.514   1.180  25.128  0.00  0.00    -0.261 N 
ATOM     10  C   UNL     1      -2.231   1.251  24.726  0.00  0.00    +0.116 C 
ATOM     11  C   UNL     1      -2.460   0.498  24.478  0.00  0.00    +0.117 C 
ATOM     12  N   UNL     1      -1.885  -0.038  24.727  0.00  0.00    -0.258 N 
ATOM     20  C   UNL     1      -1.301   0.384  25.128  0.00  0.00    +0.308 C 
ATOM     21  O   UNL     1      -0.621   0.064  25.470  0.00  0.00    -0.252 OA
ATOM     22  C   UNL     1      -2.584   1.992  24.638  0.00  0.00    +0.115 C 
ENDROOT
BRANCH   2   3
ATOM      3  C   UNL     1      -2.204   4.073  25.177  0.00  0.00    +0.077 C 
ATOM      4  C   UNL     1      -2.129   4.627  25.783  0.00  0.00    +0.010 C 
ATOM      5  C   UNL     1      -1.647   4.678  25.116  0.00  0.00    +0.010 C 
ENDBRANCH   2   3
BRANCH  12  13
ATOM     13  C   UNL     1      -1.893  -0.853  24.597  0.00  0.00    +0.123 C 
BRANCH  13  14
ATOM     14  C   UNL     1      -2.593  -1.279  24.692  0.00  0.00    +0.017 A 
ATOM     15  C   UNL     1      -3.061  -1.455  24.036  0.00  0.00    +0.001 A 
ATOM     16  C   UNL     1      -3.761  -1.882  24.132  0.00  0.00    +0.020 A 
ATOM     17  C   UNL     1      -3.992  -2.133  24.882  0.00  0.00    +0.099 A 
ATOM     18  N   UNL     1      -3.523  -1.957  25.538  0.00  0.00    -0.243 NA
ATOM     19  C   UNL     1      -2.823  -1.530  25.443  0.00  0.00    +0.096 A 
ENDBRANCH  13  14
ENDBRANCH  12  13
TORSDOF 3
ENDMDL
