MODEL 1
REMARK VINA RESULT:      -9.3      0.000      0.000
REMARK  Name = 
REMARK  7 active torsions:
REMARK  status: ('A' for Active; 'I' for Inactive)
REMARK    1  A    between atoms: C_4  and  C_29
REMARK    2  A    between atoms: C_6  and  C_7
REMARK    3  A    between atoms: C_14  and  C_15
REMARK    4  A    between atoms: C_15  and  O_16
REMARK    5  A    between atoms: O_16  and  C_17
REMARK    6  A    between atoms: N_19  and  C_20
REMARK    7  A    between atoms: C_23  and  C_26
REMARK                            x       y       z     vdW  Elec       q    Type
REMARK                         _______ _______ _______ _____ _____    ______ ____
ROOT
ATOM      7  C   UNL     1      -2.265   0.811  24.352  0.00  0.00    +0.056 C 
ATOM      8  C   UNL     1      -1.811   0.394  24.827  0.00  0.00    +0.078 C 
ATOM      9  N   UNL     1      -1.567   0.801  24.151  0.00  0.00    -0.270 NA
ATOM     10  C   UNL     1      -2.416   1.258  23.740  0.00  0.00    +0.072 C 
ATOM     11  C   UNL     1      -2.695   1.628  23.281  0.00  0.00    +0.018 C 
ATOM     12  C   UNL     1      -2.018   1.208  23.691  0.00  0.00    +0.010 C 
ATOM     13  C   UNL     1      -1.228   1.294  23.318  0.00  0.00    +0.020 C 
ATOM     14  C   UNL     1      -0.749   0.895  23.758  0.00  0.00    +0.102 C 
ENDROOT
BRANCH   7   6
ATOM      1  C   UNL     1      -3.430  -0.555  24.326  0.00  0.00    +0.153 C 
ATOM      2  N   UNL     1      -3.603   0.226  24.526  0.00  0.00    -0.253 N 
ATOM      3  N   UNL     1      -4.342   0.517  24.750  0.00  0.00    -0.166 NA
ATOM      4  C   UNL     1      -4.265   1.324  24.900  0.00  0.00    +0.136 A 
ATOM      5  C   UNL     1      -3.477   1.532  24.769  0.00  0.00    +0.038 A 
ATOM      6  C   UNL     1      -3.069   0.854  24.538  0.00  0.00    +0.058 A 
BRANCH   4  29
ATOM     29  C   UNL     1      -4.868   1.833  25.139  0.00  0.00    +0.165 A 
ATOM     30  C   UNL     1      -5.667   1.764  24.944  0.00  0.00    +0.042 A 
ATOM     31  C   UNL     1      -6.071   2.389  25.300  0.00  0.00    +0.044 A 
ATOM     32  C   UNL     1      -5.522   2.844  25.715  0.00  0.00    +0.180 A 
ATOM     33  O   UNL     1      -4.779   2.501  25.616  0.00  0.00    -0.449 OA
ENDBRANCH   4  29
ENDBRANCH   7   6
BRANCH  14  15
ATOM     15  C   UNL     1       0.043   0.678  23.833  0.00  0.00    +0.226 C 
BRANCH  15  16
ATOM     16  O   UNL     1       0.544   0.709  23.179  0.00  0.00    -0.432 OA
BRANCH  16  17
ATOM     17  C   UNL     1       1.362   0.695  23.285  0.00  0.00    +0.425 C 
ATOM     18  O   UNL     1       1.707   1.135  23.892  0.00  0.00    -0.224 OA
ATOM     19  N   UNL     1       1.835   0.242  22.784  0.00  0.00    -0.142 NA
BRANCH  19  20
ATOM     20  C   UNL     1       2.653   0.228  22.890  0.00  0.00    +0.077 A 
ATOM     21  C   UNL     1       3.014  -0.433  23.228  0.00  0.00    +0.017 A 
ATOM     22  C   UNL     1       3.832  -0.447  23.334  0.00  0.00    +0.004 A 
ATOM     23  C   UNL     1       4.289   0.200  23.101  0.00  0.00    +0.035 A 
ATOM     24  C   UNL     1       3.928   0.860  22.763  0.00  0.00    +0.004 A 
ATOM     25  C   UNL     1       3.111   0.874  22.657  0.00  0.00    +0.017 A 
BRANCH  23  26
ATOM     26  C   UNL     1       5.107   0.186  23.207  0.00  0.00    +0.173 C 
ATOM     27  C   UNL     1       5.430   0.327  23.953  0.00  0.00    +0.077 C 
ATOM     28  O   UNL     1       5.603   0.030  22.565  0.00  0.00    -0.291 OA
ENDBRANCH  23  26
ENDBRANCH  19  20
ENDBRANCH  16  17
ENDBRANCH  15  16
ENDBRANCH  14  15
TORSDOF 7
ENDMDL
MODEL 2
REMARK VINA RESULT:      -7.7      1.138      7.328
REMARK  Name = 
REMARK  7 active torsions:
REMARK  status: ('A' for Active; 'I' for Inactive)
REMARK    1  A    between atoms: C_4  and  C_29
REMARK    2  A    between atoms: C_6  and  C_7
REMARK    3  A    between atoms: C_14  and  C_15
REMARK    4  A    between atoms: C_15  and  O_16
REMARK    5  A    between atoms: O_16  and  C_17
REMARK    6  A    between atoms: N_19  and  C_20
REMARK    7  A    between atoms: C_23  and  C_26
REMARK                            x       y       z     vdW  Elec       q    Type
REMARK                         _______ _______ _______ _____ _____    ______ ____
ROOT
ATOM      7  C   UNL     1       0.926   0.191  23.348  0.00  0.00    +0.056 C 
ATOM      8  C   UNL     1       0.477  -0.444  23.337  0.00  0.00    +0.078 C 
ATOM      9  N   UNL     1       0.274   0.291  23.653  0.00  0.00    -0.270 NA
ATOM     10  C   UNL     1       1.095   0.928  23.507  0.00  0.00    +0.072 C 
ATOM     11  C   UNL     1       1.378   1.513  23.572  0.00  0.00    +0.018 C 
ATOM     12  C   UNL     1       0.720   0.910  23.659  0.00  0.00    +0.010 C 
ATOM     13  C   UNL     1      -0.011   1.191  24.055  0.00  0.00    +0.020 C 
ATOM     14  C   UNL     1      -0.483   0.591  24.066  0.00  0.00    +0.102 C 
ENDROOT
BRANCH   7   6
ATOM      1  C   UNL     1       1.290  -0.297  21.658  0.00  0.00    +0.153 C 
ATOM      2  N   UNL     1       1.844  -0.097  22.235  0.00  0.00    -0.253 N 
ATOM      3  N   UNL     1       2.664  -0.085  22.137  0.00  0.00    -0.166 NA
ATOM      4  C   UNL     1       3.003   0.146  22.853  0.00  0.00    +0.136 A 
ATOM      5  C   UNL     1       2.394   0.278  23.393  0.00  0.00    +0.038 A 
ATOM      6  C   UNL     1       1.678   0.128  23.011  0.00  0.00    +0.058 A 
BRANCH   4  29
ATOM     29  C   UNL     1       3.810   0.231  23.001  0.00  0.00    +0.165 A 
ATOM     30  C   UNL     1       4.301  -0.333  23.349  0.00  0.00    +0.042 A 
ATOM     31  C   UNL     1       5.062  -0.018  23.391  0.00  0.00    +0.044 A 
ATOM     32  C   UNL     1       5.041   0.741  23.068  0.00  0.00    +0.180 A 
ATOM     33  O   UNL     1       4.268   0.895  22.827  0.00  0.00    -0.449 OA
ENDBRANCH   4  29
ENDBRANCH   7   6
BRANCH  14  15
ATOM     15  C   UNL     1      -1.234   0.354  24.308  0.00  0.00    +0.226 C 
BRANCH  15  16
ATOM     16  O   UNL     1      -1.897   0.568  23.866  0.00  0.00    -0.432 OA
BRANCH  16  17
ATOM     17  C   UNL     1      -2.595   0.784  24.248  0.00  0.00    +0.425 C 
ATOM     18  O   UNL     1      -2.680   0.654  25.058  0.00  0.00    -0.224 OA
ATOM     19  N   UNL     1      -3.209   1.131  23.820  0.00  0.00    -0.142 NA
BRANCH  19  20
ATOM     20  C   UNL     1      -3.908   1.347  24.202  0.00  0.00    +0.077 A 
ATOM     21  C   UNL     1      -4.433   0.767  24.462  0.00  0.00    +0.017 A 
ATOM     22  C   UNL     1      -5.131   0.983  24.844  0.00  0.00    +0.004 A 
ATOM     23  C   UNL     1      -5.304   1.781  24.966  0.00  0.00    +0.035 A 
ATOM     24  C   UNL     1      -4.779   2.362  24.706  0.00  0.00    +0.004 A 
ATOM     25  C   UNL     1      -4.081   2.145  24.324  0.00  0.00    +0.017 A 
BRANCH  23  26
ATOM     26  C   UNL     1      -6.003   1.998  25.348  0.00  0.00    +0.173 C 
ATOM     27  C   UNL     1      -5.973   2.354  26.091  0.00  0.00    +0.077 C 
ATOM     28  O   UNL     1      -6.731   1.857  24.986  0.00  0.00    -0.291 OA
ENDBRANCH  23  26
ENDBRANCH  19  20
ENDBRANCH  16  17
ENDBRANCH  15  16
ENDBRANCH  14  15
TORSDOF 7
ENDMDL
MODEL 3
REMARK VINA RESULT:      -7.3      1.795      2.359
REMARK  Name = 
REMARK  7 active torsions:
REMARK  status: ('A' for Active; 'I' for Inactive)
REMARK    1  A    between atoms: C_4  and  C_29
REMARK    2  A    between atoms: C_6  and  C_7
REMARK    3  A    between atoms: C_14  and  C_15
REMARK    4  A    between atoms: C_15  and  O_16
REMARK    5  A    between atoms: O_16  and  C_17
REMARK    6  A    between atoms: N_19  and  C_20
REMARK    7  A    between atoms: C_23  and  C_26
REMARK                            x       y       z     vdW  Elec       q    Type
REMARK                         _______ _______ _______ _____ _____    ______ ____
ROOT
ATOM      7  C   UNL     1      -1.279  -0.107  24.498  0.00  0.00    +0.056 C 
ATOM      8  C   UNL     1      -0.569  -0.344  24.710  0.00  0.00    +0.078 C 
ATOM      9  N   UNL     1      -0.747   0.342  24.287  0.00  0.00    -0.270 NA
ATOM     10  C   UNL     1      -1.788   0.368  24.166  0.00  0.00    +0.072 C 
ATOM     11  C   UNL     1      -2.326   0.661  23.938  0.00  0.00    +0.018 C 
ATOM     12  C   UNL     1      -1.446   0.568  24.083  0.00  0.00    +0.010 C 
ATOM     13  C   UNL     1      -0.933   1.202  23.760  0.00  0.00    +0.020 C 
ATOM     14  C   UNL     1      -0.220   1.005  23.949  0.00  0.00    +0.102 C 
ENDROOT
BRANCH   7   6
ATOM      1  C   UNL     1      -1.865  -0.392  26.171  0.00  0.00    +0.153 C 
ATOM      2  N   UNL     1      -2.186  -0.715  25.484  0.00  0.00    -0.253 N 
ATOM      3  N   UNL     1      -2.833  -1.225  25.444  0.00  0.00    -0.166 NA
ATOM      4  C   UNL     1      -2.964  -1.410  24.651  0.00  0.00    +0.136 A 
ATOM      5  C   UNL     1      -2.398  -1.014  24.200  0.00  0.00    +0.038 A 
ATOM      6  C   UNL     1      -1.918  -0.584  24.715  0.00  0.00    +0.058 A 
BRANCH   4  29
ATOM     29  C   UNL     1      -3.557  -1.904  24.360  0.00  0.00    +0.165 A 
ATOM     30  C   UNL     1      -3.530  -2.728  24.328  0.00  0.00    +0.042 A 
ATOM     31  C   UNL     1      -4.238  -2.994  23.998  0.00  0.00    +0.044 A 
ATOM     32  C   UNL     1      -4.702  -2.334  23.826  0.00  0.00    +0.180 A 
ATOM     33  O   UNL     1      -4.282  -1.660  24.049  0.00  0.00    -0.449 OA
ENDBRANCH   4  29
ENDBRANCH   7   6
BRANCH  14  15
ATOM     15  C   UNL     1       0.565   1.249  23.885  0.00  0.00    +0.226 C 
BRANCH  15  16
ATOM     16  O   UNL     1       1.030   0.984  23.256  0.00  0.00    -0.432 OA
BRANCH  16  17
ATOM     17  C   UNL     1       1.847   0.920  23.347  0.00  0.00    +0.425 C 
ATOM     18  O   UNL     1       2.241   1.395  23.894  0.00  0.00    -0.224 OA
ATOM     19  N   UNL     1       2.271   0.379  22.890  0.00  0.00    -0.142 NA
BRANCH  19  20
ATOM     20  C   UNL     1       3.089   0.314  22.980  0.00  0.00    +0.077 A 
ATOM     21  C   UNL     1       3.582   0.924  22.725  0.00  0.00    +0.017 A 
ATOM     22  C   UNL     1       4.399   0.859  22.815  0.00  0.00    +0.004 A 
ATOM     23  C   UNL     1       4.723   0.183  23.160  0.00  0.00    +0.035 A 
ATOM     24  C   UNL     1       4.230  -0.427  23.415  0.00  0.00    +0.004 A 
ATOM     25  C   UNL     1       3.413  -0.361  23.325  0.00  0.00    +0.017 A 
BRANCH  23  26
ATOM     26  C   UNL     1       5.541   0.118  23.250  0.00  0.00    +0.173 C 
ATOM     27  C   UNL     1       5.900   0.370  23.949  0.00  0.00    +0.077 C 
ATOM     28  O   UNL     1       5.998  -0.199  22.641  0.00  0.00    -0.291 OA
ENDBRANCH  23  26
ENDBRANCH  19  20
ENDBRANCH  16  17
ENDBRANCH  15  16
ENDBRANCH  14  15
TORSDOF 7
ENDMDL
MODEL 4
REMARK VINA RESULT:      -7.1      4.413      5.878
REMARK  Name = 
REMARK  7 active torsions:
REMARK  status: ('A' for Active; 'I' for Inactive)
REMARK    1  A    between atoms: C_4  and  C_29
REMARK    2  A    between atoms: C_6  and  C_7
REMARK    3  A    between atoms: C_14  and  C_15
REMARK    4  A    between atoms: C_15  and  O_16
REMARK    5  A    between atoms: O_16  and  C_17
REMARK    6  A    between atoms: N_19  and  C_20
REMARK    7  A    between atoms: C_23  and  C_26
REMARK                            x       y       z     vdW  Elec       q    Type
REMARK                         _______ _______ _______ _____ _____    ______ ____
ROOT
ATOM      7  C   UNL     1      -3.658   3.166  25.402  0.00  0.00    +0.056 C 
ATOM      8  C   UNL     1      -3.629   2.533  25.854  0.00  0.00    +0.078 C 
ATOM      9  N   UNL     1      -4.172   2.676  25.249  0.00  0.00    -0.270 NA
ATOM     10  C   UNL     1      -3.939   3.612  24.839  0.00  0.00    +0.072 C 
ATOM     11  C   UNL     1      -4.058   4.089  24.408  0.00  0.00    +0.018 C 
ATOM     12  C   UNL     1      -4.194   3.299  24.810  0.00  0.00    +0.010 C 
ATOM     13  C   UNL     1      -4.863   2.820  24.504  0.00  0.00    +0.020 C 
ATOM     14  C   UNL     1      -4.870   2.184  24.926  0.00  0.00    +0.102 C 
ENDROOT
BRANCH   7   6
ATOM      1  C   UNL     1      -3.572   4.237  26.841  0.00  0.00    +0.153 C 
ATOM      2  N   UNL     1      -3.054   4.245  26.199  0.00  0.00    -0.253 N 
ATOM      3  N   UNL     1      -2.405   4.746  26.105  0.00  0.00    -0.166 NA
ATOM      4  C   UNL     1      -2.043   4.563  25.387  0.00  0.00    +0.136 A 
ATOM      5  C   UNL     1      -2.468   3.950  25.036  0.00  0.00    +0.038 A 
ATOM      6  C   UNL     1      -3.093   3.753  25.538  0.00  0.00    +0.058 A 
BRANCH   4  29
ATOM     29  C   UNL     1      -1.374   4.930  25.074  0.00  0.00    +0.165 A 
ATOM     30  C   UNL     1      -0.679   4.554  24.839  0.00  0.00    +0.042 A 
ATOM     31  C   UNL     1      -0.157   5.130  24.562  0.00  0.00    +0.044 A 
ATOM     32  C   UNL     1      -0.531   5.862  24.625  0.00  0.00    +0.180 A 
ATOM     33  O   UNL     1      -1.282   5.740  24.942  0.00  0.00    -0.449 OA
ENDBRANCH   4  29
ENDBRANCH   7   6
BRANCH  14  15
ATOM     15  C   UNL     1      -5.271   1.471  25.028  0.00  0.00    +0.226 C 
BRANCH  15  16
ATOM     16  O   UNL     1      -5.242   0.892  24.440  0.00  0.00    -0.432 OA
BRANCH  16  17
ATOM     17  C   UNL     1      -4.881   0.167  24.594  0.00  0.00    +0.425 C 
ATOM     18  O   UNL     1      -5.014  -0.217  25.312  0.00  0.00    -0.224 OA
ATOM     19  N   UNL     1      -4.386  -0.175  24.030  0.00  0.00    -0.142 NA
BRANCH  19  20
ATOM     20  C   UNL     1      -4.025  -0.901  24.183  0.00  0.00    +0.077 A 
ATOM     21  C   UNL     1      -4.335  -1.593  23.858  0.00  0.00    +0.017 A 
ATOM     22  C   UNL     1      -3.974  -2.319  24.011  0.00  0.00    +0.004 A 
ATOM     23  C   UNL     1      -3.303  -2.352  24.490  0.00  0.00    +0.035 A 
ATOM     24  C   UNL     1      -2.992  -1.660  24.815  0.00  0.00    +0.004 A 
ATOM     25  C   UNL     1      -3.354  -0.935  24.661  0.00  0.00    +0.017 A 
BRANCH  23  26
ATOM     26  C   UNL     1      -2.941  -3.078  24.643  0.00  0.00    +0.173 C 
ATOM     27  C   UNL     1      -2.175  -3.223  24.373  0.00  0.00    +0.077 C 
ATOM     28  O   UNL     1      -3.347  -3.659  25.067  0.00  0.00    -0.291 OA
ENDBRANCH  23  26
ENDBRANCH  19  20
ENDBRANCH  16  17
ENDBRANCH  15  16
ENDBRANCH  14  15
TORSDOF 7
ENDMDL
MODEL 5
REMARK VINA RESULT:      -6.5     14.607     15.902
REMARK  Name = 
REMARK  7 active torsions:
REMARK  status: ('A' for Active; 'I' for Inactive)
REMARK    1  A    between atoms: C_4  and  C_29
REMARK    2  A    between atoms: C_6  and  C_7
REMARK    3  A    between atoms: C_14  and  C_15
REMARK    4  A    between atoms: C_15  and  O_16
REMARK    5  A    between atoms: O_16  and  C_17
REMARK    6  A    between atoms: N_19  and  C_20
REMARK    7  A    between atoms: C_23  and  C_26
REMARK                            x       y       z     vdW  Elec       q    Type
REMARK                         _______ _______ _______ _____ _____    ______ ____
ROOT
ATOM      7  C   UNL     1      -6.366 -10.219  15.961  0.00  0.00    +0.056 C 
ATOM      8  C   UNL     1      -6.880 -10.532  15.468  0.00  0.00    +0.078 C 
ATOM      9  N   UNL     1      -6.119 -10.272  15.280  0.00  0.00    -0.270 NA
ATOM     10  C   UNL     1      -5.690  -9.905  16.163  0.00  0.00    +0.072 C 
ATOM     11  C   UNL     1      -5.188  -9.635  16.481  0.00  0.00    +0.018 C 
ATOM     12  C   UNL     1      -5.622  -9.966  15.769  0.00  0.00    +0.010 C 
ATOM     13  C   UNL     1      -5.180  -9.959  15.011  0.00  0.00    +0.020 C 
ATOM     14  C   UNL     1      -5.654 -10.262  14.495  0.00  0.00    +0.102 C 
ENDROOT
BRANCH   7   6
ATOM      1  C   UNL     1      -7.786  -9.290  16.550  0.00  0.00    +0.153 C 
ATOM      2  N   UNL     1      -7.253  -9.710  17.019  0.00  0.00    -0.253 N 
ATOM      3  N   UNL     1      -7.279  -9.777  17.841  0.00  0.00    -0.166 NA
ATOM      4  C   UNL     1      -6.643 -10.245  18.079  0.00  0.00    +0.136 A 
ATOM      5  C   UNL     1      -6.224 -10.467  17.404  0.00  0.00    +0.038 A 
ATOM      6  C   UNL     1      -6.601 -10.137  16.749  0.00  0.00    +0.058 A 
BRANCH   4  29
ATOM     29  C   UNL     1      -6.458 -10.454  18.855  0.00  0.00    +0.165 A 
ATOM     30  C   UNL     1      -6.998 -10.568  19.468  0.00  0.00    +0.042 A 
ATOM     31  C   UNL     1      -6.575 -10.769  20.147  0.00  0.00    +0.044 A 
ATOM     32  C   UNL     1      -5.773 -10.780  19.953  0.00  0.00    +0.180 A 
ATOM     33  O   UNL     1      -5.700 -10.586  19.155  0.00  0.00    -0.449 OA
ENDBRANCH   4  29
ENDBRANCH   7   6
BRANCH  14  15
ATOM     15  C   UNL     1      -5.712 -10.462  13.697  0.00  0.00    +0.226 C 
BRANCH  15  16
ATOM     16  O   UNL     1      -5.031 -10.509  13.233  0.00  0.00    -0.432 OA
BRANCH  16  17
ATOM     17  C   UNL     1      -5.076 -10.369  12.421  0.00  0.00    +0.425 C 
ATOM     18  O   UNL     1      -5.797 -10.442  12.028  0.00  0.00    -0.224 OA
ATOM     19  N   UNL     1      -4.398 -10.155  12.002  0.00  0.00    -0.142 NA
BRANCH  19  20
ATOM     20  C   UNL     1      -4.442 -10.015  11.190  0.00  0.00    +0.077 A 
ATOM     21  C   UNL     1      -4.455 -10.648  10.662  0.00  0.00    +0.017 A 
ATOM     22  C   UNL     1      -4.499 -10.508   9.850  0.00  0.00    +0.004 A 
ATOM     23  C   UNL     1      -4.529  -9.733   9.567  0.00  0.00    +0.035 A 
ATOM     24  C   UNL     1      -4.516  -9.100  10.095  0.00  0.00    +0.004 A 
ATOM     25  C   UNL     1      -4.472  -9.241  10.906  0.00  0.00    +0.017 A 
BRANCH  23  26
ATOM     26  C   UNL     1      -4.573  -9.593   8.755  0.00  0.00    +0.173 C 
ATOM     27  C   UNL     1      -4.938 -10.143   8.260  0.00  0.00    +0.077 C 
ATOM     28  O   UNL     1      -4.251  -8.902   8.439  0.00  0.00    -0.291 OA
ENDBRANCH  23  26
ENDBRANCH  19  20
ENDBRANCH  16  17
ENDBRANCH  15  16
ENDBRANCH  14  15
TORSDOF 7
ENDMDL
MODEL 6
REMARK VINA RESULT:      -5.9     14.671     15.971
REMARK  Name = 
REMARK  7 active torsions:
REMARK  status: ('A' for Active; 'I' for Inactive)
REMARK    1  A    between atoms: C_4  and  C_29
REMARK    2  A    between atoms: C_6  and  C_7
REMARK    3  A    between atoms: C_14  and  C_15
REMARK    4  A    between atoms: C_15  and  O_16
REMARK    5  A    between atoms: O_16  and  C_17
REMARK    6  A    between atoms: N_19  and  C_20
REMARK    7  A    between atoms: C_23  and  C_26
REMARK                            x       y       z     vdW  Elec       q    Type
REMARK                         _______ _______ _______ _____ _____    ______ ____
ROOT
ATOM      7  C   UNL     1      -8.078  -9.890  15.727  0.00  0.00    +0.056 C 
ATOM      8  C   UNL     1      -7.384 -10.181  15.528  0.00  0.00    +0.078 C 
ATOM      9  N   UNL     1      -7.964  -9.905  15.009  0.00  0.00    -0.270 NA
ATOM     10  C   UNL     1      -8.773  -9.583  15.593  0.00  0.00    +0.072 C 
ATOM     11  C   UNL     1      -9.372  -9.326  15.641  0.00  0.00    +0.018 C 
ATOM     12  C   UNL     1      -8.642  -9.621  15.212  0.00  0.00    +0.010 C 
ATOM     13  C   UNL     1      -8.662  -9.571  14.336  0.00  0.00    +0.020 C 
ATOM     14  C   UNL     1      -7.992  -9.850  14.099  0.00  0.00    +0.102 C 
ENDROOT
BRANCH   7   6
ATOM      1  C   UNL     1      -6.991  -9.278  17.018  0.00  0.00    +0.153 C 
ATOM      2  N   UNL     1      -7.755  -9.571  17.126  0.00  0.00    -0.253 N 
ATOM      3  N   UNL     1      -8.154  -9.634  17.845  0.00  0.00    -0.166 NA
ATOM      4  C   UNL     1      -8.899  -9.954  17.697  0.00  0.00    +0.136 A 
ATOM      5  C   UNL     1      -8.961 -10.089  16.886  0.00  0.00    +0.038 A 
ATOM      6  C   UNL     1      -8.254  -9.852  16.533  0.00  0.00    +0.058 A 
BRANCH   4  29
ATOM     29  C   UNL     1      -9.480 -10.111  18.261  0.00  0.00    +0.165 A 
ATOM     30  C   UNL     1      -9.523 -10.781  18.740  0.00  0.00    +0.042 A 
ATOM     31  C   UNL     1     -10.189 -10.709  19.221  0.00  0.00    +0.044 A 
ATOM     32  C   UNL     1     -10.559  -9.995  19.038  0.00  0.00    +0.180 A 
ATOM     33  O   UNL     1     -10.121  -9.624  18.446  0.00  0.00    -0.449 OA
ENDBRANCH   4  29
ENDBRANCH   7   6
BRANCH  14  15
ATOM     15  C   UNL     1      -7.553 -10.008  13.419  0.00  0.00    +0.226 C 
BRANCH  15  16
ATOM     16  O   UNL     1      -7.400  -9.405  12.877  0.00  0.00    -0.432 OA
BRANCH  16  17
ATOM     17  C   UNL     1      -6.799  -9.496  12.319  0.00  0.00    +0.425 C 
ATOM     18  O   UNL     1      -6.767 -10.176  11.853  0.00  0.00    -0.224 OA
ATOM     19  N   UNL     1      -6.229  -8.906  12.228  0.00  0.00    -0.142 NA
BRANCH  19  20
ATOM     20  C   UNL     1      -5.628  -8.996  11.670  0.00  0.00    +0.077 A 
ATOM     21  C   UNL     1      -5.642  -8.556  10.973  0.00  0.00    +0.017 A 
ATOM     22  C   UNL     1      -5.041  -8.646  10.415  0.00  0.00    +0.004 A 
ATOM     23  C   UNL     1      -4.425  -9.177  10.556  0.00  0.00    +0.035 A 
ATOM     24  C   UNL     1      -4.411  -9.617  11.253  0.00  0.00    +0.004 A 
ATOM     25  C   UNL     1      -5.012  -9.527  11.810  0.00  0.00    +0.017 A 
BRANCH  23  26
ATOM     26  C   UNL     1      -3.823  -9.267   9.998  0.00  0.00    +0.173 C 
ATOM     27  C   UNL     1      -3.999  -9.232   9.193  0.00  0.00    +0.077 C 
ATOM     28  O   UNL     1      -3.046  -9.392  10.247  0.00  0.00    -0.291 OA
ENDBRANCH  23  26
ENDBRANCH  19  20
ENDBRANCH  16  17
ENDBRANCH  15  16
ENDBRANCH  14  15
TORSDOF 7
ENDMDL
