MODEL 1
REMARK VINA RESULT:     -11.9      0.000      0.000
REMARK  Name = 
REMARK  5 active torsions:
REMARK  status: ('A' for Active; 'I' for Inactive)
REMARK    1  A    between atoms: N_2  and  C_4
REMARK    2  A    between atoms: C_7  and  C_10
REMARK    3  A    between atoms: C_13  and  C_15
REMARK    4  A    between atoms: N_19  and  C_20
REMARK    5  A    between atoms: C_20  and  C_21
REMARK                            x       y       z     vdW  Elec       q    Type
REMARK                         _______ _______ _______ _____ _____    ______ ____
ROOT
ATOM     15  C   UNL     1      -4.918   2.421  25.367  0.00  0.00    +0.138 C 
ATOM     16  C   UNL     1      -5.431   2.705  25.948  0.00  0.00    +0.027 C 
ATOM     17  C   UNL     1      -5.229   3.490  26.105  0.00  0.00    +0.019 C 
ATOM     18  C   UNL     1      -4.591   3.690  25.621  0.00  0.00    +0.073 C 
ATOM     19  N   UNL     1      -4.399   3.030  25.165  0.00  0.00    -0.260 NA
ENDROOT
BRANCH  15  13
ATOM     10  C   UNL     1      -4.593   0.400  24.761  0.00  0.00    +0.205 A 
ATOM     11  N   UNL     1      -5.277   0.585  24.339  0.00  0.00    -0.056 NA
ATOM     12  O   UNL     1      -5.482   1.364  24.515  0.00  0.00    -0.336 OA
ATOM     13  C   UNL     1      -4.925   1.661  25.046  0.00  0.00    +0.251 A 
ATOM     14  N   UNL     1      -4.375   1.066  25.198  0.00  0.00    -0.190 NA
BRANCH  10   7
ATOM      4  C   UNL     1      -3.402  -1.769  24.724  0.00  0.00    +0.132 A 
ATOM      5  C   UNL     1      -3.738  -1.472  24.032  0.00  0.00    +0.034 A 
ATOM      6  C   UNL     1      -4.135  -0.749  24.044  0.00  0.00    +0.008 A 
ATOM      7  C   UNL     1      -4.196  -0.323  24.749  0.00  0.00    +0.058 A 
ATOM      8  C   UNL     1      -3.859  -0.621  25.440  0.00  0.00    +0.103 A 
ATOM      9  N   UNL     1      -3.462  -1.344  25.427  0.00  0.00    -0.229 NA
BRANCH   4   2
ATOM      1  C   UNL     1      -3.432  -3.198  24.716  0.00  0.00    +0.114 C 
ATOM      2  N   UNL     1      -3.005  -2.492  24.711  0.00  0.00    -0.290 N 
ATOM      3  C   UNL     1      -2.180  -2.509  24.694  0.00  0.00    +0.114 C 
ENDBRANCH   4   2
ENDBRANCH  10   7
ENDBRANCH  15  13
BRANCH  19  20
ATOM     20  C   UNL     1      -3.795   2.985  24.606  0.00  0.00    +0.138 C 
BRANCH  20  21
ATOM     21  C   UNL     1      -3.091   3.399  24.724  0.00  0.00    +0.139 A 
ATOM     22  C   UNL     1      -2.349   3.067  24.863  0.00  0.00    +0.037 A 
ATOM     23  C   UNL     1      -1.806   3.681  24.948  0.00  0.00    +0.037 A 
ATOM     24  C   UNL     1      -2.212   4.394  24.861  0.00  0.00    +0.145 A 
ATOM     25  O   UNL     1      -3.006   4.221  24.723  0.00  0.00    -0.456 OA
ATOM     26  C   UNL     1      -1.805   5.110  24.920  0.00  0.00    +0.037 A 
ATOM     27  C   UNL     1      -0.994   5.112  25.065  0.00  0.00    +0.003 A 
ATOM     28  C   UNL     1      -0.588   4.399  25.152  0.00  0.00    +0.000 A 
ATOM     29  C   UNL     1      -0.994   3.683  25.094  0.00  0.00    +0.003 A 
ENDBRANCH  20  21
ENDBRANCH  19  20
TORSDOF 5
ENDMDL
MODEL 2
REMARK VINA RESULT:     -11.5      1.309      5.165
REMARK  Name = 
REMARK  5 active torsions:
REMARK  status: ('A' for Active; 'I' for Inactive)
REMARK    1  A    between atoms: N_2  and  C_4
REMARK    2  A    between atoms: C_7  and  C_10
REMARK    3  A    between atoms: C_13  and  C_15
REMARK    4  A    between atoms: N_19  and  C_20
REMARK    5  A    between atoms: C_20  and  C_21
REMARK                            x       y       z     vdW  Elec       q    Type
REMARK                         _______ _______ _______ _____ _____    ______ ____
ROOT
ATOM     15  C   UNL     1      -5.040   1.782  25.083  0.00  0.00    +0.138 C 
ATOM     16  C   UNL     1      -5.678   1.880  25.596  0.00  0.00    +0.027 C 
ATOM     17  C   UNL     1      -6.005   1.136  25.741  0.00  0.00    +0.019 C 
ATOM     18  C   UNL     1      -5.569   0.579  25.317  0.00  0.00    +0.073 C 
ATOM     19  N   UNL     1      -4.972   0.978  24.910  0.00  0.00    -0.260 NA
ENDROOT
BRANCH  15  13
ATOM     10  C   UNL     1      -3.521   3.210  24.623  0.00  0.00    +0.205 A 
ATOM     11  N   UNL     1      -4.099   3.408  24.069  0.00  0.00    -0.056 NA
ATOM     12  O   UNL     1      -4.738   2.898  24.174  0.00  0.00    -0.336 OA
ATOM     13  C   UNL     1      -4.555   2.384  24.793  0.00  0.00    +0.251 A 
ATOM     14  N   UNL     1      -3.804   2.576  25.070  0.00  0.00    -0.190 NA
BRANCH  10   7
ATOM      4  C   UNL     1      -1.326   4.320  24.896  0.00  0.00    +0.132 A 
ATOM      5  C   UNL     1      -1.988   4.612  25.293  0.00  0.00    +0.034 A 
ATOM      6  C   UNL     1      -2.719   4.242  25.203  0.00  0.00    +0.008 A 
ATOM      7  C   UNL     1      -2.789   3.580  24.714  0.00  0.00    +0.058 A 
ATOM      8  C   UNL     1      -2.127   3.289  24.317  0.00  0.00    +0.103 A 
ATOM      9  N   UNL     1      -1.396   3.659  24.408  0.00  0.00    -0.229 NA
BRANCH   4   2
ATOM      1  C   UNL     1      -0.522   5.500  24.852  0.00  0.00    +0.114 C 
ATOM      2  N   UNL     1      -0.594   4.690  24.987  0.00  0.00    -0.290 N 
ATOM      3  C   UNL     1       0.066   4.249  25.213  0.00  0.00    +0.114 C 
ENDBRANCH   4   2
ENDBRANCH  10   7
ENDBRANCH  15  13
BRANCH  19  20
ATOM     20  C   UNL     1      -4.407   0.635  24.417  0.00  0.00    +0.138 C 
BRANCH  20  21
ATOM     21  C   UNL     1      -4.201  -0.158  24.514  0.00  0.00    +0.139 A 
ATOM     22  C   UNL     1      -4.348  -0.767  23.977  0.00  0.00    +0.037 A 
ATOM     23  C   UNL     1      -4.050  -1.466  24.297  0.00  0.00    +0.037 A 
ATOM     24  C   UNL     1      -3.718  -1.290  25.032  0.00  0.00    +0.145 A 
ATOM     25  O   UNL     1      -3.812  -0.482  25.166  0.00  0.00    -0.456 OA
ATOM     26  C   UNL     1      -3.375  -1.889  25.483  0.00  0.00    +0.037 A 
ATOM     27  C   UNL     1      -3.362  -2.663  25.200  0.00  0.00    +0.003 A 
ATOM     28  C   UNL     1      -3.693  -2.839  24.465  0.00  0.00    +0.000 A 
ATOM     29  C   UNL     1      -4.037  -2.241  24.013  0.00  0.00    +0.003 A 
ENDBRANCH  20  21
ENDBRANCH  19  20
TORSDOF 5
ENDMDL
MODEL 3
REMARK VINA RESULT:     -11.4      2.387      6.105
REMARK  Name = 
REMARK  5 active torsions:
REMARK  status: ('A' for Active; 'I' for Inactive)
REMARK    1  A    between atoms: N_2  and  C_4
REMARK    2  A    between atoms: C_7  and  C_10
REMARK    3  A    between atoms: C_13  and  C_15
REMARK    4  A    between atoms: N_19  and  C_20
REMARK    5  A    between atoms: C_20  and  C_21
REMARK                            x       y       z     vdW  Elec       q    Type
REMARK                         _______ _______ _______ _____ _____    ______ ____
ROOT
ATOM     15  C   UNL     1      -0.427   0.133  24.589  0.00  0.00    +0.138 C 
ATOM     16  C   UNL     1       0.164  -0.001  24.029  0.00  0.00    +0.027 C 
ATOM     17  C   UNL     1       0.063  -0.762  23.728  0.00  0.00    +0.019 C 
ATOM     18  C   UNL     1      -0.590  -1.099  24.102  0.00  0.00    +0.073 C 
ATOM     19  N   UNL     1      -0.894  -0.546  24.634  0.00  0.00    -0.260 NA
ENDROOT
BRANCH  15  13
ATOM     10  C   UNL     1      -0.807   2.088  25.359  0.00  0.00    +0.205 A 
ATOM     11  N   UNL     1      -0.582   1.687  26.044  0.00  0.00    -0.056 NA
ATOM     12  O   UNL     1      -0.413   0.907  25.839  0.00  0.00    -0.336 OA
ATOM     13  C   UNL     1      -0.533   0.824  25.027  0.00  0.00    +0.251 A 
ATOM     14  N   UNL     1      -0.776   1.553  24.730  0.00  0.00    -0.190 NA
BRANCH  10   7
ATOM      4  C   UNL     1      -1.460   4.470  25.213  0.00  0.00    +0.132 A 
ATOM      5  C   UNL     1      -0.712   4.231  24.959  0.00  0.00    +0.034 A 
ATOM      6  C   UNL     1      -0.495   3.437  25.007  0.00  0.00    +0.008 A 
ATOM      7  C   UNL     1      -1.025   2.882  25.310  0.00  0.00    +0.058 A 
ATOM      8  C   UNL     1      -1.772   3.121  25.564  0.00  0.00    +0.103 A 
ATOM      9  N   UNL     1      -1.990   3.916  25.516  0.00  0.00    -0.229 NA
BRANCH   4   2
ATOM      1  C   UNL     1      -1.152   5.818  24.853  0.00  0.00    +0.114 C 
ATOM      2  N   UNL     1      -1.678   5.264  25.165  0.00  0.00    -0.290 N 
ATOM      3  C   UNL     1      -2.422   5.505  25.429  0.00  0.00    +0.114 C 
ENDBRANCH   4   2
ENDBRANCH  10   7
ENDBRANCH  15  13
BRANCH  19  20
ATOM     20  C   UNL     1      -1.548  -0.653  25.125  0.00  0.00    +0.138 C 
BRANCH  20  21
ATOM     21  C   UNL     1      -2.198  -1.086  24.859  0.00  0.00    +0.139 A 
ATOM     22  C   UNL     1      -2.325  -1.892  24.977  0.00  0.00    +0.037 A 
ATOM     23  C   UNL     1      -3.040  -2.092  24.619  0.00  0.00    +0.037 A 
ATOM     24  C   UNL     1      -3.356  -1.410  24.279  0.00  0.00    +0.145 A 
ATOM     25  O   UNL     1      -2.836  -0.787  24.427  0.00  0.00    -0.456 OA
ATOM     26  C   UNL     1      -4.077  -1.444  23.879  0.00  0.00    +0.037 A 
ATOM     27  C   UNL     1      -4.482  -2.159  23.819  0.00  0.00    +0.003 A 
ATOM     28  C   UNL     1      -4.166  -2.842  24.158  0.00  0.00    +0.000 A 
ATOM     29  C   UNL     1      -3.446  -2.809  24.558  0.00  0.00    +0.003 A 
ENDBRANCH  20  21
ENDBRANCH  19  20
TORSDOF 5
ENDMDL
MODEL 4
REMARK VINA RESULT:     -10.7      2.292      3.280
REMARK  Name = 
REMARK  5 active torsions:
REMARK  status: ('A' for Active; 'I' for Inactive)
REMARK    1  A    between atoms: N_2  and  C_4
REMARK    2  A    between atoms: C_7  and  C_10
REMARK    3  A    between atoms: C_13  and  C_15
REMARK    4  A    between atoms: N_19  and  C_20
REMARK    5  A    between atoms: C_20  and  C_21
REMARK                            x       y       z     vdW  Elec       q    Type
REMARK                         _______ _______ _______ _____ _____    ______ ____
ROOT
ATOM     15  C   UNL     1      -0.103   1.006  24.607  0.00  0.00    +0.138 C 
ATOM     16  C   UNL     1       0.456   0.940  24.004  0.00  0.00    +0.027 C 
ATOM     17  C   UNL     1       0.796   1.683  23.887  0.00  0.00    +0.019 C 
ATOM     18  C   UNL     1       0.446   2.208  24.419  0.00  0.00    +0.073 C 
ATOM     19  N   UNL     1      -0.109   1.791  24.863  0.00  0.00    -0.260 NA
ENDROOT
BRANCH  15  13
ATOM     10  C   UNL     1      -1.483  -0.576  24.991  0.00  0.00    +0.205 A 
ATOM     11  N   UNL     1      -1.107  -0.512  25.722  0.00  0.00    -0.056 NA
ATOM     12  O   UNL     1      -0.544   0.088  25.667  0.00  0.00    -0.336 OA
ATOM     13  C   UNL     1      -0.573   0.395  24.902  0.00  0.00    +0.251 A 
ATOM     14  N   UNL     1      -1.152  -0.015  24.484  0.00  0.00    -0.190 NA
BRANCH  10   7
ATOM      4  C   UNL     1      -3.286  -2.172  24.417  0.00  0.00    +0.132 A 
ATOM      5  C   UNL     1      -3.475  -1.413  24.679  0.00  0.00    +0.034 A 
ATOM      6  C   UNL     1      -2.874  -0.881  24.870  0.00  0.00    +0.008 A 
ATOM      7  C   UNL     1      -2.084  -1.108  24.800  0.00  0.00    +0.058 A 
ATOM      8  C   UNL     1      -1.896  -1.868  24.538  0.00  0.00    +0.103 A 
ATOM      9  N   UNL     1      -2.497  -2.399  24.347  0.00  0.00    -0.229 NA
BRANCH   4   2
ATOM      1  C   UNL     1      -3.884  -3.463  24.548  0.00  0.00    +0.114 C 
ATOM      2  N   UNL     1      -3.887  -2.704  24.226  0.00  0.00    -0.290 N 
ATOM      3  C   UNL     1      -4.491  -2.476  23.712  0.00  0.00    +0.114 C 
ENDBRANCH   4   2
ENDBRANCH  10   7
ENDBRANCH  15  13
BRANCH  19  20
ATOM     20  C   UNL     1      -0.587   2.102  25.459  0.00  0.00    +0.138 C 
BRANCH  20  21
ATOM     21  C   UNL     1      -0.884   2.869  25.393  0.00  0.00    +0.139 A 
ATOM     22  C   UNL     1      -1.662   3.102  25.534  0.00  0.00    +0.037 A 
ATOM     23  C   UNL     1      -1.713   3.914  25.403  0.00  0.00    +0.037 A 
ATOM     24  C   UNL     1      -0.965   4.184  25.181  0.00  0.00    +0.145 A 
ATOM     25  O   UNL     1      -0.453   3.538  25.175  0.00  0.00    -0.456 OA
ATOM     26  C   UNL     1      -0.849   4.983  25.013  0.00  0.00    +0.037 A 
ATOM     27  C   UNL     1      -1.479   5.513  25.067  0.00  0.00    +0.003 A 
ATOM     28  C   UNL     1      -2.226   5.243  25.288  0.00  0.00    +0.000 A 
ATOM     29  C   UNL     1      -2.344   4.444  25.456  0.00  0.00    +0.003 A 
ENDBRANCH  20  21
ENDBRANCH  19  20
TORSDOF 5
ENDMDL
MODEL 5
REMARK VINA RESULT:     -10.6      2.908      4.465
REMARK  Name = 
REMARK  5 active torsions:
REMARK  status: ('A' for Active; 'I' for Inactive)
REMARK    1  A    between atoms: N_2  and  C_4
REMARK    2  A    between atoms: C_7  and  C_10
REMARK    3  A    between atoms: C_13  and  C_15
REMARK    4  A    between atoms: N_19  and  C_20
REMARK    5  A    between atoms: C_20  and  C_21
REMARK                            x       y       z     vdW  Elec       q    Type
REMARK                         _______ _______ _______ _____ _____    ______ ____
ROOT
ATOM     15  C   UNL     1      -2.626  -0.471  25.343  0.00  0.00    +0.138 C 
ATOM     16  C   UNL     1      -2.808  -1.153  25.771  0.00  0.00    +0.027 C 
ATOM     17  C   UNL     1      -3.629  -1.232  25.788  0.00  0.00    +0.019 C 
ATOM     18  C   UNL     1      -3.954  -0.598  25.370  0.00  0.00    +0.073 C 
ATOM     19  N   UNL     1      -3.335  -0.128  25.096  0.00  0.00    -0.260 NA
ENDROOT
BRANCH  15  13
ATOM     10  C   UNL     1      -0.693   0.051  24.601  0.00  0.00    +0.205 A 
ATOM     11  N   UNL     1      -0.710   0.470  25.312  0.00  0.00    -0.056 NA
ATOM     12  O   UNL     1      -1.436   0.325  25.676  0.00  0.00    -0.336 OA
ATOM     13  C   UNL     1      -1.868  -0.183  25.191  0.00  0.00    +0.251 A 
ATOM     14  N   UNL     1      -1.409  -0.353  24.527  0.00  0.00    -0.190 NA
BRANCH  10   7
ATOM      4  C   UNL     1       1.175   0.011  22.979  0.00  0.00    +0.132 A 
ATOM      5  C   UNL     1       0.906   0.730  23.280  0.00  0.00    +0.034 A 
ATOM      6  C   UNL     1       0.283   0.744  23.821  0.00  0.00    +0.008 A 
ATOM      7  C   UNL     1      -0.070   0.037  24.061  0.00  0.00    +0.058 A 
ATOM      8  C   UNL     1       0.200  -0.682  23.760  0.00  0.00    +0.103 A 
ATOM      9  N   UNL     1       0.823  -0.695  23.219  0.00  0.00    -0.229 NA
BRANCH   4   2
ATOM      1  C   UNL     1       2.538   0.292  22.654  0.00  0.00    +0.114 C 
ATOM      2  N   UNL     1       1.798  -0.002  22.439  0.00  0.00    -0.290 N 
ATOM      3  C   UNL     1       1.681  -0.311  21.682  0.00  0.00    +0.114 C 
ENDBRANCH   4   2
ENDBRANCH  10   7
ENDBRANCH  15  13
BRANCH  19  20
ATOM     20  C   UNL     1      -3.409   0.563  24.652  0.00  0.00    +0.138 C 
BRANCH  20  21
ATOM     21  C   UNL     1      -3.990   1.117  24.844  0.00  0.00    +0.139 A 
ATOM     22  C   UNL     1      -4.799   1.039  24.705  0.00  0.00    +0.037 A 
ATOM     23  C   UNL     1      -5.172   1.719  24.984  0.00  0.00    +0.037 A 
ATOM     24  C   UNL     1      -4.593   2.218  25.294  0.00  0.00    +0.145 A 
ATOM     25  O   UNL     1      -3.862   1.847  25.208  0.00  0.00    -0.456 OA
ATOM     26  C   UNL     1      -4.807   2.948  25.616  0.00  0.00    +0.037 A 
ATOM     27  C   UNL     1      -5.599   3.178  25.627  0.00  0.00    +0.003 A 
ATOM     28  C   UNL     1      -6.177   2.678  25.316  0.00  0.00    +0.000 A 
ATOM     29  C   UNL     1      -5.965   1.949  24.994  0.00  0.00    +0.003 A 
ENDBRANCH  20  21
ENDBRANCH  19  20
TORSDOF 5
ENDMDL
MODEL 6
REMARK VINA RESULT:     -10.4      1.971      3.537
REMARK  Name = 
REMARK  5 active torsions:
REMARK  status: ('A' for Active; 'I' for Inactive)
REMARK    1  A    between atoms: N_2  and  C_4
REMARK    2  A    between atoms: C_7  and  C_10
REMARK    3  A    between atoms: C_13  and  C_15
REMARK    4  A    between atoms: N_19  and  C_20
REMARK    5  A    between atoms: C_20  and  C_21
REMARK                            x       y       z     vdW  Elec       q    Type
REMARK                         _______ _______ _______ _____ _____    ______ ____
ROOT
ATOM     15  C   UNL     1      -1.539   3.333  24.920  0.00  0.00    +0.138 C 
ATOM     16  C   UNL     1      -1.190   3.900  25.406  0.00  0.00    +0.027 C 
ATOM     17  C   UNL     1      -1.737   4.506  25.525  0.00  0.00    +0.019 C 
ATOM     18  C   UNL     1      -2.424   4.313  25.112  0.00  0.00    +0.073 C 
ATOM     19  N   UNL     1      -2.303   3.588  24.738  0.00  0.00    -0.260 NA
ENDROOT
BRANCH  15  13
ATOM     10  C   UNL     1      -0.854   1.345  24.548  0.00  0.00    +0.205 A 
ATOM     11  N   UNL     1      -0.434   1.769  23.978  0.00  0.00    -0.056 NA
ATOM     12  O   UNL     1      -0.640   2.564  24.048  0.00  0.00    -0.336 OA
ATOM     13  C   UNL     1      -1.187   2.633  24.661  0.00  0.00    +0.251 A 
ATOM     14  N   UNL     1      -1.319   1.880  24.970  0.00  0.00    -0.190 NA
BRANCH  10   7
ATOM      4  C   UNL     1      -0.739  -1.098  24.925  0.00  0.00    +0.132 A 
ATOM      5  C   UNL     1      -1.162  -0.619  25.448  0.00  0.00    +0.034 A 
ATOM      6  C   UNL     1      -1.200   0.195  25.322  0.00  0.00    +0.008 A 
ATOM      7  C   UNL     1      -0.816   0.531  24.673  0.00  0.00    +0.058 A 
ATOM      8  C   UNL     1      -0.394   0.052  24.151  0.00  0.00    +0.103 A 
ATOM      9  N   UNL     1      -0.356  -0.763  24.277  0.00  0.00    -0.229 NA
BRANCH   4   2
ATOM      1  C   UNL     1      -0.036  -2.244  25.408  0.00  0.00    +0.114 C 
ATOM      2  N   UNL     1      -0.701  -1.912  25.050  0.00  0.00    -0.290 N 
ATOM      3  C   UNL     1      -1.329  -2.396  24.818  0.00  0.00    +0.114 C 
ENDBRANCH   4   2
ENDBRANCH  10   7
ENDBRANCH  15  13
BRANCH  19  20
ATOM     20  C   UNL     1      -2.847   3.188  24.265  0.00  0.00    +0.138 C 
BRANCH  20  21
ATOM     21  C   UNL     1      -3.604   3.028  24.551  0.00  0.00    +0.139 A 
ATOM     22  C   UNL     1      -4.063   2.368  24.367  0.00  0.00    +0.037 A 
ATOM     23  C   UNL     1      -4.777   2.433  24.774  0.00  0.00    +0.037 A 
ATOM     24  C   UNL     1      -4.760   3.132  25.211  0.00  0.00    +0.145 A 
ATOM     25  O   UNL     1      -4.035   3.501  25.073  0.00  0.00    -0.456 OA
ATOM     26  C   UNL     1      -5.407   3.343  25.677  0.00  0.00    +0.037 A 
ATOM     27  C   UNL     1      -6.071   2.855  25.707  0.00  0.00    +0.003 A 
ATOM     28  C   UNL     1      -6.088   2.155  25.270  0.00  0.00    +0.000 A 
ATOM     29  C   UNL     1      -5.442   1.944  24.804  0.00  0.00    +0.003 A 
ENDBRANCH  20  21
ENDBRANCH  19  20
TORSDOF 5
ENDMDL
MODEL 7
REMARK VINA RESULT:     -10.0      1.631      2.997
REMARK  Name = 
REMARK  5 active torsions:
REMARK  status: ('A' for Active; 'I' for Inactive)
REMARK    1  A    between atoms: N_2  and  C_4
REMARK    2  A    between atoms: C_7  and  C_10
REMARK    3  A    between atoms: C_13  and  C_15
REMARK    4  A    between atoms: N_19  and  C_20
REMARK    5  A    between atoms: C_20  and  C_21
REMARK                            x       y       z     vdW  Elec       q    Type
REMARK                         _______ _______ _______ _____ _____    ______ ____
ROOT
ATOM     15  C   UNL     1      -1.147   1.898  25.343  0.00  0.00    +0.138 C 
ATOM     16  C   UNL     1      -0.616   2.082  25.947  0.00  0.00    +0.027 C 
ATOM     17  C   UNL     1      -0.737   2.870  26.162  0.00  0.00    +0.019 C 
ATOM     18  C   UNL     1      -1.343   3.172  25.691  0.00  0.00    +0.073 C 
ATOM     19  N   UNL     1      -1.596   2.572  25.185  0.00  0.00    -0.260 NA
ENDROOT
BRANCH  15  13
ATOM     10  C   UNL     1      -1.651  -0.043  24.612  0.00  0.00    +0.205 A 
ATOM     11  N   UNL     1      -0.990   0.134  24.152  0.00  0.00    -0.056 NA
ATOM     12  O   UNL     1      -0.720   0.882  24.370  0.00  0.00    -0.336 OA
ATOM     13  C   UNL     1      -1.215   1.168  24.965  0.00  0.00    +0.251 A 
ATOM     14  N   UNL     1      -1.790   0.597  25.115  0.00  0.00    -0.190 NA
BRANCH  10   7
ATOM      4  C   UNL     1      -2.984  -2.125  24.504  0.00  0.00    +0.132 A 
ATOM      5  C   UNL     1      -3.361  -1.392  24.469  0.00  0.00    +0.034 A 
ATOM      6  C   UNL     1      -2.917  -0.698  24.505  0.00  0.00    +0.008 A 
ATOM      7  C   UNL     1      -2.095  -0.737  24.576  0.00  0.00    +0.058 A 
ATOM      8  C   UNL     1      -1.719  -1.471  24.611  0.00  0.00    +0.103 A 
ATOM      9  N   UNL     1      -2.164  -2.165  24.575  0.00  0.00    -0.229 NA
BRANCH   4   2
ATOM      1  C   UNL     1      -4.004  -2.912  23.884  0.00  0.00    +0.114 C 
ATOM      2  N   UNL     1      -3.428  -2.820  24.468  0.00  0.00    -0.290 N 
ATOM      3  C   UNL     1      -3.297  -3.423  25.016  0.00  0.00    +0.114 C 
ENDBRANCH   4   2
ENDBRANCH  10   7
ENDBRANCH  15  13
BRANCH  19  20
ATOM     20  C   UNL     1      -2.194   2.633  24.619  0.00  0.00    +0.138 C 
BRANCH  20  21
ATOM     21  C   UNL     1      -2.938   2.916  24.834  0.00  0.00    +0.139 A 
ATOM     22  C   UNL     1      -3.215   3.685  24.722  0.00  0.00    +0.037 A 
ATOM     23  C   UNL     1      -3.984   3.724  25.017  0.00  0.00    +0.037 A 
ATOM     24  C   UNL     1      -4.183   2.980  25.312  0.00  0.00    +0.145 A 
ATOM     25  O   UNL     1      -3.536   2.480  25.199  0.00  0.00    -0.456 OA
ATOM     26  C   UNL     1      -4.927   2.854  25.645  0.00  0.00    +0.037 A 
ATOM     27  C   UNL     1      -5.472   3.471  25.684  0.00  0.00    +0.003 A 
ATOM     28  C   UNL     1      -5.274   4.215  25.389  0.00  0.00    +0.000 A 
ATOM     29  C   UNL     1      -4.530   4.343  25.055  0.00  0.00    +0.003 A 
ENDBRANCH  20  21
ENDBRANCH  19  20
TORSDOF 5
ENDMDL
