MODEL 1
REMARK VINA RESULT:     -10.3      0.000      0.000
REMARK  Name = 
REMARK  8 active torsions:
REMARK  status: ('A' for Active; 'I' for Inactive)
REMARK    1  A    between atoms: O_2  and  C_3
REMARK    2  A    between atoms: C_3  and  C_5
REMARK    3  A    between atoms: C_10  and  C_11
REMARK    4  A    between atoms: C_11  and  C_12
REMARK    5  A    between atoms: C_14  and  C_15
REMARK    6  A    between atoms: C_18  and  C_19
REMARK    7  A    between atoms: C_19  and  N_20
REMARK    8  A    between atoms: N_20  and  C_21
REMARK                            x       y       z     vdW  Elec       q    Type
REMARK                         _______ _______ _______ _____ _____    ______ ____
ROOT
ATOM     12  C   UNL     1      -4.479   1.775  24.620  0.00  0.00    +0.026 C 
ATOM     13  C   UNL     1      -3.808   1.598  24.173  0.00  0.00    +0.005 C 
ATOM     14  C   UNL     1      -3.615   0.812  24.013  0.00  0.00    +0.006 C 
ATOM     18  C   UNL     1      -4.091   0.203  24.301  0.00  0.00    +0.039 C 
ATOM     27  C   UNL     1      -4.762   0.380  24.748  0.00  0.00    -0.033 C 
ATOM     28  C   UNL     1      -4.956   1.166  24.908  0.00  0.00    -0.048 C 
ATOM     29  C   UNL     1      -5.626   1.343  25.355  0.00  0.00    +0.026 C 
ENDROOT
BRANCH  14  15
ATOM     15  C   UNL     1      -2.945   0.635  23.566  0.00  0.00    +0.000 C 
ATOM     16  C   UNL     1      -2.998   0.586  22.745  0.00  0.00    +0.000 C 
ATOM     17  C   UNL     1      -2.220   0.507  23.941  0.00  0.00    +0.000 C 
ENDBRANCH  14  15
BRANCH  12  11
ATOM     11  C   UNL     1      -4.673   2.561  24.780  0.00  0.00    +0.070 C 
BRANCH  11  10
ATOM      5  C   UNL     1      -2.047   4.886  25.308  0.00  0.00    +0.077 A 
ATOM      6  C   UNL     1      -2.447   4.462  24.726  0.00  0.00    +0.027 A 
ATOM      7  C   UNL     1      -3.067   3.959  24.933  0.00  0.00    +0.100 A 
ATOM      8  C   UNL     1      -3.287   3.881  25.724  0.00  0.00    +0.100 A 
ATOM      9  N   UNL     1      -3.915   3.348  25.763  0.00  0.00    -0.229 NA
ATOM     10  C   UNL     1      -4.084   3.096  24.996  0.00  0.00    +0.139 A 
ATOM     30  N   UNL     1      -3.560   3.474  24.484  0.00  0.00    -0.229 NA
ATOM     31  C   UNL     1      -2.887   4.306  26.308  0.00  0.00    +0.021 A 
ATOM     32  C   UNL     1      -2.267   4.808  26.100  0.00  0.00    +0.008 A 
BRANCH   5   3
ATOM      3  C   UNL     1      -1.427   5.388  25.100  0.00  0.00    +0.341 C 
ATOM      4  O   UNL     1      -1.561   6.198  25.023  0.00  0.00    -0.245 OA
BRANCH   3   2
ATOM      1  C   UNL     1      -0.161   5.453  24.440  0.00  0.00    +0.256 C 
ATOM      2  O   UNL     1      -0.672   5.081  24.970  0.00  0.00    -0.441 OA
ENDBRANCH   3   2
ENDBRANCH   5   3
ENDBRANCH  11  10
ENDBRANCH  12  11
BRANCH  18  19
ATOM     19  C   UNL     1      -3.898  -0.583  24.141  0.00  0.00    +0.093 C 
BRANCH  19  20
ATOM     20  N   UNL     1      -4.307  -1.192  24.519  0.00  0.00    -0.219 NA
BRANCH  20  21
ATOM     21  C   UNL     1      -4.025  -1.966  24.477  0.00  0.00    +0.073 C 
ATOM     22  C   UNL     1      -4.241  -2.450  23.844  0.00  0.00    +0.017 C 
ATOM     23  C   UNL     1      -3.959  -3.224  23.803  0.00  0.00    +0.001 C 
ATOM     24  C   UNL     1      -3.462  -3.515  24.393  0.00  0.00    +0.000 C 
ATOM     25  C   UNL     1      -3.246  -3.031  25.026  0.00  0.00    +0.001 C 
ATOM     26  C   UNL     1      -3.528  -2.257  25.068  0.00  0.00    +0.017 C 
ENDBRANCH  20  21
ENDBRANCH  19  20
ENDBRANCH  18  19
TORSDOF 8
ENDMDL
MODEL 2
REMARK VINA RESULT:     -10.1      2.321      5.787
REMARK  Name = 
REMARK  8 active torsions:
REMARK  status: ('A' for Active; 'I' for Inactive)
REMARK    1  A    between atoms: O_2  and  C_3
REMARK    2  A    between atoms: C_3  and  C_5
REMARK    3  A    between atoms: C_10  and  C_11
REMARK    4  A    between atoms: C_11  and  C_12
REMARK    5  A    between atoms: C_14  and  C_15
REMARK    6  A    between atoms: C_18  and  C_19
REMARK    7  A    between atoms: C_19  and  N_20
REMARK    8  A    between atoms: N_20  and  C_21
REMARK                            x       y       z     vdW  Elec       q    Type
REMARK                         _______ _______ _______ _____ _____    ______ ____
ROOT
ATOM     12  C   UNL     1      -4.499   1.720  24.743  0.00  0.00    +0.026 C 
ATOM     13  C   UNL     1      -4.072   1.816  24.043  0.00  0.00    +0.005 C 
ATOM     14  C   UNL     1      -3.586   2.475  23.944  0.00  0.00    +0.006 C 
ATOM     18  C   UNL     1      -3.527   3.038  24.543  0.00  0.00    +0.039 C 
ATOM     27  C   UNL     1      -3.953   2.943  25.243  0.00  0.00    -0.033 C 
ATOM     28  C   UNL     1      -4.440   2.284  25.343  0.00  0.00    -0.048 C 
ATOM     29  C   UNL     1      -4.866   2.188  26.043  0.00  0.00    +0.026 C 
ENDROOT
BRANCH  14  15
ATOM     15  C   UNL     1      -3.160   2.571  23.244  0.00  0.00    +0.000 C 
ATOM     16  C   UNL     1      -2.440   2.181  23.143  0.00  0.00    +0.000 C 
ATOM     17  C   UNL     1      -3.453   3.058  22.645  0.00  0.00    +0.000 C 
ENDBRANCH  14  15
BRANCH  12  11
ATOM     11  C   UNL     1      -4.985   1.062  24.843  0.00  0.00    +0.070 C 
BRANCH  11  10
ATOM      5  C   UNL     1      -3.442  -2.125  24.641  0.00  0.00    +0.077 A 
ATOM      6  C   UNL     1      -3.446  -1.418  25.065  0.00  0.00    +0.027 A 
ATOM      7  C   UNL     1      -3.963  -0.812  24.853  0.00  0.00    +0.100 A 
ATOM      8  C   UNL     1      -4.478  -0.914  24.216  0.00  0.00    +0.100 A 
ATOM      9  N   UNL     1      -4.923  -0.225  24.135  0.00  0.00    -0.229 NA
ATOM     10  C   UNL     1      -4.684   0.303  24.721  0.00  0.00    +0.139 A 
ATOM     30  N   UNL     1      -4.091  -0.060  25.165  0.00  0.00    -0.229 NA
ATOM     31  C   UNL     1      -4.474  -1.622  23.791  0.00  0.00    +0.021 A 
ATOM     32  C   UNL     1      -3.956  -2.227  24.004  0.00  0.00    +0.008 A 
BRANCH   5   3
ATOM      3  C   UNL     1      -2.924  -2.731  24.854  0.00  0.00    +0.341 C 
ATOM      4  O   UNL     1      -3.168  -3.315  25.383  0.00  0.00    -0.245 OA
BRANCH   3   2
ATOM      1  C   UNL     1      -1.528  -2.996  25.006  0.00  0.00    +0.256 C 
ATOM      2  O   UNL     1      -2.162  -2.753  24.538  0.00  0.00    -0.441 OA
ENDBRANCH   3   2
ENDBRANCH   5   3
ENDBRANCH  11  10
ENDBRANCH  12  11
BRANCH  18  19
ATOM     19  C   UNL     1      -3.041   3.698  24.444  0.00  0.00    +0.093 C 
BRANCH  19  20
ATOM     20  N   UNL     1      -2.778   4.118  25.103  0.00  0.00    -0.219 NA
BRANCH  20  21
ATOM     21  C   UNL     1      -2.094   4.578  25.054  0.00  0.00    +0.073 C 
ATOM     22  C   UNL     1      -2.150   5.384  24.889  0.00  0.00    +0.017 C 
ATOM     23  C   UNL     1      -1.466   5.843  24.840  0.00  0.00    +0.001 C 
ATOM     24  C   UNL     1      -0.727   5.496  24.956  0.00  0.00    +0.000 C 
ATOM     25  C   UNL     1      -0.671   4.690  25.122  0.00  0.00    +0.001 C 
ATOM     26  C   UNL     1      -1.355   4.230  25.171  0.00  0.00    +0.017 C 
ENDBRANCH  20  21
ENDBRANCH  19  20
ENDBRANCH  18  19
TORSDOF 8
ENDMDL
MODEL 3
REMARK VINA RESULT:      -8.9      3.283      5.289
REMARK  Name = 
REMARK  8 active torsions:
REMARK  status: ('A' for Active; 'I' for Inactive)
REMARK    1  A    between atoms: O_2  and  C_3
REMARK    2  A    between atoms: C_3  and  C_5
REMARK    3  A    between atoms: C_10  and  C_11
REMARK    4  A    between atoms: C_11  and  C_12
REMARK    5  A    between atoms: C_14  and  C_15
REMARK    6  A    between atoms: C_18  and  C_19
REMARK    7  A    between atoms: C_19  and  N_20
REMARK    8  A    between atoms: N_20  and  C_21
REMARK                            x       y       z     vdW  Elec       q    Type
REMARK                         _______ _______ _______ _____ _____    ______ ____
ROOT
ATOM     12  C   UNL     1      -1.307   0.129  24.286  0.00  0.00    +0.026 C 
ATOM     13  C   UNL     1      -1.425   0.690  23.693  0.00  0.00    +0.005 C 
ATOM     14  C   UNL     1      -1.992   1.281  23.793  0.00  0.00    +0.006 C 
ATOM     18  C   UNL     1      -2.440   1.312  24.484  0.00  0.00    +0.039 C 
ATOM     27  C   UNL     1      -2.322   0.750  25.077  0.00  0.00    -0.033 C 
ATOM     28  C   UNL     1      -1.755   0.159  24.978  0.00  0.00    -0.048 C 
ATOM     29  C   UNL     1      -1.637  -0.403  25.571  0.00  0.00    +0.026 C 
ENDROOT
BRANCH  14  15
ATOM     15  C   UNL     1      -2.110   1.843  23.200  0.00  0.00    +0.000 C 
ATOM     16  C   UNL     1      -1.711   2.564  23.228  0.00  0.00    +0.000 C 
ATOM     17  C   UNL     1      -2.629   1.683  22.577  0.00  0.00    +0.000 C 
ENDBRANCH  14  15
BRANCH  12  11
ATOM     11  C   UNL     1      -0.741  -0.463  24.187  0.00  0.00    +0.070 C 
BRANCH  11  10
ATOM      5  C   UNL     1       2.424   0.437  22.862  0.00  0.00    +0.077 A 
ATOM      6  C   UNL     1       1.953   0.482  23.537  0.00  0.00    +0.027 A 
ATOM      7  C   UNL     1       1.198   0.149  23.537  0.00  0.00    +0.100 A 
ATOM      8  C   UNL     1       0.914  -0.229  22.860  0.00  0.00    +0.100 A 
ATOM      9  N   UNL     1       0.154  -0.504  23.022  0.00  0.00    -0.229 NA
ATOM     10  C   UNL     1      -0.033  -0.296  23.798  0.00  0.00    +0.139 A 
ATOM     30  N   UNL     1       0.612   0.107  24.115  0.00  0.00    -0.229 NA
ATOM     31  C   UNL     1       1.386  -0.274  22.184  0.00  0.00    +0.021 A 
ATOM     32  C   UNL     1       2.140   0.059  22.185  0.00  0.00    +0.008 A 
BRANCH   5   3
ATOM      3  C   UNL     1       3.178   0.770  22.862  0.00  0.00    +0.341 C 
ATOM      4  O   UNL     1       3.267   1.590  22.894  0.00  0.00    -0.245 OA
BRANCH   3   2
ATOM      1  C   UNL     1       4.590   0.595  22.992  0.00  0.00    +0.256 C 
ATOM      2  O   UNL     1       3.844   0.284  22.830  0.00  0.00    -0.441 OA
ENDBRANCH   3   2
ENDBRANCH   5   3
ENDBRANCH  11  10
ENDBRANCH  12  11
BRANCH  18  19
ATOM     19  C   UNL     1      -3.007   1.903  24.584  0.00  0.00    +0.093 C 
BRANCH  19  20
ATOM     20  N   UNL     1      -3.469   1.920  25.267  0.00  0.00    -0.219 NA
BRANCH  20  21
ATOM     21  C   UNL     1      -4.115   2.430  25.316  0.00  0.00    +0.073 C 
ATOM     22  C   UNL     1      -4.876   2.147  25.167  0.00  0.00    +0.017 C 
ATOM     23  C   UNL     1      -5.522   2.658  25.217  0.00  0.00    +0.001 C 
ATOM     24  C   UNL     1      -5.408   3.450  25.415  0.00  0.00    +0.000 C 
ATOM     25  C   UNL     1      -4.647   3.733  25.563  0.00  0.00    +0.001 C 
ATOM     26  C   UNL     1      -4.001   3.223  25.514  0.00  0.00    +0.017 C 
ENDBRANCH  20  21
ENDBRANCH  19  20
ENDBRANCH  18  19
TORSDOF 8
ENDMDL
MODEL 4
REMARK VINA RESULT:      -8.5      2.871      6.363
REMARK  Name = 
REMARK  8 active torsions:
REMARK  status: ('A' for Active; 'I' for Inactive)
REMARK    1  A    between atoms: O_2  and  C_3
REMARK    2  A    between atoms: C_3  and  C_5
REMARK    3  A    between atoms: C_10  and  C_11
REMARK    4  A    between atoms: C_11  and  C_12
REMARK    5  A    between atoms: C_14  and  C_15
REMARK    6  A    between atoms: C_18  and  C_19
REMARK    7  A    between atoms: C_19  and  N_20
REMARK    8  A    between atoms: N_20  and  C_21
REMARK                            x       y       z     vdW  Elec       q    Type
REMARK                         _______ _______ _______ _____ _____    ______ ____
ROOT
ATOM     12  C   UNL     1      -0.953   0.811  25.175  0.00  0.00    +0.026 C 
ATOM     13  C   UNL     1      -1.354   1.040  24.491  0.00  0.00    +0.005 C 
ATOM     14  C   UNL     1      -1.469   1.841  24.330  0.00  0.00    +0.006 C 
ATOM     18  C   UNL     1      -1.183   2.413  24.850  0.00  0.00    +0.039 C 
ATOM     27  C   UNL     1      -0.781   2.184  25.534  0.00  0.00    -0.033 C 
ATOM     28  C   UNL     1      -0.666   1.384  25.696  0.00  0.00    -0.048 C 
ATOM     29  C   UNL     1      -0.264   1.155  26.380  0.00  0.00    +0.026 C 
ENDROOT
BRANCH  14  15
ATOM     15  C   UNL     1      -1.871   2.070  23.646  0.00  0.00    +0.000 C 
ATOM     16  C   UNL     1      -1.459   2.167  22.938  0.00  0.00    +0.000 C 
ATOM     17  C   UNL     1      -2.686   2.202  23.671  0.00  0.00    +0.000 C 
ENDBRANCH  14  15
BRANCH  12  11
ATOM     11  C   UNL     1      -0.837   0.011  25.338  0.00  0.00    +0.070 C 
BRANCH  11  10
ATOM      5  C   UNL     1      -3.400  -2.354  24.692  0.00  0.00    +0.077 A 
ATOM      6  C   UNL     1      -2.730  -2.002  24.368  0.00  0.00    +0.027 A 
ATOM      7  C   UNL     1      -2.310  -1.438  24.800  0.00  0.00    +0.100 A 
ATOM      8  C   UNL     1      -2.562  -1.227  25.557  0.00  0.00    +0.100 A 
ATOM      9  N   UNL     1      -2.041  -0.659  25.851  0.00  0.00    -0.229 NA
ATOM     10  C   UNL     1      -1.467  -0.518  25.275  0.00  0.00    +0.139 A 
ATOM     30  N   UNL     1      -1.634  -1.000  24.627  0.00  0.00    -0.229 NA
ATOM     31  C   UNL     1      -3.234  -1.580  25.882  0.00  0.00    +0.021 A 
ATOM     32  C   UNL     1      -3.652  -2.144  25.449  0.00  0.00    +0.008 A 
BRANCH   5   3
ATOM      3  C   UNL     1      -3.820  -2.918  24.260  0.00  0.00    +0.341 C 
ATOM      4  O   UNL     1      -3.641  -3.719  24.344  0.00  0.00    -0.245 OA
BRANCH   3   2
ATOM      1  C   UNL     1      -4.785  -3.235  23.255  0.00  0.00    +0.256 C 
ATOM      2  O   UNL     1      -4.418  -2.681  23.744  0.00  0.00    -0.441 OA
ENDBRANCH   3   2
ENDBRANCH   5   3
ENDBRANCH  11  10
ENDBRANCH  12  11
BRANCH  18  19
ATOM     19  C   UNL     1      -1.298   3.214  24.688  0.00  0.00    +0.093 C 
BRANCH  19  20
ATOM     20  N   UNL     1      -0.994   3.785  25.200  0.00  0.00    -0.219 NA
BRANCH  20  21
ATOM     21  C   UNL     1      -1.195   4.579  25.099  0.00  0.00    +0.073 C 
ATOM     22  C   UNL     1      -0.665   5.096  24.735  0.00  0.00    +0.017 C 
ATOM     23  C   UNL     1      -0.868   5.890  24.635  0.00  0.00    +0.001 C 
ATOM     24  C   UNL     1      -1.599   6.166  24.899  0.00  0.00    +0.000 C 
ATOM     25  C   UNL     1      -2.128   5.648  25.263  0.00  0.00    +0.001 C 
ATOM     26  C   UNL     1      -1.927   4.855  25.363  0.00  0.00    +0.017 C 
ENDBRANCH  20  21
ENDBRANCH  19  20
ENDBRANCH  18  19
TORSDOF 8
ENDMDL
MODEL 5
REMARK VINA RESULT:      -8.4      3.222      5.098
REMARK  Name = 
REMARK  8 active torsions:
REMARK  status: ('A' for Active; 'I' for Inactive)
REMARK    1  A    between atoms: O_2  and  C_3
REMARK    2  A    between atoms: C_3  and  C_5
REMARK    3  A    between atoms: C_10  and  C_11
REMARK    4  A    between atoms: C_11  and  C_12
REMARK    5  A    between atoms: C_14  and  C_15
REMARK    6  A    between atoms: C_18  and  C_19
REMARK    7  A    between atoms: C_19  and  N_20
REMARK    8  A    between atoms: N_20  and  C_21
REMARK                            x       y       z     vdW  Elec       q    Type
REMARK                         _______ _______ _______ _____ _____    ______ ____
ROOT
ATOM     12  C   UNL     1      -1.276  -0.326  24.807  0.00  0.00    +0.026 C 
ATOM     13  C   UNL     1      -1.099   0.473  24.703  0.00  0.00    +0.005 C 
ATOM     14  C   UNL     1      -0.433   0.694  24.269  0.00  0.00    +0.006 C 
ATOM     18  C   UNL     1       0.056   0.118  23.940  0.00  0.00    +0.039 C 
ATOM     27  C   UNL     1      -0.121  -0.681  24.044  0.00  0.00    -0.033 C 
ATOM     28  C   UNL     1      -0.786  -0.904  24.477  0.00  0.00    -0.048 C 
ATOM     29  C   UNL     1      -0.963  -1.703  24.581  0.00  0.00    +0.026 C 
ENDROOT
BRANCH  14  15
ATOM     15  C   UNL     1      -0.256   1.493  24.165  0.00  0.00    +0.000 C 
ATOM     16  C   UNL     1      -0.545   1.898  23.507  0.00  0.00    +0.000 C 
ATOM     17  C   UNL     1       0.210   1.889  24.720  0.00  0.00    +0.000 C 
ENDBRANCH  14  15
BRANCH  12  11
ATOM     11  C   UNL     1      -1.942  -0.549  25.240  0.00  0.00    +0.070 C 
BRANCH  11  10
ATOM      5  C   UNL     1      -4.890   1.416  25.075  0.00  0.00    +0.077 A 
ATOM      6  C   UNL     1      -4.167   1.339  25.464  0.00  0.00    +0.027 A 
ATOM      7  C   UNL     1      -3.652   0.727  25.262  0.00  0.00    +0.100 A 
ATOM      8  C   UNL     1      -3.860   0.192  24.670  0.00  0.00    +0.100 A 
ATOM      9  N   UNL     1      -3.245  -0.352  24.590  0.00  0.00    -0.229 NA
ATOM     10  C   UNL     1      -2.657  -0.152  25.132  0.00  0.00    +0.139 A 
ATOM     30  N   UNL     1      -2.908   0.515  25.547  0.00  0.00    -0.229 NA
ATOM     31  C   UNL     1      -4.584   0.268  24.281  0.00  0.00    +0.021 A 
ATOM     32  C   UNL     1      -5.099   0.880  24.483  0.00  0.00    +0.008 A 
BRANCH   5   3
ATOM      3  C   UNL     1      -5.405   2.027  25.277  0.00  0.00    +0.341 C 
ATOM      4  O   UNL     1      -6.147   1.854  25.595  0.00  0.00    -0.245 OA
BRANCH   3   2
ATOM      1  C   UNL     1      -5.608   3.421  25.516  0.00  0.00    +0.256 C 
ATOM      2  O   UNL     1      -5.179   2.812  25.163  0.00  0.00    -0.441 OA
ENDBRANCH   3   2
ENDBRANCH   5   3
ENDBRANCH  11  10
ENDBRANCH  12  11
BRANCH  18  19
ATOM     19  C   UNL     1       0.723   0.339  23.507  0.00  0.00    +0.093 C 
BRANCH  19  20
ATOM     20  N   UNL     1       1.218  -0.239  23.189  0.00  0.00    -0.219 NA
BRANCH  20  21
ATOM     21  C   UNL     1       1.918  -0.020  22.811  0.00  0.00    +0.073 C 
ATOM     22  C   UNL     1       2.526   0.336  23.241  0.00  0.00    +0.017 C 
ATOM     23  C   UNL     1       3.225   0.554  22.861  0.00  0.00    +0.001 C 
ATOM     24  C   UNL     1       3.318   0.416  22.054  0.00  0.00    +0.000 C 
ATOM     25  C   UNL     1       2.710   0.060  21.624  0.00  0.00    +0.001 C 
ATOM     26  C   UNL     1       2.010  -0.159  22.002  0.00  0.00    +0.017 C 
ENDBRANCH  20  21
ENDBRANCH  19  20
ENDBRANCH  18  19
TORSDOF 8
ENDMDL
MODEL 6
REMARK VINA RESULT:      -7.6      2.962      4.677
REMARK  Name = 
REMARK  8 active torsions:
REMARK  status: ('A' for Active; 'I' for Inactive)
REMARK    1  A    between atoms: O_2  and  C_3
REMARK    2  A    between atoms: C_3  and  C_5
REMARK    3  A    between atoms: C_10  and  C_11
REMARK    4  A    between atoms: C_11  and  C_12
REMARK    5  A    between atoms: C_14  and  C_15
REMARK    6  A    between atoms: C_18  and  C_19
REMARK    7  A    between atoms: C_19  and  N_20
REMARK    8  A    between atoms: N_20  and  C_21
REMARK                            x       y       z     vdW  Elec       q    Type
REMARK                         _______ _______ _______ _____ _____    ______ ____
ROOT
ATOM     12  C   UNL     1      -0.961   2.903  25.076  0.00  0.00    +0.026 C 
ATOM     13  C   UNL     1      -1.141   2.104  25.174  0.00  0.00    +0.005 C 
ATOM     14  C   UNL     1      -0.664   1.528  24.825  0.00  0.00    +0.006 C 
ATOM     18  C   UNL     1      -0.008   1.751  24.379  0.00  0.00    +0.039 C 
ATOM     27  C   UNL     1       0.172   2.550  24.280  0.00  0.00    -0.033 C 
ATOM     28  C   UNL     1      -0.304   3.127  24.629  0.00  0.00    -0.048 C 
ATOM     29  C   UNL     1      -0.124   3.926  24.531  0.00  0.00    +0.026 C 
ENDROOT
BRANCH  14  15
ATOM     15  C   UNL     1      -0.844   0.729  24.923  0.00  0.00    +0.000 C 
ATOM     16  C   UNL     1      -0.558   0.319  25.579  0.00  0.00    +0.000 C 
ATOM     17  C   UNL     1      -1.311   0.340  24.365  0.00  0.00    +0.000 C 
ENDBRANCH  14  15
BRANCH  12  11
ATOM     11  C   UNL     1      -1.437   3.480  25.425  0.00  0.00    +0.070 C 
BRANCH  11  10
ATOM      5  C   UNL     1      -4.971   3.183  25.406  0.00  0.00    +0.077 A 
ATOM      6  C   UNL     1      -4.298   3.038  25.859  0.00  0.00    +0.027 A 
ATOM      7  C   UNL     1      -3.552   3.234  25.565  0.00  0.00    +0.100 A 
ATOM      8  C   UNL     1      -3.480   3.574  24.817  0.00  0.00    +0.100 A 
ATOM      9  N   UNL     1      -2.680   3.708  24.674  0.00  0.00    -0.229 NA
ATOM     10  C   UNL     1      -2.256   3.450  25.333  0.00  0.00    +0.139 A 
ATOM     30  N   UNL     1      -2.796   3.158  25.883  0.00  0.00    -0.229 NA
ATOM     31  C   UNL     1      -4.155   3.719  24.363  0.00  0.00    +0.021 A 
ATOM     32  C   UNL     1      -4.900   3.523  24.658  0.00  0.00    +0.008 A 
BRANCH   5   3
ATOM      3  C   UNL     1      -5.716   2.987  25.700  0.00  0.00    +0.341 C 
ATOM      4  O   UNL     1      -6.229   3.582  25.952  0.00  0.00    -0.245 OA
BRANCH   3   2
ATOM      1  C   UNL     1      -6.584   1.978  26.221  0.00  0.00    +0.256 C 
ATOM      2  O   UNL     1      -5.949   2.197  25.742  0.00  0.00    -0.441 OA
ENDBRANCH   3   2
ENDBRANCH   5   3
ENDBRANCH  11  10
ENDBRANCH  12  11
BRANCH  18  19
ATOM     19  C   UNL     1       0.469   1.175  24.029  0.00  0.00    +0.093 C 
BRANCH  19  20
ATOM     20  N   UNL     1       1.135   1.399  23.597  0.00  0.00    -0.219 NA
BRANCH  20  21
ATOM     21  C   UNL     1       1.573   0.831  23.189  0.00  0.00    +0.073 C 
ATOM     22  C   UNL     1       1.187   0.256  22.740  0.00  0.00    +0.017 C 
ATOM     23  C   UNL     1       1.625  -0.311  22.332  0.00  0.00    +0.001 C 
ATOM     24  C   UNL     1       2.448  -0.304  22.372  0.00  0.00    +0.000 C 
ATOM     25  C   UNL     1       2.835   0.271  22.821  0.00  0.00    +0.001 C 
ATOM     26  C   UNL     1       2.397   0.838  23.229  0.00  0.00    +0.017 C 
ENDBRANCH  20  21
ENDBRANCH  19  20
ENDBRANCH  18  19
TORSDOF 8
ENDMDL
