MODEL 1
REMARK VINA RESULT:      -9.9      0.000      0.000
REMARK  Name = 
REMARK  8 active torsions:
REMARK  status: ('A' for Active; 'I' for Inactive)
REMARK    1  A    between atoms: C_2  and  C_4
REMARK    2  A    between atoms: C_6  and  C_7
REMARK    3  A    between atoms: C_7  and  C_8
REMARK    4  A    between atoms: C_11  and  C_13
REMARK    5  A    between atoms: C_16  and  N_19
REMARK    6  A    between atoms: C_25  and  C_26
REMARK    7  A    between atoms: C_26  and  N_27
REMARK    8  A    between atoms: C_30  and  C_33
REMARK                            x       y       z     vdW  Elec       q    Type
REMARK                         _______ _______ _______ _____ _____    ______ ____
ROOT
ATOM      4  C   UNL     1      -1.186   3.025  24.886  0.00  0.00    +0.006 C 
ATOM      5  C   UNL     1      -0.788   2.412  24.503  0.00  0.00    +0.005 C 
ATOM      6  C   UNL     1      -1.125   2.054  23.840  0.00  0.00    +0.027 C 
ATOM     22  C   UNL     1      -1.859   2.309  23.561  0.00  0.00    -0.048 C 
ATOM     23  C   UNL     1      -2.195   1.951  22.899  0.00  0.00    +0.026 C 
ATOM     24  C   UNL     1      -2.255   2.922  23.945  0.00  0.00    -0.034 C 
ATOM     25  C   UNL     1      -1.919   3.280  24.607  0.00  0.00    +0.037 C 
ENDROOT
BRANCH   4   2
ATOM      1  C   UNL     1      -0.807   2.970  26.263  0.00  0.00    +0.000 C 
ATOM      2  C   UNL     1      -0.849   3.382  25.549  0.00  0.00    +0.000 C 
ATOM      3  C   UNL     1      -0.554   4.150  25.498  0.00  0.00    +0.000 C 
ENDBRANCH   4   2
BRANCH   6   7
ATOM      7  C   UNL     1      -0.728   1.441  23.456  0.00  0.00    +0.091 C 
BRANCH   7   8
ATOM      8  C   UNL     1      -0.752   0.677  23.764  0.00  0.00    +0.227 A 
ATOM      9  N   UNL     1      -0.101   0.229  24.002  0.00  0.00    -0.111 NA
ATOM     10  N   UNL     1      -0.378  -0.499  24.274  0.00  0.00    -0.107 NA
ATOM     11  C   UNL     1      -1.201  -0.501  24.205  0.00  0.00    +0.250 A 
ATOM     12  O   UNL     1      -1.431   0.226  23.890  0.00  0.00    -0.420 OA
BRANCH  11  13
ATOM     13  C   UNL     1      -1.704  -1.120  24.413  0.00  0.00    +0.055 A 
ATOM     14  C   UNL     1      -2.404  -0.964  24.820  0.00  0.00    +0.006 A 
ATOM     15  C   UNL     1      -2.908  -1.583  25.029  0.00  0.00    +0.015 A 
ATOM     16  C   UNL     1      -2.710  -2.359  24.831  0.00  0.00    +0.048 A 
ATOM     17  C   UNL     1      -2.011  -2.517  24.425  0.00  0.00    +0.015 A 
ATOM     18  C   UNL     1      -1.507  -1.896  24.216  0.00  0.00    +0.006 A 
BRANCH  16  19
ATOM     19  N   UNL     1      -3.214  -2.979  25.040  0.00  0.00    -0.304 N 
ATOM     20  C   UNL     1      -3.710  -3.316  24.474  0.00  0.00    +0.112 C 
ATOM     21  C   UNL     1      -3.222  -3.260  25.815  0.00  0.00    +0.112 C 
ENDBRANCH  16  19
ENDBRANCH  11  13
ENDBRANCH   7   8
ENDBRANCH   6   7
BRANCH  25  26
ATOM     26  C   UNL     1      -2.316   3.892  24.991  0.00  0.00    +0.076 C 
BRANCH  26  27
ATOM     27  N   UNL     1      -3.129   3.838  25.124  0.00  0.00    -0.272 NA
ATOM     28  C   UNL     1      -3.658   4.134  24.564  0.00  0.00    +0.073 C 
ATOM     29  C   UNL     1      -4.471   4.080  24.696  0.00  0.00    +0.027 C 
ATOM     30  C   UNL     1      -4.754   3.730  25.389  0.00  0.00    +0.083 C 
ATOM     31  C   UNL     1      -4.224   3.435  25.947  0.00  0.00    +0.027 C 
ATOM     32  C   UNL     1      -3.411   3.489  25.815  0.00  0.00    +0.073 C 
BRANCH  30  33
ATOM     33  C   UNL     1      -5.566   3.677  25.521  0.00  0.00    +0.260 C 
ATOM     34  N   UNL     1      -5.941   2.942  25.490  0.00  0.00    -0.088 NA
ATOM     35  O   UNL     1      -6.003   4.356  25.684  0.00  0.00    -0.272 OA
ENDBRANCH  30  33
ENDBRANCH  26  27
ENDBRANCH  25  26
TORSDOF 8
ENDMDL
MODEL 2
REMARK VINA RESULT:      -9.7      2.192      3.622
REMARK  Name = 
REMARK  8 active torsions:
REMARK  status: ('A' for Active; 'I' for Inactive)
REMARK    1  A    between atoms: C_2  and  C_4
REMARK    2  A    between atoms: C_6  and  C_7
REMARK    3  A    between atoms: C_7  and  C_8
REMARK    4  A    between atoms: C_11  and  C_13
REMARK    5  A    between atoms: C_16  and  N_19
REMARK    6  A    between atoms: C_25  and  C_26
REMARK    7  A    between atoms: C_26  and  N_27
REMARK    8  A    between atoms: C_30  and  C_33
REMARK                            x       y       z     vdW  Elec       q    Type
REMARK                         _______ _______ _______ _____ _____    ______ ____
ROOT
ATOM      4  C   UNL     1      -1.196   2.602  24.795  0.00  0.00    +0.006 C 
ATOM      5  C   UNL     1      -0.814   1.873  24.735  0.00  0.00    +0.005 C 
ATOM      6  C   UNL     1      -1.257   1.179  24.680  0.00  0.00    +0.027 C 
ATOM     22  C   UNL     1      -2.081   1.213  24.685  0.00  0.00    -0.048 C 
ATOM     23  C   UNL     1      -2.523   0.520  24.631  0.00  0.00    +0.026 C 
ATOM     24  C   UNL     1      -2.463   1.943  24.746  0.00  0.00    -0.034 C 
ATOM     25  C   UNL     1      -2.021   2.636  24.801  0.00  0.00    +0.037 C 
ENDROOT
BRANCH   4   2
ATOM      1  C   UNL     1      -0.594   3.737  24.171  0.00  0.00    +0.000 C 
ATOM      2  C   UNL     1      -0.753   3.295  24.850  0.00  0.00    +0.000 C 
ATOM      3  C   UNL     1      -0.470   3.547  25.582  0.00  0.00    +0.000 C 
ENDBRANCH   4   2
BRANCH   6   7
ATOM      7  C   UNL     1      -0.875   0.450  24.620  0.00  0.00    +0.091 C 
BRANCH   7   8
ATOM      8  C   UNL     1      -0.310   0.328  24.032  0.00  0.00    +0.227 A 
ATOM      9  N   UNL     1      -0.456   0.041  23.272  0.00  0.00    -0.111 NA
ATOM     10  N   UNL     1       0.264   0.006  22.870  0.00  0.00    -0.107 NA
ATOM     11  C   UNL     1       0.854   0.271  23.381  0.00  0.00    +0.250 A 
ATOM     12  O   UNL     1       0.499   0.470  24.100  0.00  0.00    -0.420 OA
BRANCH  11  13
ATOM     13  C   UNL     1       1.658   0.328  23.206  0.00  0.00    +0.055 A 
ATOM     14  C   UNL     1       2.048   1.050  23.289  0.00  0.00    +0.006 A 
ATOM     15  C   UNL     1       2.852   1.109  23.114  0.00  0.00    +0.015 A 
ATOM     16  C   UNL     1       3.266   0.443  22.855  0.00  0.00    +0.048 A 
ATOM     17  C   UNL     1       2.877  -0.279  22.772  0.00  0.00    +0.015 A 
ATOM     18  C   UNL     1       2.072  -0.336  22.948  0.00  0.00    +0.006 A 
BRANCH  16  19
ATOM     19  N   UNL     1       4.071   0.500  22.680  0.00  0.00    -0.304 N 
ATOM     20  C   UNL     1       4.631   0.225  23.219  0.00  0.00    +0.112 C 
ATOM     21  C   UNL     1       4.314   0.833  21.966  0.00  0.00    +0.112 C 
ENDBRANCH  16  19
ENDBRANCH  11  13
ENDBRANCH   7   8
ENDBRANCH   6   7
BRANCH  25  26
ATOM     26  C   UNL     1      -2.402   3.365  24.861  0.00  0.00    +0.076 C 
BRANCH  26  27
ATOM     27  N   UNL     1      -3.200   3.397  25.072  0.00  0.00    -0.272 NA
ATOM     28  C   UNL     1      -3.782   3.366  24.488  0.00  0.00    +0.073 C 
ATOM     29  C   UNL     1      -4.579   3.398  24.699  0.00  0.00    +0.027 C 
ATOM     30  C   UNL     1      -4.794   3.461  25.494  0.00  0.00    +0.083 C 
ATOM     31  C   UNL     1      -4.211   3.491  26.076  0.00  0.00    +0.027 C 
ATOM     32  C   UNL     1      -3.414   3.459  25.865  0.00  0.00    +0.073 C 
BRANCH  30  33
ATOM     33  C   UNL     1      -5.590   3.493  25.704  0.00  0.00    +0.260 C 
ATOM     34  N   UNL     1      -5.976   2.810  25.962  0.00  0.00    -0.088 NA
ATOM     35  O   UNL     1      -6.001   4.206  25.657  0.00  0.00    -0.272 OA
ENDBRANCH  30  33
ENDBRANCH  26  27
ENDBRANCH  25  26
TORSDOF 8
ENDMDL
MODEL 3
REMARK VINA RESULT:      -9.5      1.363      5.205
REMARK  Name = 
REMARK  8 active torsions:
REMARK  status: ('A' for Active; 'I' for Inactive)
REMARK    1  A    between atoms: C_2  and  C_4
REMARK    2  A    between atoms: C_6  and  C_7
REMARK    3  A    between atoms: C_7  and  C_8
REMARK    4  A    between atoms: C_11  and  C_13
REMARK    5  A    between atoms: C_16  and  N_19
REMARK    6  A    between atoms: C_25  and  C_26
REMARK    7  A    between atoms: C_26  and  N_27
REMARK    8  A    between atoms: C_30  and  C_33
REMARK                            x       y       z     vdW  Elec       q    Type
REMARK                         _______ _______ _______ _____ _____    ______ ____
ROOT
ATOM      4  C   UNL     1      -0.290   0.686  24.168  0.00  0.00    +0.006 C 
ATOM      5  C   UNL     1      -0.221   1.423  24.532  0.00  0.00    +0.005 C 
ATOM      6  C   UNL     1      -0.407   1.508  25.332  0.00  0.00    +0.027 C 
ATOM     22  C   UNL     1      -0.663   0.855  25.767  0.00  0.00    -0.048 C 
ATOM     23  C   UNL     1      -0.849   0.940  26.565  0.00  0.00    +0.026 C 
ATOM     24  C   UNL     1      -0.732   0.118  25.402  0.00  0.00    -0.034 C 
ATOM     25  C   UNL     1      -0.546   0.034  24.603  0.00  0.00    +0.037 C 
ENDROOT
BRANCH   4   2
ATOM      1  C   UNL     1       0.607   0.245  23.147  0.00  0.00    +0.000 C 
ATOM      2  C   UNL     1      -0.104   0.602  23.369  0.00  0.00    +0.000 C 
ATOM      3  C   UNL     1      -0.626   0.875  22.793  0.00  0.00    +0.000 C 
ENDBRANCH   4   2
BRANCH   6   7
ATOM      7  C   UNL     1      -0.337   2.245  25.695  0.00  0.00    +0.091 C 
BRANCH   7   8
ATOM      8  C   UNL     1      -0.919   2.817  25.582  0.00  0.00    +0.227 A 
ATOM      9  N   UNL     1      -0.789   3.609  25.389  0.00  0.00    -0.111 NA
ATOM     10  N   UNL     1      -1.524   3.981  25.330  0.00  0.00    -0.107 NA
ATOM     11  C   UNL     1      -2.107   3.419  25.486  0.00  0.00    +0.250 A 
ATOM     12  O   UNL     1      -1.733   2.700  25.642  0.00  0.00    -0.420 OA
BRANCH  11  13
ATOM     13  C   UNL     1      -2.921   3.552  25.486  0.00  0.00    +0.055 A 
ATOM     14  C   UNL     1      -3.369   3.374  24.816  0.00  0.00    +0.006 A 
ATOM     15  C   UNL     1      -4.183   3.507  24.815  0.00  0.00    +0.015 A 
ATOM     16  C   UNL     1      -4.550   3.818  25.486  0.00  0.00    +0.048 A 
ATOM     17  C   UNL     1      -4.104   3.995  26.156  0.00  0.00    +0.015 A 
ATOM     18  C   UNL     1      -3.288   3.862  26.156  0.00  0.00    +0.006 A 
BRANCH  16  19
ATOM     19  N   UNL     1      -5.365   3.950  25.486  0.00  0.00    -0.304 N 
ATOM     20  C   UNL     1      -5.657   4.716  25.397  0.00  0.00    +0.112 C 
ATOM     21  C   UNL     1      -5.885   3.317  25.574  0.00  0.00    +0.112 C 
ENDBRANCH  16  19
ENDBRANCH  11  13
ENDBRANCH   7   8
ENDBRANCH   6   7
BRANCH  25  26
ATOM     26  C   UNL     1      -0.616  -0.703  24.239  0.00  0.00    +0.076 C 
BRANCH  26  27
ATOM     27  N   UNL     1      -1.260  -1.190  24.412  0.00  0.00    -0.272 NA
ATOM     28  C   UNL     1      -1.138  -1.923  24.769  0.00  0.00    +0.073 C 
ATOM     29  C   UNL     1      -1.782  -2.409  24.942  0.00  0.00    +0.027 C 
ATOM     30  C   UNL     1      -2.548  -2.162  24.757  0.00  0.00    +0.083 C 
ATOM     31  C   UNL     1      -2.668  -1.428  24.400  0.00  0.00    +0.027 C 
ATOM     32  C   UNL     1      -2.025  -0.942  24.227  0.00  0.00    +0.073 C 
BRANCH  30  33
ATOM     33  C   UNL     1      -3.191  -2.648  24.929  0.00  0.00    +0.260 C 
ATOM     34  N   UNL     1      -3.513  -3.130  24.342  0.00  0.00    -0.088 NA
ATOM     35  O   UNL     1      -3.513  -2.652  25.688  0.00  0.00    -0.272 OA
ENDBRANCH  30  33
ENDBRANCH  26  27
ENDBRANCH  25  26
TORSDOF 8
ENDMDL
MODEL 4
REMARK VINA RESULT:      -9.5      2.100      4.020
REMARK  Name = 
REMARK  8 active torsions:
REMARK  status: ('A' for Active; 'I' for Inactive)
REMARK    1  A    between atoms: C_2  and  C_4
REMARK    2  A    between atoms: C_6  and  C_7
REMARK    3  A    between atoms: C_7  and  C_8
REMARK    4  A    between atoms: C_11  and  C_13
REMARK    5  A    between atoms: C_16  and  N_19
REMARK    6  A    between atoms: C_25  and  C_26
REMARK    7  A    between atoms: C_26  and  N_27
REMARK    8  A    between atoms: C_30  and  C_33
REMARK                            x       y       z     vdW  Elec       q    Type
REMARK                         _______ _______ _______ _____ _____    ______ ____
ROOT
ATOM      4  C   UNL     1      -3.360  -0.442  24.524  0.00  0.00    +0.006 C 
ATOM      5  C   UNL     1      -2.616  -0.712  24.760  0.00  0.00    +0.005 C 
ATOM      6  C   UNL     1      -2.099  -0.202  25.153  0.00  0.00    +0.027 C 
ATOM     22  C   UNL     1      -2.325   0.576  25.308  0.00  0.00    -0.048 C 
ATOM     23  C   UNL     1      -1.808   1.085  25.700  0.00  0.00    +0.026 C 
ATOM     24  C   UNL     1      -3.069   0.844  25.072  0.00  0.00    -0.034 C 
ATOM     25  C   UNL     1      -3.586   0.336  24.680  0.00  0.00    +0.037 C 
ENDROOT
BRANCH   4   2
ATOM      1  C   UNL     1      -4.326  -1.494  24.563  0.00  0.00    +0.000 C 
ATOM      2  C   UNL     1      -3.876  -0.952  24.132  0.00  0.00    +0.000 C 
ATOM      3  C   UNL     1      -3.944  -0.920  23.312  0.00  0.00    +0.000 C 
ENDBRANCH   4   2
BRANCH   6   7
ATOM      7  C   UNL     1      -1.356  -0.471  25.389  0.00  0.00    +0.091 C 
BRANCH   7   8
ATOM      8  C   UNL     1      -0.796  -0.685  24.824  0.00  0.00    +0.227 A 
ATOM      9  N   UNL     1      -0.757  -1.410  24.430  0.00  0.00    -0.111 NA
ATOM     10  N   UNL     1      -0.113  -1.385  23.914  0.00  0.00    -0.107 NA
ATOM     11  C   UNL     1       0.246  -0.647  23.990  0.00  0.00    +0.250 A 
ATOM     12  O   UNL     1      -0.176  -0.214  24.552  0.00  0.00    -0.420 OA
BRANCH  11  13
ATOM     13  C   UNL     1       0.911  -0.386  23.577  0.00  0.00    +0.055 A 
ATOM     14  C   UNL     1       0.870   0.300  23.121  0.00  0.00    +0.006 A 
ATOM     15  C   UNL     1       1.534   0.562  22.707  0.00  0.00    +0.015 A 
ATOM     16  C   UNL     1       2.240   0.137  22.750  0.00  0.00    +0.048 A 
ATOM     17  C   UNL     1       2.282  -0.549  23.206  0.00  0.00    +0.015 A 
ATOM     18  C   UNL     1       1.616  -0.810  23.620  0.00  0.00    +0.006 A 
BRANCH  16  19
ATOM     19  N   UNL     1       2.905   0.398  22.337  0.00  0.00    -0.304 N 
ATOM     20  C   UNL     1       3.062   0.106  21.582  0.00  0.00    +0.112 C 
ATOM     21  C   UNL     1       3.412   0.951  22.679  0.00  0.00    +0.112 C 
ENDBRANCH  16  19
ENDBRANCH  11  13
ENDBRANCH   7   8
ENDBRANCH   6   7
BRANCH  25  26
ATOM     26  C   UNL     1      -4.328   0.604  24.444  0.00  0.00    +0.076 C 
BRANCH  26  27
ATOM     27  N   UNL     1      -4.602   1.340  24.699  0.00  0.00    -0.272 NA
ATOM     28  C   UNL     1      -5.075   1.393  25.373  0.00  0.00    +0.073 C 
ATOM     29  C   UNL     1      -5.349   2.128  25.628  0.00  0.00    +0.027 C 
ATOM     30  C   UNL     1      -5.148   2.811  25.210  0.00  0.00    +0.083 C 
ATOM     31  C   UNL     1      -4.675   2.757  24.536  0.00  0.00    +0.027 C 
ATOM     32  C   UNL     1      -4.402   2.022  24.281  0.00  0.00    +0.073 C 
BRANCH  30  33
ATOM     33  C   UNL     1      -5.421   3.546  25.465  0.00  0.00    +0.260 C 
ATOM     34  N   UNL     1      -4.925   4.205  25.431  0.00  0.00    -0.088 NA
ATOM     35  O   UNL     1      -6.190   3.623  25.754  0.00  0.00    -0.272 OA
ENDBRANCH  30  33
ENDBRANCH  26  27
ENDBRANCH  25  26
TORSDOF 8
ENDMDL
MODEL 5
REMARK VINA RESULT:      -9.4      1.363      2.376
REMARK  Name = 
REMARK  8 active torsions:
REMARK  status: ('A' for Active; 'I' for Inactive)
REMARK    1  A    between atoms: C_2  and  C_4
REMARK    2  A    between atoms: C_6  and  C_7
REMARK    3  A    between atoms: C_7  and  C_8
REMARK    4  A    between atoms: C_11  and  C_13
REMARK    5  A    between atoms: C_16  and  N_19
REMARK    6  A    between atoms: C_25  and  C_26
REMARK    7  A    between atoms: C_26  and  N_27
REMARK    8  A    between atoms: C_30  and  C_33
REMARK                            x       y       z     vdW  Elec       q    Type
REMARK                         _______ _______ _______ _____ _____    ______ ____
ROOT
ATOM      4  C   UNL     1      -2.921   3.003  23.707  0.00  0.00    +0.006 C 
ATOM      5  C   UNL     1      -2.107   2.966  23.836  0.00  0.00    +0.005 C 
ATOM      6  C   UNL     1      -1.797   3.179  24.571  0.00  0.00    +0.027 C 
ATOM     22  C   UNL     1      -2.300   3.427  25.176  0.00  0.00    -0.048 C 
ATOM     23  C   UNL     1      -1.990   3.639  25.909  0.00  0.00    +0.026 C 
ATOM     24  C   UNL     1      -3.114   3.463  25.045  0.00  0.00    -0.034 C 
ATOM     25  C   UNL     1      -3.425   3.251  24.312  0.00  0.00    +0.037 C 
ENDROOT
BRANCH   4   2
ATOM      1  C   UNL     1      -3.222   2.000  22.735  0.00  0.00    +0.000 C 
ATOM      2  C   UNL     1      -3.231   2.790  22.973  0.00  0.00    +0.000 C 
ATOM      3  C   UNL     1      -3.550   3.366  22.477  0.00  0.00    +0.000 C 
ENDBRANCH   4   2
BRANCH   6   7
ATOM      7  C   UNL     1      -0.983   3.142  24.700  0.00  0.00    +0.091 C 
BRANCH   7   8
ATOM      8  C   UNL     1      -0.591   2.418  24.662  0.00  0.00    +0.227 A 
ATOM      9  N   UNL     1       0.209   2.308  24.490  0.00  0.00    -0.111 NA
ATOM     10  N   UNL     1       0.365   1.498  24.511  0.00  0.00    -0.107 NA
ATOM     11  C   UNL     1      -0.339   1.107  24.695  0.00  0.00    +0.250 A 
ATOM     12  O   UNL     1      -0.929   1.676  24.788  0.00  0.00    -0.420 OA
BRANCH  11  13
ATOM     13  C   UNL     1      -0.435   0.292  24.772  0.00  0.00    +0.055 A 
ATOM     14  C   UNL     1      -0.795  -0.019  25.446  0.00  0.00    +0.006 A 
ATOM     15  C   UNL     1      -0.892  -0.835  25.524  0.00  0.00    +0.015 A 
ATOM     16  C   UNL     1      -0.628  -1.339  24.926  0.00  0.00    +0.048 A 
ATOM     17  C   UNL     1      -0.268  -1.030  24.253  0.00  0.00    +0.015 A 
ATOM     18  C   UNL     1      -0.171  -0.213  24.176  0.00  0.00    +0.006 A 
BRANCH  16  19
ATOM     19  N   UNL     1      -0.725  -2.156  25.004  0.00  0.00    -0.304 N 
ATOM     20  C   UNL     1      -1.406  -2.519  24.715  0.00  0.00    +0.112 C 
ATOM     21  C   UNL     1      -0.140  -2.607  25.371  0.00  0.00    +0.112 C 
ENDBRANCH  16  19
ENDBRANCH  11  13
ENDBRANCH   7   8
ENDBRANCH   6   7
BRANCH  25  26
ATOM     26  C   UNL     1      -4.238   3.287  24.182  0.00  0.00    +0.076 C 
BRANCH  26  27
ATOM     27  N   UNL     1      -4.760   2.989  24.748  0.00  0.00    -0.272 NA
ATOM     28  C   UNL     1      -4.893   2.176  24.797  0.00  0.00    +0.073 C 
ATOM     29  C   UNL     1      -5.415   1.878  25.362  0.00  0.00    +0.027 C 
ATOM     30  C   UNL     1      -5.803   2.392  25.879  0.00  0.00    +0.083 C 
ATOM     31  C   UNL     1      -5.669   3.205  25.828  0.00  0.00    +0.027 C 
ATOM     32  C   UNL     1      -5.147   3.503  25.263  0.00  0.00    +0.073 C 
BRANCH  30  33
ATOM     33  C   UNL     1      -6.324   2.094  26.443  0.00  0.00    +0.260 C 
ATOM     34  N   UNL     1      -6.868   1.509  26.235  0.00  0.00    -0.088 NA
ATOM     35  O   UNL     1      -6.302   2.380  27.217  0.00  0.00    -0.272 OA
ENDBRANCH  30  33
ENDBRANCH  26  27
ENDBRANCH  25  26
TORSDOF 8
ENDMDL
MODEL 6
REMARK VINA RESULT:      -9.0      2.489      3.568
REMARK  Name = 
REMARK  8 active torsions:
REMARK  status: ('A' for Active; 'I' for Inactive)
REMARK    1  A    between atoms: C_2  and  C_4
REMARK    2  A    between atoms: C_6  and  C_7
REMARK    3  A    between atoms: C_7  and  C_8
REMARK    4  A    between atoms: C_11  and  C_13
REMARK    5  A    between atoms: C_16  and  N_19
REMARK    6  A    between atoms: C_25  and  C_26
REMARK    7  A    between atoms: C_26  and  N_27
REMARK    8  A    between atoms: C_30  and  C_33
REMARK                            x       y       z     vdW  Elec       q    Type
REMARK                         _______ _______ _______ _____ _____    ______ ____
ROOT
ATOM      4  C   UNL     1      -2.726   2.639  23.718  0.00  0.00    +0.006 C 
ATOM      5  C   UNL     1      -1.938   2.790  23.911  0.00  0.00    +0.005 C 
ATOM      6  C   UNL     1      -1.753   3.171  24.620  0.00  0.00    +0.027 C 
ATOM     22  C   UNL     1      -2.355   3.400  25.135  0.00  0.00    -0.048 C 
ATOM     23  C   UNL     1      -2.169   3.780  25.842  0.00  0.00    +0.026 C 
ATOM     24  C   UNL     1      -3.143   3.248  24.941  0.00  0.00    -0.034 C 
ATOM     25  C   UNL     1      -3.328   2.868  24.234  0.00  0.00    +0.037 C 
ENDROOT
BRANCH   4   2
ATOM      1  C   UNL     1      -2.898   1.434  22.970  0.00  0.00    +0.000 C 
ATOM      2  C   UNL     1      -2.910   2.259  23.010  0.00  0.00    +0.000 C 
ATOM      3  C   UNL     1      -3.108   2.701  22.343  0.00  0.00    +0.000 C 
ENDBRANCH   4   2
BRANCH   6   7
ATOM      7  C   UNL     1      -0.965   3.322  24.812  0.00  0.00    +0.091 C 
BRANCH   7   8
ATOM      8  C   UNL     1      -0.413   2.710  24.804  0.00  0.00    +0.227 A 
ATOM      9  N   UNL     1      -0.113   2.319  25.466  0.00  0.00    -0.111 NA
ATOM     10  N   UNL     1       0.421   1.748  25.204  0.00  0.00    -0.107 NA
ATOM     11  C   UNL     1       0.451   1.785  24.380  0.00  0.00    +0.250 A 
ATOM     12  O   UNL     1      -0.065   2.380  24.133  0.00  0.00    -0.420 OA
BRANCH  11  13
ATOM     13  C   UNL     1       0.915   1.312  23.890  0.00  0.00    +0.055 A 
ATOM     14  C   UNL     1       0.649   0.564  23.666  0.00  0.00    +0.006 A 
ATOM     15  C   UNL     1       1.112   0.089  23.176  0.00  0.00    +0.015 A 
ATOM     16  C   UNL     1       1.843   0.364  22.908  0.00  0.00    +0.048 A 
ATOM     17  C   UNL     1       2.111   1.112  23.131  0.00  0.00    +0.015 A 
ATOM     18  C   UNL     1       1.646   1.586  23.622  0.00  0.00    +0.006 A 
BRANCH  16  19
ATOM     19  N   UNL     1       2.307  -0.110  22.417  0.00  0.00    -0.304 N 
ATOM     20  C   UNL     1       2.002  -0.388  21.704  0.00  0.00    +0.112 C 
ATOM     21  C   UNL     1       3.077  -0.306  22.641  0.00  0.00    +0.112 C 
ENDBRANCH  16  19
ENDBRANCH  11  13
ENDBRANCH   7   8
ENDBRANCH   6   7
BRANCH  25  26
ATOM     26  C   UNL     1      -4.115   2.717  24.041  0.00  0.00    +0.076 C 
BRANCH  26  27
ATOM     27  N   UNL     1      -4.661   2.550  24.637  0.00  0.00    -0.272 NA
ATOM     28  C   UNL     1      -5.132   3.153  24.946  0.00  0.00    +0.073 C 
ATOM     29  C   UNL     1      -5.678   2.986  25.542  0.00  0.00    +0.027 C 
ATOM     30  C   UNL     1      -5.753   2.216  25.828  0.00  0.00    +0.083 C 
ATOM     31  C   UNL     1      -5.282   1.613  25.519  0.00  0.00    +0.027 C 
ATOM     32  C   UNL     1      -4.737   1.780  24.923  0.00  0.00    +0.073 C 
BRANCH  30  33
ATOM     33  C   UNL     1      -6.298   2.049  26.423  0.00  0.00    +0.260 C 
ATOM     34  N   UNL     1      -6.903   1.504  26.288  0.00  0.00    -0.088 NA
ATOM     35  O   UNL     1      -6.240   2.426  27.155  0.00  0.00    -0.272 OA
ENDBRANCH  30  33
ENDBRANCH  26  27
ENDBRANCH  25  26
TORSDOF 8
ENDMDL
MODEL 7
REMARK VINA RESULT:      -9.0      1.818      3.206
REMARK  Name = 
REMARK  8 active torsions:
REMARK  status: ('A' for Active; 'I' for Inactive)
REMARK    1  A    between atoms: C_2  and  C_4
REMARK    2  A    between atoms: C_6  and  C_7
REMARK    3  A    between atoms: C_7  and  C_8
REMARK    4  A    between atoms: C_11  and  C_13
REMARK    5  A    between atoms: C_16  and  N_19
REMARK    6  A    between atoms: C_25  and  C_26
REMARK    7  A    between atoms: C_26  and  N_27
REMARK    8  A    between atoms: C_30  and  C_33
REMARK                            x       y       z     vdW  Elec       q    Type
REMARK                         _______ _______ _______ _____ _____    ______ ____
ROOT
ATOM      4  C   UNL     1      -4.908   2.262  25.169  0.00  0.00    +0.006 C 
ATOM      5  C   UNL     1      -4.976   1.498  24.868  0.00  0.00    +0.005 C 
ATOM      6  C   UNL     1      -4.493   1.257  24.243  0.00  0.00    +0.027 C 
ATOM     22  C   UNL     1      -3.943   1.781  23.920  0.00  0.00    -0.048 C 
ATOM     23  C   UNL     1      -3.461   1.540  23.297  0.00  0.00    +0.026 C 
ATOM     24  C   UNL     1      -3.876   2.545  24.223  0.00  0.00    -0.034 C 
ATOM     25  C   UNL     1      -4.358   2.786  24.847  0.00  0.00    +0.037 C 
ENDROOT
BRANCH   4   2
ATOM      1  C   UNL     1      -6.035   2.999  25.649  0.00  0.00    +0.000 C 
ATOM      2  C   UNL     1      -5.391   2.503  25.793  0.00  0.00    +0.000 C 
ATOM      3  C   UNL     1      -5.230   2.248  26.561  0.00  0.00    +0.000 C 
ENDBRANCH   4   2
BRANCH   6   7
ATOM      7  C   UNL     1      -4.561   0.492  23.941  0.00  0.00    +0.091 C 
BRANCH   7   8
ATOM      8  C   UNL     1      -4.155  -0.130  24.299  0.00  0.00    +0.227 A 
ATOM      9  N   UNL     1      -4.496  -0.758  24.711  0.00  0.00    -0.111 NA
ATOM     10  N   UNL     1      -3.888  -1.251  24.974  0.00  0.00    -0.107 NA
ATOM     11  C   UNL     1      -3.172  -0.926  24.725  0.00  0.00    +0.250 A 
ATOM     12  O   UNL     1      -3.337  -0.234  24.307  0.00  0.00    -0.420 OA
BRANCH  11  13
ATOM     13  C   UNL     1      -2.422  -1.239  24.867  0.00  0.00    +0.055 A 
ATOM     14  C   UNL     1      -2.189  -1.939  24.497  0.00  0.00    +0.006 A 
ATOM     15  C   UNL     1      -1.440  -2.253  24.638  0.00  0.00    +0.015 A 
ATOM     16  C   UNL     1      -0.922  -1.865  25.152  0.00  0.00    +0.048 A 
ATOM     17  C   UNL     1      -1.154  -1.166  25.523  0.00  0.00    +0.015 A 
ATOM     18  C   UNL     1      -1.904  -0.853  25.380  0.00  0.00    +0.006 A 
BRANCH  16  19
ATOM     19  N   UNL     1      -0.172  -2.179  25.294  0.00  0.00    -0.304 N 
ATOM     20  C   UNL     1      -0.090  -2.862  25.749  0.00  0.00    +0.112 C 
ATOM     21  C   UNL     1       0.495  -1.809  24.981  0.00  0.00    +0.112 C 
ENDBRANCH  16  19
ENDBRANCH  11  13
ENDBRANCH   7   8
ENDBRANCH   6   7
BRANCH  25  26
ATOM     26  C   UNL     1      -4.291   3.550  25.149  0.00  0.00    +0.076 C 
BRANCH  26  27
ATOM     27  N   UNL     1      -3.560   3.935  25.140  0.00  0.00    -0.272 NA
ATOM     28  C   UNL     1      -3.369   4.442  24.518  0.00  0.00    +0.073 C 
ATOM     29  C   UNL     1      -2.639   4.826  24.509  0.00  0.00    +0.027 C 
ATOM     30  C   UNL     1      -2.100   4.703  25.123  0.00  0.00    +0.083 C 
ATOM     31  C   UNL     1      -2.293   4.196  25.744  0.00  0.00    +0.027 C 
ATOM     32  C   UNL     1      -3.023   3.812  25.753  0.00  0.00    +0.073 C 
BRANCH  30  33
ATOM     33  C   UNL     1      -1.371   5.087  25.114  0.00  0.00    +0.260 C 
ATOM     34  N   UNL     1      -0.673   4.646  25.097  0.00  0.00    -0.088 NA
ATOM     35  O   UNL     1      -1.338   5.911  25.123  0.00  0.00    -0.272 OA
ENDBRANCH  30  33
ENDBRANCH  26  27
ENDBRANCH  25  26
TORSDOF 8
ENDMDL
MODEL 8
REMARK VINA RESULT:      -8.9      1.619      3.633
REMARK  Name = 
REMARK  8 active torsions:
REMARK  status: ('A' for Active; 'I' for Inactive)
REMARK    1  A    between atoms: C_2  and  C_4
REMARK    2  A    between atoms: C_6  and  C_7
REMARK    3  A    between atoms: C_7  and  C_8
REMARK    4  A    between atoms: C_11  and  C_13
REMARK    5  A    between atoms: C_16  and  N_19
REMARK    6  A    between atoms: C_25  and  C_26
REMARK    7  A    between atoms: C_26  and  N_27
REMARK    8  A    between atoms: C_30  and  C_33
REMARK                            x       y       z     vdW  Elec       q    Type
REMARK                         _______ _______ _______ _____ _____    ______ ____
ROOT
ATOM      4  C   UNL     1      -2.919   3.584  25.357  0.00  0.00    +0.006 C 
ATOM      5  C   UNL     1      -3.682   3.299  25.229  0.00  0.00    +0.005 C 
ATOM      6  C   UNL     1      -3.876   2.949  24.507  0.00  0.00    +0.027 C 
ATOM     22  C   UNL     1      -3.307   2.884  23.914  0.00  0.00    -0.048 C 
ATOM     23  C   UNL     1      -3.500   2.533  23.193  0.00  0.00    +0.026 C 
ATOM     24  C   UNL     1      -2.543   3.169  24.043  0.00  0.00    -0.034 C 
ATOM     25  C   UNL     1      -2.349   3.519  24.764  0.00  0.00    +0.037 C 
ENDROOT
BRANCH   4   2
ATOM      1  C   UNL     1      -2.630   3.466  26.751  0.00  0.00    +0.000 C 
ATOM      2  C   UNL     1      -2.726   3.935  26.078  0.00  0.00    +0.000 C 
ATOM      3  C   UNL     1      -2.629   4.751  26.127  0.00  0.00    +0.000 C 
ENDBRANCH   4   2
BRANCH   6   7
ATOM      7  C   UNL     1      -4.640   2.664  24.380  0.00  0.00    +0.091 C 
BRANCH   7   8
ATOM      8  C   UNL     1      -4.829   1.887  24.580  0.00  0.00    +0.227 A 
ATOM      9  N   UNL     1      -5.546   1.629  24.898  0.00  0.00    -0.111 NA
ATOM     10  N   UNL     1      -5.495   0.813  25.013  0.00  0.00    -0.107 NA
ATOM     11  C   UNL     1      -4.747   0.567  24.765  0.00  0.00    +0.250 A 
ATOM     12  O   UNL     1      -4.336   1.231  24.498  0.00  0.00    -0.420 OA
BRANCH  11  13
ATOM     13  C   UNL     1      -4.461  -0.206  24.782  0.00  0.00    +0.055 A 
ATOM     14  C   UNL     1      -4.608  -0.714  24.149  0.00  0.00    +0.006 A 
ATOM     15  C   UNL     1      -4.322  -1.488  24.165  0.00  0.00    +0.015 A 
ATOM     16  C   UNL     1      -3.888  -1.753  24.815  0.00  0.00    +0.048 A 
ATOM     17  C   UNL     1      -3.740  -1.246  25.449  0.00  0.00    +0.015 A 
ATOM     18  C   UNL     1      -4.027  -0.471  25.431  0.00  0.00    +0.006 A 
BRANCH  16  19
ATOM     19  N   UNL     1      -3.602  -2.527  24.832  0.00  0.00    -0.304 N 
ATOM     20  C   UNL     1      -3.656  -3.001  24.159  0.00  0.00    +0.112 C 
ATOM     21  C   UNL     1      -3.262  -2.826  25.521  0.00  0.00    +0.112 C 
ENDBRANCH  16  19
ENDBRANCH  11  13
ENDBRANCH   7   8
ENDBRANCH   6   7
BRANCH  25  26
ATOM     26  C   UNL     1      -1.587   3.804  24.892  0.00  0.00    +0.076 C 
BRANCH  26  27
ATOM     27  N   UNL     1      -0.933   3.346  24.678  0.00  0.00    -0.272 NA
ATOM     28  C   UNL     1      -0.503   3.534  23.999  0.00  0.00    +0.073 C 
ATOM     29  C   UNL     1       0.149   3.076  23.786  0.00  0.00    +0.027 C 
ATOM     30  C   UNL     1       0.372   2.431  24.252  0.00  0.00    +0.083 C 
ATOM     31  C   UNL     1      -0.059   2.245  24.930  0.00  0.00    +0.027 C 
ATOM     32  C   UNL     1      -0.712   2.703  25.143  0.00  0.00    +0.073 C 
BRANCH  30  33
ATOM     33  C   UNL     1       1.024   1.974  24.038  0.00  0.00    +0.260 C 
ATOM     34  N   UNL     1       0.944   1.157  23.949  0.00  0.00    -0.088 NA
ATOM     35  O   UNL     1       1.756   2.333  23.914  0.00  0.00    -0.272 OA
ENDBRANCH  30  33
ENDBRANCH  26  27
ENDBRANCH  25  26
TORSDOF 8
ENDMDL
