MODEL 1
REMARK VINA RESULT:     -11.0      0.000      0.000
REMARK  Name = 
REMARK  3 active torsions:
REMARK  status: ('A' for Active; 'I' for Inactive)
REMARK    1  A    between atoms: O_2  and  C_3
REMARK    2  A    between atoms: C_6  and  O_7
REMARK    3  A    between atoms: O_7  and  C_8
REMARK                            x       y       z     vdW  Elec       q    Type
REMARK                         _______ _______ _______ _____ _____    ______ ____
ROOT
ATOM      8  C   UNL     1      -3.858   0.925  24.182  0.00  0.00    +0.215 C 
ATOM      9  C   UNL     1      -3.261   0.629  23.695  0.00  0.00    +0.187 C 
ATOM     10  O   UNL     1      -2.662   1.042  23.307  0.00  0.00    -0.348 OA
ATOM     11  C   UNL     1      -2.511   1.854  23.311  0.00  0.00    +0.164 C 
ATOM     12  C   UNL     1      -2.922   2.451  23.703  0.00  0.00    +0.127 C 
ATOM     13  N   UNL     1      -3.586   2.385  24.189  0.00  0.00    -0.258 N 
ATOM     14  C   UNL     1      -4.002   1.706  24.402  0.00  0.00    +0.141 C 
ATOM     15  C   UNL     1      -3.871   3.094  24.503  0.00  0.00    +0.307 C 
ATOM     16  O   UNL     1      -3.495   3.805  24.325  0.00  0.00    -0.252 OA
ATOM     17  N   UNL     1      -4.533   3.089  24.996  0.00  0.00    -0.259 N 
ATOM     18  C   UNL     1      -4.818   3.797  25.310  0.00  0.00    +0.127 C 
ATOM     19  C   UNL     1      -5.480   3.792  25.803  0.00  0.00    +0.164 C 
ATOM     20  O   UNL     1      -5.856   3.080  25.982  0.00  0.00    -0.350 OA
ATOM     21  C   UNL     1      -5.571   2.372  25.668  0.00  0.00    +0.164 C 
ATOM     22  C   UNL     1      -4.909   2.377  25.175  0.00  0.00    +0.127 C 
ENDROOT
BRANCH   8   7
ATOM      7  O   UNL     1      -4.378   0.364  24.490  0.00  0.00    -0.475 OA
BRANCH   7   6
ATOM      3  C   UNL     1      -3.613  -1.959  24.870  0.00  0.00    +0.139 A 
ATOM      4  C   UNL     1      -4.013  -1.765  24.176  0.00  0.00    +0.040 A 
ATOM      5  C   UNL     1      -4.268  -0.991  24.049  0.00  0.00    +0.040 A 
ATOM      6  C   UNL     1      -4.123  -0.411  24.617  0.00  0.00    +0.139 A 
ATOM     23  C   UNL     1      -3.723  -0.605  25.313  0.00  0.00    +0.040 A 
ATOM     24  C   UNL     1      -3.468  -1.378  25.439  0.00  0.00    +0.040 A 
BRANCH   3   2
ATOM      1  C   UNL     1      -2.696  -3.021  24.596  0.00  0.00    +0.252 C 
ATOM      2  O   UNL     1      -3.358  -2.734  24.997  0.00  0.00    -0.471 OA
ENDBRANCH   3   2
ENDBRANCH   7   6
ENDBRANCH   8   7
TORSDOF 3
ENDMDL
MODEL 2
REMARK VINA RESULT:     -10.9      1.213      2.176
REMARK  Name = 
REMARK  3 active torsions:
REMARK  status: ('A' for Active; 'I' for Inactive)
REMARK    1  A    between atoms: O_2  and  C_3
REMARK    2  A    between atoms: C_6  and  O_7
REMARK    3  A    between atoms: O_7  and  C_8
REMARK                            x       y       z     vdW  Elec       q    Type
REMARK                         _______ _______ _______ _____ _____    ______ ____
ROOT
ATOM      8  C   UNL     1      -4.059   1.385  24.722  0.00  0.00    +0.215 C 
ATOM      9  C   UNL     1      -4.833   1.106  24.782  0.00  0.00    +0.187 C 
ATOM     10  O   UNL     1      -5.499   1.494  25.075  0.00  0.00    -0.348 OA
ATOM     11  C   UNL     1      -5.556   2.258  25.381  0.00  0.00    +0.164 C 
ATOM     12  C   UNL     1      -4.961   2.822  25.469  0.00  0.00    +0.127 C 
ATOM     13  N   UNL     1      -4.161   2.761  25.273  0.00  0.00    -0.258 N 
ATOM     14  C   UNL     1      -3.761   2.122  24.941  0.00  0.00    +0.141 C 
ATOM     15  C   UNL     1      -3.703   3.430  25.431  0.00  0.00    +0.307 C 
ATOM     16  O   UNL     1      -4.050   4.099  25.763  0.00  0.00    -0.252 OA
ATOM     17  N   UNL     1      -2.897   3.426  25.255  0.00  0.00    -0.259 N 
ATOM     18  C   UNL     1      -2.438   4.095  25.413  0.00  0.00    +0.127 C 
ATOM     19  C   UNL     1      -1.632   4.091  25.237  0.00  0.00    +0.164 C 
ATOM     20  O   UNL     1      -1.284   3.421  24.905  0.00  0.00    -0.350 OA
ATOM     21  C   UNL     1      -1.743   2.754  24.747  0.00  0.00    +0.164 C 
ATOM     22  C   UNL     1      -2.549   2.757  24.923  0.00  0.00    +0.127 C 
ENDROOT
BRANCH   8   7
ATOM      7  O   UNL     1      -3.512   0.858  24.401  0.00  0.00    -0.475 OA
BRANCH   7   6
ATOM      3  C   UNL     1      -3.699  -1.564  24.878  0.00  0.00    +0.139 A 
ATOM      4  C   UNL     1      -4.002  -1.257  24.175  0.00  0.00    +0.040 A 
ATOM      5  C   UNL     1      -3.939  -0.450  24.016  0.00  0.00    +0.040 A 
ATOM      6  C   UNL     1      -3.574   0.051  24.560  0.00  0.00    +0.139 A 
ATOM     23  C   UNL     1      -3.272  -0.256  25.264  0.00  0.00    +0.040 A 
ATOM     24  C   UNL     1      -3.334  -1.062  25.423  0.00  0.00    +0.040 A 
BRANCH   3   2
ATOM      1  C   UNL     1      -3.427  -2.921  24.520  0.00  0.00    +0.252 C 
ATOM      2  O   UNL     1      -3.762  -2.371  25.037  0.00  0.00    -0.471 OA
ENDBRANCH   3   2
ENDBRANCH   7   6
ENDBRANCH   8   7
TORSDOF 3
ENDMDL
MODEL 3
REMARK VINA RESULT:     -10.1      1.646      4.483
REMARK  Name = 
REMARK  3 active torsions:
REMARK  status: ('A' for Active; 'I' for Inactive)
REMARK    1  A    between atoms: O_2  and  C_3
REMARK    2  A    between atoms: C_6  and  O_7
REMARK    3  A    between atoms: O_7  and  C_8
REMARK                            x       y       z     vdW  Elec       q    Type
REMARK                         _______ _______ _______ _____ _____    ______ ____
ROOT
ATOM      8  C   UNL     1      -2.737   0.679  24.366  0.00  0.00    +0.215 C 
ATOM      9  C   UNL     1      -2.190   1.262  24.573  0.00  0.00    +0.187 C 
ATOM     10  O   UNL     1      -1.458   1.173  24.943  0.00  0.00    -0.348 OA
ATOM     11  C   UNL     1      -1.092   0.480  25.199  0.00  0.00    +0.164 C 
ATOM     12  C   UNL     1      -1.367  -0.296  25.147  0.00  0.00    +0.127 C 
ATOM     13  N   UNL     1      -2.077  -0.570  24.827  0.00  0.00    -0.258 N 
ATOM     14  C   UNL     1      -2.686  -0.136  24.480  0.00  0.00    +0.141 C 
ATOM     15  C   UNL     1      -2.192  -1.387  24.859  0.00  0.00    +0.307 C 
ATOM     16  O   UNL     1      -1.616  -1.871  25.195  0.00  0.00    -0.252 OA
ATOM     17  N   UNL     1      -2.883  -1.717  24.554  0.00  0.00    -0.259 N 
ATOM     18  C   UNL     1      -2.998  -2.534  24.586  0.00  0.00    +0.127 C 
ATOM     19  C   UNL     1      -3.690  -2.865  24.281  0.00  0.00    +0.164 C 
ATOM     20  O   UNL     1      -4.266  -2.379  23.944  0.00  0.00    -0.350 OA
ATOM     21  C   UNL     1      -4.151  -1.564  23.912  0.00  0.00    +0.164 C 
ATOM     22  C   UNL     1      -3.459  -1.233  24.218  0.00  0.00    +0.127 C 
ENDROOT
BRANCH   8   7
ATOM      7  O   UNL     1      -3.424   0.948  23.998  0.00  0.00    -0.475 OA
BRANCH   7   6
ATOM      3  C   UNL     1      -4.490   3.052  24.750  0.00  0.00    +0.139 A 
ATOM      4  C   UNL     1      -3.977   3.056  24.104  0.00  0.00    +0.040 A 
ATOM      5  C   UNL     1      -3.622   2.356  23.853  0.00  0.00    +0.040 A 
ATOM      6  C   UNL     1      -3.779   1.649  24.249  0.00  0.00    +0.139 A 
ATOM     23  C   UNL     1      -4.293   1.644  24.896  0.00  0.00    +0.040 A 
ATOM     24  C   UNL     1      -4.647   2.345  25.146  0.00  0.00    +0.040 A 
BRANCH   3   2
ATOM      1  C   UNL     1      -5.379   3.743  25.630  0.00  0.00    +0.252 C 
ATOM      2  O   UNL     1      -4.845   3.753  25.000  0.00  0.00    -0.471 OA
ENDBRANCH   3   2
ENDBRANCH   7   6
ENDBRANCH   8   7
TORSDOF 3
ENDMDL
MODEL 4
REMARK VINA RESULT:     -10.0      1.964      2.487
REMARK  Name = 
REMARK  3 active torsions:
REMARK  status: ('A' for Active; 'I' for Inactive)
REMARK    1  A    between atoms: O_2  and  C_3
REMARK    2  A    between atoms: C_6  and  O_7
REMARK    3  A    between atoms: O_7  and  C_8
REMARK                            x       y       z     vdW  Elec       q    Type
REMARK                         _______ _______ _______ _____ _____    ______ ____
ROOT
ATOM      8  C   UNL     1      -1.915   0.913  24.824  0.00  0.00    +0.215 C 
ATOM      9  C   UNL     1      -1.534   0.223  24.579  0.00  0.00    +0.187 C 
ATOM     10  O   UNL     1      -0.774   0.136  24.271  0.00  0.00    -0.348 OA
ATOM     11  C   UNL     1      -0.205   0.717  24.133  0.00  0.00    +0.164 C 
ATOM     12  C   UNL     1      -0.257   1.529  24.269  0.00  0.00    +0.127 C 
ATOM     13  N   UNL     1      -0.891   1.960  24.576  0.00  0.00    -0.258 N 
ATOM     14  C   UNL     1      -1.628   1.685  24.823  0.00  0.00    +0.141 C 
ATOM     15  C   UNL     1      -0.770   2.774  24.645  0.00  0.00    +0.307 C 
ATOM     16  O   UNL     1      -0.051   3.105  24.413  0.00  0.00    -0.252 OA
ATOM     17  N   UNL     1      -1.368   3.255  24.945  0.00  0.00    -0.259 N 
ATOM     18  C   UNL     1      -1.247   4.069  25.014  0.00  0.00    +0.127 C 
ATOM     19  C   UNL     1      -1.847   4.550  25.315  0.00  0.00    +0.164 C 
ATOM     20  O   UNL     1      -2.566   4.219  25.546  0.00  0.00    -0.350 OA
ATOM     21  C   UNL     1      -2.686   3.406  25.478  0.00  0.00    +0.164 C 
ATOM     22  C   UNL     1      -2.087   2.924  25.177  0.00  0.00    +0.127 C 
ENDROOT
BRANCH   8   7
ATOM      7  O   UNL     1      -2.683   0.816  25.108  0.00  0.00    -0.475 OA
BRANCH   7   6
ATOM      3  C   UNL     1      -4.065  -1.081  24.323  0.00  0.00    +0.139 A 
ATOM      4  C   UNL     1      -3.999  -0.400  23.863  0.00  0.00    +0.040 A 
ATOM      5  C   UNL     1      -3.539   0.232  24.124  0.00  0.00    +0.040 A 
ATOM      6  C   UNL     1      -3.143   0.183  24.846  0.00  0.00    +0.139 A 
ATOM     23  C   UNL     1      -3.209  -0.499  25.307  0.00  0.00    +0.040 A 
ATOM     24  C   UNL     1      -3.669  -1.130  25.046  0.00  0.00    +0.040 A 
BRANCH   3   2
ATOM      1  C   UNL     1      -4.166  -2.427  23.852  0.00  0.00    +0.252 C 
ATOM      2  O   UNL     1      -4.525  -1.714  24.061  0.00  0.00    -0.471 OA
ENDBRANCH   3   2
ENDBRANCH   7   6
ENDBRANCH   8   7
TORSDOF 3
ENDMDL
MODEL 5
REMARK VINA RESULT:      -9.5      1.944      4.710
REMARK  Name = 
REMARK  3 active torsions:
REMARK  status: ('A' for Active; 'I' for Inactive)
REMARK    1  A    between atoms: O_2  and  C_3
REMARK    2  A    between atoms: C_6  and  O_7
REMARK    3  A    between atoms: O_7  and  C_8
REMARK                            x       y       z     vdW  Elec       q    Type
REMARK                         _______ _______ _______ _____ _____    ______ ____
ROOT
ATOM      8  C   UNL     1      -3.152   0.527  24.582  0.00  0.00    +0.215 C 
ATOM      9  C   UNL     1      -3.871   0.338  24.942  0.00  0.00    +0.187 C 
ATOM     10  O   UNL     1      -4.063  -0.327  25.390  0.00  0.00    -0.348 OA
ATOM     11  C   UNL     1      -3.584  -0.970  25.589  0.00  0.00    +0.164 C 
ATOM     12  C   UNL     1      -2.795  -1.104  25.389  0.00  0.00    +0.127 C 
ATOM     13  N   UNL     1      -2.290  -0.630  24.940  0.00  0.00    -0.258 N 
ATOM     14  C   UNL     1      -2.450   0.096  24.582  0.00  0.00    +0.141 C 
ATOM     15  C   UNL     1      -1.524  -0.920  24.837  0.00  0.00    +0.307 C 
ATOM     16  O   UNL     1      -1.309  -1.641  25.174  0.00  0.00    -0.252 OA
ATOM     17  N   UNL     1      -0.976  -0.489  24.398  0.00  0.00    -0.259 N 
ATOM     18  C   UNL     1      -0.210  -0.779  24.295  0.00  0.00    +0.127 C 
ATOM     19  C   UNL     1       0.339  -0.347  23.856  0.00  0.00    +0.164 C 
ATOM     20  O   UNL     1       0.122   0.375  23.520  0.00  0.00    -0.350 OA
ATOM     21  C   UNL     1      -0.643   0.665  23.623  0.00  0.00    +0.164 C 
ATOM     22  C   UNL     1      -1.192   0.233  24.062  0.00  0.00    +0.127 C 
ENDROOT
BRANCH   8   7
ATOM      7  O   UNL     1      -3.136   1.240  24.169  0.00  0.00    -0.475 OA
BRANCH   7   6
ATOM      3  C   UNL     1      -4.394   3.194  25.020  0.00  0.00    +0.139 A 
ATOM      4  C   UNL     1      -4.742   2.686  24.471  0.00  0.00    +0.040 A 
ATOM      5  C   UNL     1      -4.323   2.036  24.188  0.00  0.00    +0.040 A 
ATOM      6  C   UNL     1      -3.555   1.892  24.453  0.00  0.00    +0.139 A 
ATOM     23  C   UNL     1      -3.206   2.400  25.002  0.00  0.00    +0.040 A 
ATOM     24  C   UNL     1      -3.625   3.050  25.286  0.00  0.00    +0.040 A 
BRANCH   3   2
ATOM      1  C   UNL     1      -5.562   3.742  25.635  0.00  0.00    +0.252 C 
ATOM      2  O   UNL     1      -4.813   3.846  25.304  0.00  0.00    -0.471 OA
ENDBRANCH   3   2
ENDBRANCH   7   6
ENDBRANCH   8   7
TORSDOF 3
ENDMDL
MODEL 6
REMARK VINA RESULT:      -9.4      2.019      4.859
REMARK  Name = 
REMARK  3 active torsions:
REMARK  status: ('A' for Active; 'I' for Inactive)
REMARK    1  A    between atoms: O_2  and  C_3
REMARK    2  A    between atoms: C_6  and  O_7
REMARK    3  A    between atoms: O_7  and  C_8
REMARK                            x       y       z     vdW  Elec       q    Type
REMARK                         _______ _______ _______ _____ _____    ______ ____
ROOT
ATOM      8  C   UNL     1      -2.629   1.221  24.923  0.00  0.00    +0.215 C 
ATOM      9  C   UNL     1      -3.126   1.880  24.923  0.00  0.00    +0.187 C 
ATOM     10  O   UNL     1      -3.941   1.909  24.800  0.00  0.00    -0.348 OA
ATOM     11  C   UNL     1      -4.461   1.286  24.647  0.00  0.00    +0.164 C 
ATOM     12  C   UNL     1      -4.293   0.482  24.578  0.00  0.00    +0.127 C 
ATOM     13  N   UNL     1      -3.564   0.100  24.646  0.00  0.00    -0.258 N 
ATOM     14  C   UNL     1      -2.824   0.430  24.800  0.00  0.00    +0.141 C 
ATOM     15  C   UNL     1      -3.579  -0.719  24.548  0.00  0.00    +0.307 C 
ATOM     16  O   UNL     1      -4.292  -1.103  24.392  0.00  0.00    -0.252 OA
ATOM     17  N   UNL     1      -2.880  -1.153  24.605  0.00  0.00    -0.259 N 
ATOM     18  C   UNL     1      -2.895  -1.973  24.507  0.00  0.00    +0.127 C 
ATOM     19  C   UNL     1      -2.195  -2.407  24.564  0.00  0.00    +0.164 C 
ATOM     20  O   UNL     1      -1.482  -2.022  24.720  0.00  0.00    -0.350 OA
ATOM     21  C   UNL     1      -1.468  -1.204  24.818  0.00  0.00    +0.164 C 
ATOM     22  C   UNL     1      -2.167  -0.769  24.761  0.00  0.00    +0.127 C 
ENDROOT
BRANCH   8   7
ATOM      7  O   UNL     1      -1.831   1.376  25.065  0.00  0.00    -0.475 OA
BRANCH   7   6
ATOM      3  C   UNL     1      -0.990   3.702  25.002  0.00  0.00    +0.139 A 
ATOM      4  C   UNL     1      -1.231   3.370  25.717  0.00  0.00    +0.040 A 
ATOM      5  C   UNL     1      -1.511   2.595  25.738  0.00  0.00    +0.040 A 
ATOM      6  C   UNL     1      -1.551   2.151  25.044  0.00  0.00    +0.139 A 
ATOM     23  C   UNL     1      -1.309   2.484  24.328  0.00  0.00    +0.040 A 
ATOM     24  C   UNL     1      -1.029   3.258  24.307  0.00  0.00    +0.040 A 
BRANCH   3   2
ATOM      1  C   UNL     1      -1.237   5.110  25.045  0.00  0.00    +0.252 C 
ATOM      2  O   UNL     1      -0.709   4.478  24.981  0.00  0.00    -0.471 OA
ENDBRANCH   3   2
ENDBRANCH   7   6
ENDBRANCH   8   7
TORSDOF 3
ENDMDL
