MODEL 1
REMARK VINA RESULT:     -18.4      0.000      0.000
REMARK  Name = 
REMARK  3 active torsions:
REMARK  status: ('A' for Active; 'I' for Inactive)
REMARK    1  A    between atoms: N_9  and  S_11
REMARK    2  A    between atoms: S_11  and  C_14
REMARK    3  A    between atoms: C_22  and  C_23
REMARK                            x       y       z     vdW  Elec       q    Type
REMARK                         _______ _______ _______ _____ _____    ______ ____
ROOT
ATOM      1  O   UNL     1      -3.089   1.004  24.370  0.00  0.00    -0.267 OA
ATOM      2  C   UNL     1      -3.810   1.220  24.711  0.00  0.00    +0.261 A 
ATOM      3  N   UNL     1      -4.039   2.012  24.724  0.00  0.00    -0.299 N 
ATOM      4  C   UNL     1      -4.681   1.636  25.102  0.00  0.00    +0.110 C 
ATOM      5  C   UNL     1      -5.248   2.423  25.289  0.00  0.00    +0.041 C 
ATOM      6  C   UNL     1      -5.821   2.958  25.513  0.00  0.00    +0.011 C 
ATOM      7  C   UNL     1      -5.197   2.969  25.191  0.00  0.00    +0.056 C 
ATOM      8  C   UNL     1      -4.595   3.548  24.807  0.00  0.00    +0.102 C 
ATOM      9  N   UNL     1      -4.026   3.012  24.586  0.00  0.00    -0.155 NA
ATOM     10  C   UNL     1      -4.613   3.019  24.886  0.00  0.00    +0.098 C 
ATOM     19  C   UNL     1      -4.758   2.228  25.064  0.00  0.00    +0.041 A 
ATOM     20  C   UNL     1      -5.248   1.651  25.391  0.00  0.00    +0.013 A 
ATOM     21  C   UNL     1      -5.020   0.859  25.378  0.00  0.00    +0.006 A 
ATOM     22  C   UNL     1      -4.300   0.643  25.038  0.00  0.00    +0.056 A 
ENDROOT
BRANCH  22  23
ATOM     23  C   UNL     1      -4.071  -0.149  25.024  0.00  0.00    +0.005 A 
ATOM     24  C   UNL     1      -3.621  -0.459  25.643  0.00  0.00    +0.000 A 
ATOM     25  C   UNL     1      -3.392  -1.252  25.630  0.00  0.00    +0.000 A 
ATOM     26  C   UNL     1      -3.613  -1.734  24.998  0.00  0.00    +0.000 A 
ATOM     27  C   UNL     1      -3.383  -2.527  24.985  0.00  0.00    +0.000 A 
ATOM     28  C   UNL     1      -3.604  -3.009  24.354  0.00  0.00    +0.000 A 
ATOM     29  C   UNL     1      -4.053  -2.699  23.735  0.00  0.00    +0.000 A 
ATOM     30  C   UNL     1      -4.282  -1.908  23.748  0.00  0.00    +0.000 A 
ATOM     31  C   UNL     1      -4.062  -1.425  24.380  0.00  0.00    +0.000 A 
ATOM     32  C   UNL     1      -4.291  -0.632  24.393  0.00  0.00    +0.000 A 
ENDBRANCH  22  23
BRANCH   9  11
ATOM     11  S   UNL     1      -3.326   2.716  24.266  0.00  0.00    +0.069 S 
ATOM     12  O   UNL     1      -2.953   2.807  24.996  0.00  0.00    -0.152 OA
ATOM     13  O   UNL     1      -3.698   2.625  23.535  0.00  0.00    -0.152 OA
BRANCH  11  14
ATOM     14  C   UNL     1      -2.625   2.420  23.946  0.00  0.00    +0.152 A 
ATOM     15  C   UNL     1      -2.534   2.107  23.188  0.00  0.00    +0.027 A 
ATOM     16  C   UNL     1      -1.745   1.878  23.101  0.00  0.00    +0.009 A 
ATOM     17  C   UNL     1      -1.350   2.050  23.806  0.00  0.00    +0.037 A 
ATOM     18  S   UNL     1      -1.895   2.385  24.328  0.00  0.00    -0.067 S 
ENDBRANCH  11  14
ENDBRANCH   9  11
TORSDOF 3
ENDMDL
MODEL 2
REMARK VINA RESULT:     -16.9      1.732      4.144
REMARK  Name = 
REMARK  3 active torsions:
REMARK  status: ('A' for Active; 'I' for Inactive)
REMARK    1  A    between atoms: N_9  and  S_11
REMARK    2  A    between atoms: S_11  and  C_14
REMARK    3  A    between atoms: C_22  and  C_23
REMARK                            x       y       z     vdW  Elec       q    Type
REMARK                         _______ _______ _______ _____ _____    ______ ____
ROOT
ATOM      1  O   UNL     1      -2.618   0.334  24.872  0.00  0.00    -0.267 OA
ATOM      2  C   UNL     1      -3.193  -0.204  24.622  0.00  0.00    +0.261 A 
ATOM      3  N   UNL     1      -3.014  -1.008  24.580  0.00  0.00    -0.299 N 
ATOM      4  C   UNL     1      -3.810  -0.990  24.328  0.00  0.00    +0.110 C 
ATOM      5  C   UNL     1      -3.954  -1.953  24.162  0.00  0.00    +0.041 C 
ATOM      6  C   UNL     1      -4.229  -2.698  23.982  0.00  0.00    +0.011 C 
ATOM      7  C   UNL     1      -3.633  -2.406  24.209  0.00  0.00    +0.056 C 
ATOM      8  C   UNL     1      -2.774  -2.621  24.456  0.00  0.00    +0.102 C 
ATOM      9  N   UNL     1      -2.503  -1.877  24.635  0.00  0.00    -0.155 NA
ATOM     10  C   UNL     1      -3.055  -2.167  24.423  0.00  0.00    +0.098 C 
ATOM     19  C   UNL     1      -3.587  -1.545  24.330  0.00  0.00    +0.041 A 
ATOM     20  C   UNL     1      -4.340  -1.278  24.123  0.00  0.00    +0.013 A 
ATOM     21  C   UNL     1      -4.519  -0.475  24.166  0.00  0.00    +0.006 A 
ATOM     22  C   UNL     1      -3.945   0.063  24.415  0.00  0.00    +0.056 A 
ENDROOT
BRANCH  22  23
ATOM     23  C   UNL     1      -4.124   0.867  24.458  0.00  0.00    +0.005 A 
ATOM     24  C   UNL     1      -3.826   1.387  23.890  0.00  0.00    +0.000 A 
ATOM     25  C   UNL     1      -4.005   2.191  23.933  0.00  0.00    +0.000 A 
ATOM     26  C   UNL     1      -4.482   2.476  24.543  0.00  0.00    +0.000 A 
ATOM     27  C   UNL     1      -4.661   3.281  24.586  0.00  0.00    +0.000 A 
ATOM     28  C   UNL     1      -5.136   3.565  25.196  0.00  0.00    +0.000 A 
ATOM     29  C   UNL     1      -5.434   3.046  25.763  0.00  0.00    +0.000 A 
ATOM     30  C   UNL     1      -5.255   2.242  25.721  0.00  0.00    +0.000 A 
ATOM     31  C   UNL     1      -4.779   1.957  25.111  0.00  0.00    +0.000 A 
ATOM     32  C   UNL     1      -4.600   1.153  25.068  0.00  0.00    +0.000 A 
ENDBRANCH  22  23
BRANCH   9  11
ATOM     11  S   UNL     1      -1.988  -1.278  24.873  0.00  0.00    +0.069 S 
ATOM     12  O   UNL     1      -2.256  -1.356  25.650  0.00  0.00    -0.152 OA
ATOM     13  O   UNL     1      -1.719  -1.200  24.097  0.00  0.00    -0.152 OA
BRANCH  11  14
ATOM     14  C   UNL     1      -1.472  -0.679  25.112  0.00  0.00    +0.152 A 
ATOM     15  C   UNL     1      -1.412  -0.366  25.872  0.00  0.00    +0.027 A 
ATOM     16  C   UNL     1      -0.829   0.218  25.862  0.00  0.00    +0.009 A 
ATOM     17  C   UNL     1      -0.529   0.265  25.094  0.00  0.00    +0.037 A 
ATOM     18  S   UNL     1      -0.927  -0.290  24.630  0.00  0.00    -0.067 S 
ENDBRANCH  11  14
ENDBRANCH   9  11
TORSDOF 3
ENDMDL
MODEL 3
REMARK VINA RESULT:     -16.3      1.053      2.328
REMARK  Name = 
REMARK  3 active torsions:
REMARK  status: ('A' for Active; 'I' for Inactive)
REMARK    1  A    between atoms: N_9  and  S_11
REMARK    2  A    between atoms: S_11  and  C_14
REMARK    3  A    between atoms: C_22  and  C_23
REMARK                            x       y       z     vdW  Elec       q    Type
REMARK                         _______ _______ _______ _____ _____    ______ ____
ROOT
ATOM      1  O   UNL     1      -4.360   1.151  25.104  0.00  0.00    -0.267 OA
ATOM      2  C   UNL     1      -3.591   1.414  24.958  0.00  0.00    +0.261 A 
ATOM      3  N   UNL     1      -3.436   2.223  24.903  0.00  0.00    -0.299 N 
ATOM      4  C   UNL     1      -2.681   1.888  24.780  0.00  0.00    +0.110 C 
ATOM      5  C   UNL     1      -2.152   2.714  24.657  0.00  0.00    +0.041 C 
ATOM      6  C   UNL     1      -1.586   3.287  24.537  0.00  0.00    +0.011 C 
ATOM      7  C   UNL     1      -2.276   3.258  24.660  0.00  0.00    +0.056 C 
ATOM      8  C   UNL     1      -3.012   3.797  24.772  0.00  0.00    +0.102 C 
ATOM      9  N   UNL     1      -3.574   3.223  24.892  0.00  0.00    -0.155 NA
ATOM     10  C   UNL     1      -2.927   3.269  24.776  0.00  0.00    +0.098 C 
ATOM     19  C   UNL     1      -2.669   2.486  24.757  0.00  0.00    +0.041 A 
ATOM     20  C   UNL     1      -2.056   1.942  24.667  0.00  0.00    +0.013 A 
ATOM     21  C   UNL     1      -2.211   1.134  24.723  0.00  0.00    +0.006 A 
ATOM     22  C   UNL     1      -2.979   0.870  24.869  0.00  0.00    +0.056 A 
ENDROOT
BRANCH  22  23
ATOM     23  C   UNL     1      -3.134   0.061  24.924  0.00  0.00    +0.005 A 
ATOM     24  C   UNL     1      -2.975  -0.342  25.627  0.00  0.00    +0.000 A 
ATOM     25  C   UNL     1      -3.130  -1.150  25.683  0.00  0.00    +0.000 A 
ATOM     26  C   UNL     1      -3.444  -1.556  25.036  0.00  0.00    +0.000 A 
ATOM     27  C   UNL     1      -3.599  -2.364  25.092  0.00  0.00    +0.000 A 
ATOM     28  C   UNL     1      -3.912  -2.769  24.446  0.00  0.00    +0.000 A 
ATOM     29  C   UNL     1      -4.070  -2.366  23.744  0.00  0.00    +0.000 A 
ATOM     30  C   UNL     1      -3.916  -1.559  23.688  0.00  0.00    +0.000 A 
ATOM     31  C   UNL     1      -3.602  -1.153  24.334  0.00  0.00    +0.000 A 
ATOM     32  C   UNL     1      -3.447  -0.344  24.278  0.00  0.00    +0.000 A 
ENDBRANCH  22  23
BRANCH   9  11
ATOM     11  S   UNL     1      -4.310   2.880  25.035  0.00  0.00    +0.069 S 
ATOM     12  O   UNL     1      -4.450   2.841  24.223  0.00  0.00    -0.152 OA
ATOM     13  O   UNL     1      -4.171   2.919  25.847  0.00  0.00    -0.152 OA
BRANCH  11  14
ATOM     14  C   UNL     1      -5.047   2.537  25.178  0.00  0.00    +0.152 A 
ATOM     15  C   UNL     1      -5.552   2.217  24.609  0.00  0.00    +0.027 A 
ATOM     16  C   UNL     1      -6.225   1.936  24.995  0.00  0.00    +0.009 A 
ATOM     17  C   UNL     1      -6.136   2.082  25.802  0.00  0.00    +0.037 A 
ATOM     18  S   UNL     1      -5.407   2.454  25.916  0.00  0.00    -0.067 S 
ENDBRANCH  11  14
ENDBRANCH   9  11
TORSDOF 3
ENDMDL
MODEL 4
REMARK VINA RESULT:     -15.5      1.622      2.155
REMARK  Name = 
REMARK  3 active torsions:
REMARK  status: ('A' for Active; 'I' for Inactive)
REMARK    1  A    between atoms: N_9  and  S_11
REMARK    2  A    between atoms: S_11  and  C_14
REMARK    3  A    between atoms: C_22  and  C_23
REMARK                            x       y       z     vdW  Elec       q    Type
REMARK                         _______ _______ _______ _____ _____    ______ ____
ROOT
ATOM      1  O   UNL     1      -2.743   2.312  25.059  0.00  0.00    -0.267 OA
ATOM      2  C   UNL     1      -3.488   1.960  25.013  0.00  0.00    +0.261 A 
ATOM      3  N   UNL     1      -4.167   2.413  25.137  0.00  0.00    -0.299 N 
ATOM      4  C   UNL     1      -4.484   1.655  24.986  0.00  0.00    +0.110 C 
ATOM      5  C   UNL     1      -5.447   1.859  25.069  0.00  0.00    +0.041 C 
ATOM      6  C   UNL     1      -6.261   1.863  25.102  0.00  0.00    +0.011 C 
ATOM      7  C   UNL     1      -5.737   2.323  25.180  0.00  0.00    +0.056 C 
ATOM      8  C   UNL     1      -5.577   3.209  25.365  0.00  0.00    +0.102 C 
ATOM      9  N   UNL     1      -4.766   3.202  25.331  0.00  0.00    -0.155 NA
ATOM     10  C   UNL     1      -5.270   2.783  25.261  0.00  0.00    +0.098 C 
ATOM     19  C   UNL     1      -4.911   2.061  25.091  0.00  0.00    +0.041 A 
ATOM     20  C   UNL     1      -4.977   1.257  24.920  0.00  0.00    +0.013 A 
ATOM     21  C   UNL     1      -4.300   0.805  24.796  0.00  0.00    +0.006 A 
ATOM     22  C   UNL     1      -3.555   1.156  24.842  0.00  0.00    +0.056 A 
ENDROOT
BRANCH  22  23
ATOM     23  C   UNL     1      -2.876   0.703  24.717  0.00  0.00    +0.005 A 
ATOM     24  C   UNL     1      -2.506   0.709  23.980  0.00  0.00    +0.000 A 
ATOM     25  C   UNL     1      -1.827   0.257  23.855  0.00  0.00    +0.000 A 
ATOM     26  C   UNL     1      -1.519  -0.202  24.468  0.00  0.00    +0.000 A 
ATOM     27  C   UNL     1      -0.841  -0.655  24.344  0.00  0.00    +0.000 A 
ATOM     28  C   UNL     1      -0.533  -1.113  24.956  0.00  0.00    +0.000 A 
ATOM     29  C   UNL     1      -0.903  -1.119  25.693  0.00  0.00    +0.000 A 
ATOM     30  C   UNL     1      -1.581  -0.667  25.817  0.00  0.00    +0.000 A 
ATOM     31  C   UNL     1      -1.889  -0.208  25.205  0.00  0.00    +0.000 A 
ATOM     32  C   UNL     1      -2.568   0.244  25.330  0.00  0.00    +0.000 A 
ENDBRANCH  22  23
BRANCH   9  11
ATOM     11  S   UNL     1      -3.989   3.476  25.359  0.00  0.00    +0.069 S 
ATOM     12  O   UNL     1      -4.017   3.642  24.552  0.00  0.00    -0.152 OA
ATOM     13  O   UNL     1      -3.959   3.311  26.168  0.00  0.00    -0.152 OA
BRANCH  11  14
ATOM     14  C   UNL     1      -3.211   3.751  25.388  0.00  0.00    +0.152 A 
ATOM     15  C   UNL     1      -2.718   3.742  26.049  0.00  0.00    +0.027 A 
ATOM     16  C   UNL     1      -1.992   4.068  25.830  0.00  0.00    +0.009 A 
ATOM     17  C   UNL     1      -2.037   4.280  25.034  0.00  0.00    +0.037 A 
ATOM     18  S   UNL     1      -2.791   4.084  24.760  0.00  0.00    -0.067 S 
ENDBRANCH  11  14
ENDBRANCH   9  11
TORSDOF 3
ENDMDL
MODEL 5
REMARK VINA RESULT:     -15.1      2.379      3.750
REMARK  Name = 
REMARK  3 active torsions:
REMARK  status: ('A' for Active; 'I' for Inactive)
REMARK    1  A    between atoms: N_9  and  S_11
REMARK    2  A    between atoms: S_11  and  C_14
REMARK    3  A    between atoms: C_22  and  C_23
REMARK                            x       y       z     vdW  Elec       q    Type
REMARK                         _______ _______ _______ _____ _____    ______ ____
ROOT
ATOM      1  O   UNL     1      -2.376   2.051  24.953  0.00  0.00    -0.267 OA
ATOM      2  C   UNL     1      -2.339   2.876  24.961  0.00  0.00    +0.261 A 
ATOM      3  N   UNL     1      -1.609   3.255  25.015  0.00  0.00    -0.299 N 
ATOM      4  C   UNL     1      -2.141   3.898  24.982  0.00  0.00    +0.110 C 
ATOM      5  C   UNL     1      -1.499   4.648  25.033  0.00  0.00    +0.041 C 
ATOM      6  C   UNL     1      -1.110   5.362  25.065  0.00  0.00    +0.011 C 
ATOM      7  C   UNL     1      -0.944   4.680  25.072  0.00  0.00    +0.056 C 
ATOM      8  C   UNL     1      -0.221   4.115  25.119  0.00  0.00    +0.102 C 
ATOM      9  N   UNL     1      -0.613   3.404  25.087  0.00  0.00    -0.155 NA
ATOM     10  C   UNL     1      -0.751   4.049  25.081  0.00  0.00    +0.098 C 
ATOM     19  C   UNL     1      -1.572   4.079  25.024  0.00  0.00    +0.041 A 
ATOM     20  C   UNL     1      -2.266   4.523  24.978  0.00  0.00    +0.013 A 
ATOM     21  C   UNL     1      -2.996   4.144  24.923  0.00  0.00    +0.006 A 
ATOM     22  C   UNL     1      -3.033   3.320  24.915  0.00  0.00    +0.056 A 
ENDROOT
BRANCH  22  23
ATOM     23  C   UNL     1      -3.763   2.940  24.861  0.00  0.00    +0.005 A 
ATOM     24  C   UNL     1      -4.003   2.606  24.145  0.00  0.00    +0.000 A 
ATOM     25  C   UNL     1      -4.733   2.226  24.091  0.00  0.00    +0.000 A 
ATOM     26  C   UNL     1      -5.224   2.180  24.753  0.00  0.00    +0.000 A 
ATOM     27  C   UNL     1      -5.955   1.800  24.698  0.00  0.00    +0.000 A 
ATOM     28  C   UNL     1      -6.445   1.753  25.359  0.00  0.00    +0.000 A 
ATOM     29  C   UNL     1      -6.205   2.086  26.075  0.00  0.00    +0.000 A 
ATOM     30  C   UNL     1      -5.476   2.466  26.129  0.00  0.00    +0.000 A 
ATOM     31  C   UNL     1      -4.985   2.513  25.468  0.00  0.00    +0.000 A 
ATOM     32  C   UNL     1      -4.254   2.893  25.522  0.00  0.00    +0.000 A 
ENDBRANCH  22  23
BRANCH   9  11
ATOM     11  S   UNL     1      -0.735   2.589  25.073  0.00  0.00    +0.069 S 
ATOM     12  O   UNL     1      -0.800   2.583  25.895  0.00  0.00    -0.152 OA
ATOM     13  O   UNL     1      -0.669   2.593  24.250  0.00  0.00    -0.152 OA
BRANCH  11  14
ATOM     14  C   UNL     1      -0.856   1.772  25.058  0.00  0.00    +0.152 A 
ATOM     15  C   UNL     1      -1.030   1.297  25.709  0.00  0.00    +0.027 A 
ATOM     16  C   UNL     1      -1.106   0.519  25.444  0.00  0.00    +0.009 A 
ATOM     17  C   UNL     1      -0.980   0.515  24.628  0.00  0.00    +0.037 A 
ATOM     18  S   UNL     1      -0.825   1.290  24.389  0.00  0.00    -0.067 S 
ENDBRANCH  11  14
ENDBRANCH   9  11
TORSDOF 3
ENDMDL
