MODEL 1
REMARK VINA RESULT:     -10.5      0.000      0.000
REMARK  Name = 
REMARK  6 active torsions:
REMARK  status: ('A' for Active; 'I' for Inactive)
REMARK    1  A    between atoms: C_4  and  C_15
REMARK    2  A    between atoms: C_6  and  C_8
REMARK    3  A    between atoms: C_22  and  C_23
REMARK    4  A    between atoms: C_23  and  N_24
REMARK    5  A    between atoms: N_27  and  C_28
REMARK    6  A    between atoms: C_30  and  C_34
REMARK                            x       y       z     vdW  Elec       q    Type
REMARK                         _______ _______ _______ _____ _____    ______ ____
ROOT
ATOM     15  C   UNL     1      -1.639   0.711  24.289  0.00  0.00    +0.056 C 
ATOM     16  C   UNL     1      -1.065   0.434  24.736  0.00  0.00    +0.078 C 
ATOM     17  N   UNL     1      -0.977   0.929  24.081  0.00  0.00    -0.272 NA
ATOM     18  C   UNL     1      -1.937   1.116  23.703  0.00  0.00    +0.072 C 
ATOM     19  C   UNL     1      -2.330   1.402  23.266  0.00  0.00    +0.018 C 
ATOM     20  C   UNL     1      -1.545   1.195  23.647  0.00  0.00    +0.010 C 
ATOM     21  C   UNL     1      -0.831   1.542  23.272  0.00  0.00    +0.018 C 
ATOM     22  C   UNL     1      -0.240   1.293  23.686  0.00  0.00    +0.079 C 
ENDROOT
BRANCH  15   4
ATOM      1  C   UNL     1      -4.229   1.393  25.288  0.00  0.00    +0.074 C 
ATOM      2  C   UNL     1      -3.705   0.832  24.984  0.00  0.00    +0.139 A 
ATOM      3  N   UNL     1      -2.935   1.052  24.788  0.00  0.00    -0.235 NA
ATOM      4  C   UNL     1      -2.411   0.491  24.485  0.00  0.00    +0.063 A 
ATOM      5  C   UNL     1      -2.657  -0.288  24.378  0.00  0.00    +0.034 A 
ATOM      6  C   UNL     1      -3.427  -0.508  24.574  0.00  0.00    +0.084 A 
ATOM      7  N   UNL     1      -3.952   0.052  24.877  0.00  0.00    -0.231 NA
BRANCH   6   8
ATOM      8  C   UNL     1      -3.675  -1.288  24.467  0.00  0.00    +0.024 A 
ATOM      9  C   UNL     1      -3.553  -1.844  25.063  0.00  0.00    +0.036 A 
ATOM     10 BR   UNL     1      -3.184  -1.621  25.766  0.00  0.00    -0.049 Br
ATOM     11  C   UNL     1      -3.800  -2.625  24.957  0.00  0.00    +0.007 A 
ATOM     12  C   UNL     1      -4.169  -2.847  24.253  0.00  0.00    +0.001 A 
ATOM     13  C   UNL     1      -4.291  -2.291  23.657  0.00  0.00    +0.000 A 
ATOM     14  C   UNL     1      -4.044  -1.511  23.764  0.00  0.00    +0.002 A 
ENDBRANCH   6   8
ENDBRANCH  15   4
BRANCH  22  23
ATOM     23  C   UNL     1       0.582   1.330  23.742  0.00  0.00    +0.133 C 
BRANCH  23  24
ATOM     24  N   UNL     1       1.049   0.804  23.312  0.00  0.00    -0.185 NA
ATOM     25  C   UNL     1       1.871   0.872  23.328  0.00  0.00    +0.344 C 
ATOM     26  O   UNL     1       2.226   1.467  23.776  0.00  0.00    -0.249 OA
ATOM     27  N   UNL     1       2.338   0.345  22.898  0.00  0.00    -0.161 NA
BRANCH  27  28
ATOM     28  C   UNL     1       3.160   0.414  22.915  0.00  0.00    +0.076 A 
ATOM     29  C   UNL     1       3.611  -0.133  23.336  0.00  0.00    +0.027 A 
ATOM     30  C   UNL     1       4.433  -0.065  23.353  0.00  0.00    +0.070 A 
ATOM     31  C   UNL     1       4.804   0.552  22.949  0.00  0.00    +0.010 A 
ATOM     32  C   UNL     1       4.353   1.099  22.528  0.00  0.00    +0.002 A 
ATOM     33  C   UNL     1       3.531   1.031  22.511  0.00  0.00    +0.017 A 
BRANCH  30  34
ATOM     34  C   UNL     1       4.884  -0.612  23.774  0.00  0.00    +0.100 C 
ATOM     35  N   UNL     1       5.336  -1.160  24.195  0.00  0.00    -0.191 NA
ENDBRANCH  30  34
ENDBRANCH  27  28
ENDBRANCH  23  24
ENDBRANCH  22  23
TORSDOF 6
ENDMDL
MODEL 2
REMARK VINA RESULT:      -9.9      1.223      2.509
REMARK  Name = 
REMARK  6 active torsions:
REMARK  status: ('A' for Active; 'I' for Inactive)
REMARK    1  A    between atoms: C_4  and  C_15
REMARK    2  A    between atoms: C_6  and  C_8
REMARK    3  A    between atoms: C_22  and  C_23
REMARK    4  A    between atoms: C_23  and  N_24
REMARK    5  A    between atoms: N_27  and  C_28
REMARK    6  A    between atoms: C_30  and  C_34
REMARK                            x       y       z     vdW  Elec       q    Type
REMARK                         _______ _______ _______ _____ _____    ______ ____
ROOT
ATOM     15  C   UNL     1      -1.856   0.871  24.091  0.00  0.00    +0.056 C 
ATOM     16  C   UNL     1      -1.600   1.310  23.501  0.00  0.00    +0.078 C 
ATOM     17  N   UNL     1      -1.132   0.880  24.028  0.00  0.00    -0.272 NA
ATOM     18  C   UNL     1      -1.780   0.401  24.699  0.00  0.00    +0.072 C 
ATOM     19  C   UNL     1      -1.878   0.011  25.214  0.00  0.00    +0.018 C 
ATOM     20  C   UNL     1      -1.390   0.452  24.604  0.00  0.00    +0.010 C 
ATOM     21  C   UNL     1      -0.520   0.357  24.664  0.00  0.00    +0.018 C 
ATOM     22  C   UNL     1      -0.228   0.776  24.097  0.00  0.00    +0.079 C 
ENDROOT
BRANCH  15   4
ATOM      1  C   UNL     1      -4.300  -0.608  23.975  0.00  0.00    +0.074 C 
ATOM      2  C   UNL     1      -3.894   0.091  24.146  0.00  0.00    +0.139 A 
ATOM      3  N   UNL     1      -3.078   0.132  24.033  0.00  0.00    -0.235 NA
ATOM      4  C   UNL     1      -2.673   0.830  24.204  0.00  0.00    +0.063 A 
ATOM      5  C   UNL     1      -3.084   1.487  24.488  0.00  0.00    +0.034 A 
ATOM      6  C   UNL     1      -3.899   1.445  24.601  0.00  0.00    +0.084 A 
ATOM      7  N   UNL     1      -4.305   0.748  24.430  0.00  0.00    -0.231 NA
BRANCH   6   8
ATOM      8  C   UNL     1      -4.311   2.102  24.884  0.00  0.00    +0.024 A 
ATOM      9  C   UNL     1      -4.489   2.728  24.377  0.00  0.00    +0.036 A 
ATOM     10 BR   UNL     1      -4.255   2.697  23.587  0.00  0.00    -0.049 Br
ATOM     11  C   UNL     1      -4.900   3.385  24.660  0.00  0.00    +0.007 A 
ATOM     12  C   UNL     1      -5.134   3.415  25.451  0.00  0.00    +0.001 A 
ATOM     13  C   UNL     1      -4.956   2.789  25.958  0.00  0.00    +0.000 A 
ATOM     14  C   UNL     1      -4.545   2.132  25.675  0.00  0.00    +0.002 A 
ENDBRANCH   6   8
ENDBRANCH  15   4
BRANCH  22  23
ATOM     23  C   UNL     1       0.485   1.002  23.751  0.00  0.00    +0.133 C 
BRANCH  23  24
ATOM     24  N   UNL     1       0.997   0.429  23.450  0.00  0.00    -0.185 NA
ATOM     25  C   UNL     1       1.797   0.602  23.348  0.00  0.00    +0.344 C 
ATOM     26  O   UNL     1       2.086   1.349  23.547  0.00  0.00    -0.249 OA
ATOM     27  N   UNL     1       2.308   0.029  23.046  0.00  0.00    -0.161 NA
BRANCH  27  28
ATOM     28  C   UNL     1       3.109   0.203  22.945  0.00  0.00    +0.076 A 
ATOM     29  C   UNL     1       3.676  -0.179  23.407  0.00  0.00    +0.027 A 
ATOM     30  C   UNL     1       4.476  -0.005  23.305  0.00  0.00    +0.070 A 
ATOM     31  C   UNL     1       4.709   0.551  22.742  0.00  0.00    +0.010 A 
ATOM     32  C   UNL     1       4.142   0.933  22.280  0.00  0.00    +0.002 A 
ATOM     33  C   UNL     1       3.342   0.759  22.381  0.00  0.00    +0.017 A 
BRANCH  30  34
ATOM     34  C   UNL     1       5.043  -0.387  23.767  0.00  0.00    +0.100 C 
ATOM     35  N   UNL     1       5.610  -0.768  24.229  0.00  0.00    -0.191 NA
ENDBRANCH  30  34
ENDBRANCH  27  28
ENDBRANCH  23  24
ENDBRANCH  22  23
TORSDOF 6
ENDMDL
MODEL 3
REMARK VINA RESULT:      -9.1      2.546      2.893
REMARK  Name = 
REMARK  6 active torsions:
REMARK  status: ('A' for Active; 'I' for Inactive)
REMARK    1  A    between atoms: C_4  and  C_15
REMARK    2  A    between atoms: C_6  and  C_8
REMARK    3  A    between atoms: C_22  and  C_23
REMARK    4  A    between atoms: C_23  and  N_24
REMARK    5  A    between atoms: N_27  and  C_28
REMARK    6  A    between atoms: C_30  and  C_34
REMARK                            x       y       z     vdW  Elec       q    Type
REMARK                         _______ _______ _______ _____ _____    ______ ____
ROOT
ATOM     15  C   UNL     1      -1.202   2.525  24.580  0.00  0.00    +0.056 C 
ATOM     16  C   UNL     1      -1.092   2.406  23.819  0.00  0.00    +0.078 C 
ATOM     17  N   UNL     1      -0.614   2.124  24.430  0.00  0.00    -0.272 NA
ATOM     18  C   UNL     1      -1.033   2.458  25.331  0.00  0.00    +0.072 C 
ATOM     19  C   UNL     1      -1.025   2.491  25.983  0.00  0.00    +0.018 C 
ATOM     20  C   UNL     1      -0.727   2.245  25.174  0.00  0.00    +0.010 C 
ATOM     21  C   UNL     1       0.003   1.758  25.163  0.00  0.00    +0.018 C 
ATOM     22  C   UNL     1       0.146   1.619  24.426  0.00  0.00    +0.079 C 
ENDROOT
BRANCH  15   4
ATOM      1  C   UNL     1      -2.315   4.994  25.493  0.00  0.00    +0.074 C 
ATOM      2  C   UNL     1      -2.414   4.209  25.259  0.00  0.00    +0.139 A 
ATOM      3  N   UNL     1      -1.759   3.760  25.037  0.00  0.00    -0.235 NA
ATOM      4  C   UNL     1      -1.858   2.975  24.803  0.00  0.00    +0.063 A 
ATOM      5  C   UNL     1      -2.610   2.639  24.791  0.00  0.00    +0.034 A 
ATOM      6  C   UNL     1      -3.266   3.088  25.013  0.00  0.00    +0.084 A 
ATOM      7  N   UNL     1      -3.168   3.873  25.247  0.00  0.00    -0.231 NA
BRANCH   6   8
ATOM      8  C   UNL     1      -4.019   2.753  25.001  0.00  0.00    +0.024 A 
ATOM      9  C   UNL     1      -4.474   2.784  24.313  0.00  0.00    +0.036 A 
ATOM     10 BR   UNL     1      -4.174   3.150  23.637  0.00  0.00    -0.049 Br
ATOM     11  C   UNL     1      -5.228   2.450  24.300  0.00  0.00    +0.007 A 
ATOM     12  C   UNL     1      -5.528   2.084  24.977  0.00  0.00    +0.001 A 
ATOM     13  C   UNL     1      -5.073   2.053  25.664  0.00  0.00    +0.000 A 
ATOM     14  C   UNL     1      -4.319   2.387  25.677  0.00  0.00    +0.002 A 
ENDBRANCH   6   8
ENDBRANCH  15   4
BRANCH  22  23
ATOM     23  C   UNL     1       0.675   1.236  23.923  0.00  0.00    +0.133 C 
BRANCH  23  24
ATOM     24  N   UNL     1       1.427   1.553  23.798  0.00  0.00    -0.185 NA
ATOM     25  C   UNL     1       2.014   1.095  23.444  0.00  0.00    +0.344 C 
ATOM     26  O   UNL     1       1.850   0.320  23.214  0.00  0.00    -0.249 OA
ATOM     27  N   UNL     1       2.766   1.411  23.320  0.00  0.00    -0.161 NA
BRANCH  27  28
ATOM     28  C   UNL     1       3.353   0.952  22.965  0.00  0.00    +0.076 A 
ATOM     29  C   UNL     1       4.022   0.733  23.396  0.00  0.00    +0.027 A 
ATOM     30  C   UNL     1       4.609   0.274  23.041  0.00  0.00    +0.070 A 
ATOM     31  C   UNL     1       4.528   0.035  22.256  0.00  0.00    +0.010 A 
ATOM     32  C   UNL     1       3.859   0.253  21.825  0.00  0.00    +0.002 A 
ATOM     33  C   UNL     1       3.272   0.712  22.180  0.00  0.00    +0.017 A 
BRANCH  30  34
ATOM     34  C   UNL     1       5.278   0.056  23.472  0.00  0.00    +0.100 C 
ATOM     35  N   UNL     1       5.946  -0.164  23.903  0.00  0.00    -0.191 NA
ENDBRANCH  30  34
ENDBRANCH  27  28
ENDBRANCH  23  24
ENDBRANCH  22  23
TORSDOF 6
ENDMDL
MODEL 4
REMARK VINA RESULT:      -8.2      2.626      4.564
REMARK  Name = 
REMARK  6 active torsions:
REMARK  status: ('A' for Active; 'I' for Inactive)
REMARK    1  A    between atoms: C_4  and  C_15
REMARK    2  A    between atoms: C_6  and  C_8
REMARK    3  A    between atoms: C_22  and  C_23
REMARK    4  A    between atoms: C_23  and  N_24
REMARK    5  A    between atoms: N_27  and  C_28
REMARK    6  A    between atoms: C_30  and  C_34
REMARK                            x       y       z     vdW  Elec       q    Type
REMARK                         _______ _______ _______ _____ _____    ______ ____
ROOT
ATOM     15  C   UNL     1      -0.526  -0.241  24.684  0.00  0.00    +0.056 C 
ATOM     16  C   UNL     1      -0.704   0.305  25.209  0.00  0.00    +0.078 C 
ATOM     17  N   UNL     1      -0.243   0.412  24.533  0.00  0.00    -0.272 NA
ATOM     18  C   UNL     1      -0.195  -0.513  24.041  0.00  0.00    +0.072 C 
ATOM     19  C   UNL     1       0.015  -0.882  23.545  0.00  0.00    +0.018 C 
ATOM     20  C   UNL     1      -0.072  -0.128  24.023  0.00  0.00    +0.010 C 
ATOM     21  C   UNL     1       0.335   0.580  23.703  0.00  0.00    +0.018 C 
ATOM     22  C   UNL     1       0.184   1.144  24.195  0.00  0.00    +0.079 C 
ENDROOT
BRANCH  15   4
ATOM      1  C   UNL     1      -0.149  -2.935  25.561  0.00  0.00    +0.074 C 
ATOM      2  C   UNL     1      -0.637  -2.347  25.249  0.00  0.00    +0.139 A 
ATOM      3  N   UNL     1      -0.338  -1.589  25.122  0.00  0.00    -0.235 NA
ATOM      4  C   UNL     1      -0.825  -1.000  24.811  0.00  0.00    +0.063 A 
ATOM      5  C   UNL     1      -1.611  -1.170  24.626  0.00  0.00    +0.034 A 
ATOM      6  C   UNL     1      -1.909  -1.928  24.752  0.00  0.00    +0.084 A 
ATOM      7  N   UNL     1      -1.423  -2.517  25.064  0.00  0.00    -0.231 NA
BRANCH   6   8
ATOM      8  C   UNL     1      -2.695  -2.098  24.568  0.00  0.00    +0.024 A 
ATOM      9  C   UNL     1      -3.296  -1.896  25.096  0.00  0.00    +0.036 A 
ATOM     10 BR   UNL     1      -3.111  -1.524  25.808  0.00  0.00    -0.049 Br
ATOM     11  C   UNL     1      -4.082  -2.066  24.912  0.00  0.00    +0.007 A 
ATOM     12  C   UNL     1      -4.267  -2.439  24.199  0.00  0.00    +0.001 A 
ATOM     13  C   UNL     1      -3.667  -2.641  23.672  0.00  0.00    +0.000 A 
ATOM     14  C   UNL     1      -2.880  -2.471  23.856  0.00  0.00    +0.002 A 
ENDBRANCH   6   8
ENDBRANCH  15   4
BRANCH  22  23
ATOM     23  C   UNL     1       0.324   1.944  24.337  0.00  0.00    +0.133 C 
BRANCH  23  24
ATOM     24  N   UNL     1      -0.170   2.514  24.003  0.00  0.00    -0.185 NA
ATOM     25  C   UNL     1      -0.512   3.094  24.479  0.00  0.00    +0.344 C 
ATOM     26  O   UNL     1      -0.360   3.104  25.290  0.00  0.00    -0.249 OA
ATOM     27  N   UNL     1      -1.006   3.664  24.146  0.00  0.00    -0.161 NA
BRANCH  27  28
ATOM     28  C   UNL     1      -1.348   4.244  24.623  0.00  0.00    +0.076 A 
ATOM     29  C   UNL     1      -2.013   4.066  25.077  0.00  0.00    +0.027 A 
ATOM     30  C   UNL     1      -2.355   4.646  25.554  0.00  0.00    +0.070 A 
ATOM     31  C   UNL     1      -2.032   5.405  25.577  0.00  0.00    +0.010 A 
ATOM     32  C   UNL     1      -1.367   5.583  25.122  0.00  0.00    +0.002 A 
ATOM     33  C   UNL     1      -1.025   5.003  24.645  0.00  0.00    +0.017 A 
BRANCH  30  34
ATOM     34  C   UNL     1      -3.020   4.467  26.009  0.00  0.00    +0.100 C 
ATOM     35  N   UNL     1      -3.685   4.288  26.463  0.00  0.00    -0.191 NA
ENDBRANCH  30  34
ENDBRANCH  27  28
ENDBRANCH  23  24
ENDBRANCH  22  23
TORSDOF 6
ENDMDL
MODEL 5
REMARK VINA RESULT:      -8.1      3.920      6.012
REMARK  Name = 
REMARK  6 active torsions:
REMARK  status: ('A' for Active; 'I' for Inactive)
REMARK    1  A    between atoms: C_4  and  C_15
REMARK    2  A    between atoms: C_6  and  C_8
REMARK    3  A    between atoms: C_22  and  C_23
REMARK    4  A    between atoms: C_23  and  N_24
REMARK    5  A    between atoms: N_27  and  C_28
REMARK    6  A    between atoms: C_30  and  C_34
REMARK                            x       y       z     vdW  Elec       q    Type
REMARK                         _______ _______ _______ _____ _____    ______ ____
ROOT
ATOM     15  C   UNL     1      -3.846   2.632  25.376  0.00  0.00    +0.056 C 
ATOM     16  C   UNL     1      -3.596   1.939  25.627  0.00  0.00    +0.078 C 
ATOM     17  N   UNL     1      -4.247   2.074  25.138  0.00  0.00    -0.272 NA
ATOM     18  C   UNL     1      -4.311   3.110  24.988  0.00  0.00    +0.072 C 
ATOM     19  C   UNL     1      -4.607   3.628  24.721  0.00  0.00    +0.018 C 
ATOM     20  C   UNL     1      -4.486   2.757  24.896  0.00  0.00    +0.010 C 
ATOM     21  C   UNL     1      -5.062   2.206  24.529  0.00  0.00    +0.018 C 
ATOM     22  C   UNL     1      -4.850   1.508  24.753  0.00  0.00    +0.079 C 
ENDROOT
BRANCH  15   4
ATOM      1  C   UNL     1      -3.587   4.916  27.075  0.00  0.00    +0.074 C 
ATOM      2  C   UNL     1      -3.292   4.439  26.469  0.00  0.00    +0.139 A 
ATOM      3  N   UNL     1      -3.716   3.775  26.225  0.00  0.00    -0.235 NA
ATOM      4  C   UNL     1      -3.422   3.297  25.620  0.00  0.00    +0.063 A 
ATOM      5  C   UNL     1      -2.705   3.484  25.258  0.00  0.00    +0.034 A 
ATOM      6  C   UNL     1      -2.281   4.149  25.502  0.00  0.00    +0.084 A 
ATOM      7  N   UNL     1      -2.575   4.626  26.107  0.00  0.00    -0.231 NA
BRANCH   6   8
ATOM      8  C   UNL     1      -1.564   4.337  25.141  0.00  0.00    +0.024 A 
ATOM      9  C   UNL     1      -0.889   3.893  25.309  0.00  0.00    +0.036 A 
ATOM     10 BR   UNL     1      -0.932   3.261  25.838  0.00  0.00    -0.049 Br
ATOM     11  C   UNL     1      -0.171   4.080  24.948  0.00  0.00    +0.007 A 
ATOM     12  C   UNL     1      -0.128   4.712  24.419  0.00  0.00    +0.001 A 
ATOM     13  C   UNL     1      -0.802   5.156  24.251  0.00  0.00    +0.000 A 
ATOM     14  C   UNL     1      -1.521   4.968  24.612  0.00  0.00    +0.002 A 
ENDBRANCH   6   8
ENDBRANCH  15   4
BRANCH  22  23
ATOM     23  C   UNL     1      -5.050   0.711  24.687  0.00  0.00    +0.133 C 
BRANCH  23  24
ATOM     24  N   UNL     1      -4.671   0.236  24.128  0.00  0.00    -0.185 NA
ATOM     25  C   UNL     1      -4.358  -0.494  24.350  0.00  0.00    +0.344 C 
ATOM     26  O   UNL     1      -4.424  -0.750  25.132  0.00  0.00    -0.249 OA
ATOM     27  N   UNL     1      -3.979  -0.968  23.792  0.00  0.00    -0.161 NA
BRANCH  27  28
ATOM     28  C   UNL     1      -3.666  -1.698  24.014  0.00  0.00    +0.076 A 
ATOM     29  C   UNL     1      -2.879  -1.754  24.256  0.00  0.00    +0.027 A 
ATOM     30  C   UNL     1      -2.567  -2.484  24.479  0.00  0.00    +0.070 A 
ATOM     31  C   UNL     1      -3.041  -3.159  24.460  0.00  0.00    +0.010 A 
ATOM     32  C   UNL     1      -3.827  -3.104  24.219  0.00  0.00    +0.002 A 
ATOM     33  C   UNL     1      -4.140  -2.373  23.996  0.00  0.00    +0.017 A 
BRANCH  30  34
ATOM     34  C   UNL     1      -1.780  -2.539  24.721  0.00  0.00    +0.100 C 
ATOM     35  N   UNL     1      -0.992  -2.594  24.962  0.00  0.00    -0.191 NA
ENDBRANCH  30  34
ENDBRANCH  27  28
ENDBRANCH  23  24
ENDBRANCH  22  23
TORSDOF 6
ENDMDL
MODEL 6
REMARK VINA RESULT:      -8.0      3.067      5.324
REMARK  Name = 
REMARK  6 active torsions:
REMARK  status: ('A' for Active; 'I' for Inactive)
REMARK    1  A    between atoms: C_4  and  C_15
REMARK    2  A    between atoms: C_6  and  C_8
REMARK    3  A    between atoms: C_22  and  C_23
REMARK    4  A    between atoms: C_23  and  N_24
REMARK    5  A    between atoms: N_27  and  C_28
REMARK    6  A    between atoms: C_30  and  C_34
REMARK                            x       y       z     vdW  Elec       q    Type
REMARK                         _______ _______ _______ _____ _____    ______ ____
ROOT
ATOM     15  C   UNL     1      -1.310   2.338  25.024  0.00  0.00    +0.056 C 
ATOM     16  C   UNL     1      -1.505   1.880  24.426  0.00  0.00    +0.078 C 
ATOM     17  N   UNL     1      -0.956   1.703  25.016  0.00  0.00    -0.272 NA
ATOM     18  C   UNL     1      -0.926   2.524  25.668  0.00  0.00    +0.072 C 
ATOM     19  C   UNL     1      -0.688   2.819  26.200  0.00  0.00    +0.018 C 
ATOM     20  C   UNL     1      -0.770   2.157  25.600  0.00  0.00    +0.010 C 
ATOM     21  C   UNL     1      -0.268   1.450  25.734  0.00  0.00    +0.018 C 
ATOM     22  C   UNL     1      -0.431   0.971  25.162  0.00  0.00    +0.079 C 
ENDROOT
BRANCH  15   4
ATOM      1  C   UNL     1      -1.183   5.194  24.975  0.00  0.00    +0.074 C 
ATOM      2  C   UNL     1      -1.622   4.499  25.052  0.00  0.00    +0.139 A 
ATOM      3  N   UNL     1      -1.247   3.766  24.999  0.00  0.00    -0.235 NA
ATOM      4  C   UNL     1      -1.686   3.072  25.077  0.00  0.00    +0.063 A 
ATOM      5  C   UNL     1      -2.499   3.110  25.206  0.00  0.00    +0.034 A 
ATOM      6  C   UNL     1      -2.874   3.843  25.258  0.00  0.00    +0.084 A 
ATOM      7  N   UNL     1      -2.436   4.537  25.181  0.00  0.00    -0.231 NA
BRANCH   6   8
ATOM      8  C   UNL     1      -3.688   3.882  25.388  0.00  0.00    +0.024 A 
ATOM      9  C   UNL     1      -4.208   3.880  24.747  0.00  0.00    +0.036 A 
ATOM     10 BR   UNL     1      -3.914   3.838  23.977  0.00  0.00    -0.049 Br
ATOM     11  C   UNL     1      -5.022   3.919  24.875  0.00  0.00    +0.007 A 
ATOM     12  C   UNL     1      -5.316   3.960  25.646  0.00  0.00    +0.001 A 
ATOM     13  C   UNL     1      -4.796   3.963  26.285  0.00  0.00    +0.000 A 
ATOM     14  C   UNL     1      -3.982   3.924  26.157  0.00  0.00    +0.002 A 
ENDBRANCH   6   8
ENDBRANCH  15   4
BRANCH  22  23
ATOM     23  C   UNL     1      -0.243   0.229  24.857  0.00  0.00    +0.133 C 
BRANCH  23  24
ATOM     24  N   UNL     1      -0.537  -0.452  25.218  0.00  0.00    -0.185 NA
ATOM     25  C   UNL     1      -1.027  -0.964  24.797  0.00  0.00    +0.344 C 
ATOM     26  O   UNL     1      -1.224  -0.795  24.014  0.00  0.00    -0.249 OA
ATOM     27  N   UNL     1      -1.321  -1.645  25.158  0.00  0.00    -0.161 NA
BRANCH  27  28
ATOM     28  C   UNL     1      -1.812  -2.157  24.736  0.00  0.00    +0.076 A 
ATOM     29  C   UNL     1      -2.611  -1.975  24.638  0.00  0.00    +0.027 A 
ATOM     30  C   UNL     1      -3.102  -2.487  24.216  0.00  0.00    +0.070 A 
ATOM     31  C   UNL     1      -2.794  -3.180  23.892  0.00  0.00    +0.010 A 
ATOM     32  C   UNL     1      -1.995  -3.362  23.990  0.00  0.00    +0.002 A 
ATOM     33  C   UNL     1      -1.504  -2.850  24.412  0.00  0.00    +0.017 A 
BRANCH  30  34
ATOM     34  C   UNL     1      -3.900  -2.305  24.118  0.00  0.00    +0.100 C 
ATOM     35  N   UNL     1      -4.699  -2.123  24.019  0.00  0.00    -0.191 NA
ENDBRANCH  30  34
ENDBRANCH  27  28
ENDBRANCH  23  24
ENDBRANCH  22  23
TORSDOF 6
ENDMDL
