REMARK  Name = 
REMARK  7 active torsions:
REMARK  status: ('A' for Active; 'I' for Inactive)
REMARK    1  A    between atoms: O_2  and  C_3
REMARK    2  A    between atoms: C_6  and  N_7
REMARK    3  A    between atoms: C_8  and  O_10
REMARK    4  A    between atoms: O_10  and  C_11
REMARK    5  A    between atoms: C_15  and  N_19
REMARK    6  A    between atoms: N_19  and  S_20
REMARK    7  A    between atoms: S_20  and  C_23
REMARK                            x       y       z     vdW  Elec       q    Type
REMARK                         _______ _______ _______ _____ _____    ______ ____
ROOT
ATOM     11  C   UNL     1      -1.694   3.875   0.000  0.00  0.00    +0.229 C 
ATOM     12  C   UNL     1      -0.940   4.210   0.000  0.00  0.00    +0.188 C 
ATOM     13  O   UNL     1      -0.388   3.598   0.000  0.00  0.00    -0.348 OA
ATOM     14  C   UNL     1      -0.801   2.883   0.000  0.00  0.00    +0.166 C 
ATOM     15  C   UNL     1      -0.715   2.062   0.000  0.00  0.00    +0.157 C 
ATOM     16  C   UNL     1      -1.468   1.727   0.000  0.00  0.00    +0.164 C 
ATOM     17  O   UNL     1      -2.020   2.340   0.000  0.00  0.00    -0.348 OA
ATOM     18  C   UNL     1      -1.608   3.054   0.000  0.00  0.00    +0.186 C 
ENDROOT
BRANCH  11  10
ATOM     10  O   UNL     1      -2.408   4.287   0.000  0.00  0.00    -0.432 OA
BRANCH  10   8
ATOM      7  N   UNL     1      -3.123   5.525   0.000  0.00  0.00    -0.142 NA
ATOM      8  C   UNL     1      -2.408   5.112   0.000  0.00  0.00    +0.425 C 
ATOM      9  O   UNL     1      -1.694   5.525   0.000  0.00  0.00    -0.224 OA
BRANCH   7   6
ATOM      3  C   UNL     1      -3.123   8.000   0.000  0.00  0.00    +0.139 A 
ATOM      4  C   UNL     1      -2.408   7.588   0.000  0.00  0.00    +0.038 A 
ATOM      5  C   UNL     1      -2.408   6.763   0.000  0.00  0.00    +0.020 A 
ATOM      6  C   UNL     1      -3.123   6.350   0.000  0.00  0.00    +0.077 A 
ATOM     33  C   UNL     1      -3.837   6.763   0.000  0.00  0.00    +0.020 A 
ATOM     34  C   UNL     1      -3.837   7.588   0.000  0.00  0.00    +0.038 A 
BRANCH   3   2
ATOM      1  C   UNL     1      -3.837   9.238   0.000  0.00  0.00    +0.252 C 
ATOM      2  O   UNL     1      -3.123   8.825   0.000  0.00  0.00    -0.471 OA
ENDBRANCH   3   2
ENDBRANCH   7   6
ENDBRANCH  10   8
ENDBRANCH  11  10
BRANCH  15  19
ATOM     19  N   UNL     1       0.000   1.650   0.000  0.00  0.00    -0.074 NA
BRANCH  19  20
ATOM     20  S   UNL     1       0.000   0.825   0.000  0.00  0.00    +0.078 S 
ATOM     21  O   UNL     1      -0.825   0.825   0.000  0.00  0.00    -0.152 OA
ATOM     22  O   UNL     1       0.825   0.825   0.000  0.00  0.00    -0.152 OA
BRANCH  20  23
ATOM     23  C   UNL     1       0.000   0.000   0.000  0.00  0.00    +0.141 A 
ATOM     24  C   UNL     1      -0.715  -0.412   0.000  0.00  0.00    +0.022 A 
ATOM     25  C   UNL     1      -0.715  -1.238   0.000  0.00  0.00    +0.001 A 
ATOM     26  C   UNL     1       0.000  -1.650   0.000  0.00  0.00    +0.002 A 
ATOM     27  C   UNL     1       0.715  -1.238   0.000  0.00  0.00    +0.019 A 
ATOM     28  C   UNL     1       0.715  -0.412   0.000  0.00  0.00    +0.100 A 
ATOM     29  N   UNL     1       1.429   0.000   0.000  0.00  0.00    -0.242 NA
ATOM     30  C   UNL     1       2.143  -0.412   0.000  0.00  0.00    +0.099 A 
ATOM     31  C   UNL     1       2.143  -1.238   0.000  0.00  0.00    +0.021 A 
ATOM     32  C   UNL     1       1.429  -1.650   0.000  0.00  0.00    +0.003 A 
ENDBRANCH  20  23
ENDBRANCH  19  20
ENDBRANCH  15  19
TORSDOF 7
