MODEL 1
REMARK VINA RESULT:      -8.2      0.000      0.000
REMARK  Name = 
REMARK  9 active torsions:
REMARK  status: ('A' for Active; 'I' for Inactive)
REMARK    1  A    between atoms: C_2  and  C_4
REMARK    2  A    between atoms: C_6  and  C_7
REMARK    3  A    between atoms: C_7  and  C_8
REMARK    4  A    between atoms: N_10  and  C_11
REMARK    5  A    between atoms: C_11  and  C_12
REMARK    6  A    between atoms: C_12  and  N_13
REMARK    7  A    between atoms: C_22  and  C_23
REMARK    8  A    between atoms: C_23  and  N_24
REMARK    9  A    between atoms: N_27  and  C_28
REMARK                            x       y       z     vdW  Elec       q    Type
REMARK                         _______ _______ _______ _____ _____    ______ ____
ROOT
ATOM      4  C   UNL     1      -1.012   0.803  24.037  0.00  0.00    +0.006 C 
ATOM      5  C   UNL     1      -1.732   0.469  24.264  0.00  0.00    +0.005 C 
ATOM      6  C   UNL     1      -1.785  -0.341  24.405  0.00  0.00    +0.027 C 
ATOM     19  C   UNL     1      -1.119  -0.819  24.318  0.00  0.00    -0.048 C 
ATOM     20  C   UNL     1      -1.171  -1.630  24.459  0.00  0.00    +0.026 C 
ATOM     21  C   UNL     1      -0.398  -0.487  24.091  0.00  0.00    -0.033 C 
ATOM     22  C   UNL     1      -0.345   0.325  23.950  0.00  0.00    +0.043 C 
ENDROOT
BRANCH   4   2
ATOM      1  C   UNL     1      -0.685   2.119  24.488  0.00  0.00    +0.000 C 
ATOM      2  C   UNL     1      -0.958   1.614  23.896  0.00  0.00    +0.000 C 
ATOM      3  C   UNL     1      -1.177   1.921  23.161  0.00  0.00    +0.000 C 
ENDBRANCH   4   2
BRANCH   6   7
ATOM      7  C   UNL     1      -2.504  -0.674  24.631  0.00  0.00    +0.091 C 
BRANCH   7   8
ATOM      8  C   UNL     1      -3.041  -0.234  25.078  0.00  0.00    +0.242 C 
ATOM      9  O   UNL     1      -2.921  -0.137  25.888  0.00  0.00    -0.273 OA
ATOM     10  N   UNL     1      -3.697   0.109  24.715  0.00  0.00    -0.204 NA
BRANCH  10  11
ATOM     11  C   UNL     1      -4.233   0.549  25.162  0.00  0.00    +0.132 C 
BRANCH  11  12
ATOM     12  C   UNL     1      -4.839   0.965  24.787  0.00  0.00    +0.096 C 
BRANCH  12  13
ATOM     13  N   UNL     1      -5.105   1.681  25.102  0.00  0.00    -0.267 NA
ATOM     14  C   UNL     1      -5.704   1.686  25.667  0.00  0.00    +0.105 C 
ATOM     15  C   UNL     1      -5.970   2.401  25.981  0.00  0.00    +0.159 C 
ATOM     16  O   UNL     1      -5.635   3.112  25.729  0.00  0.00    -0.351 OA
ATOM     17  C   UNL     1      -5.034   3.107  25.162  0.00  0.00    +0.159 C 
ATOM     18  C   UNL     1      -4.770   2.391  24.849  0.00  0.00    +0.105 C 
ENDBRANCH  12  13
ENDBRANCH  11  12
ENDBRANCH  10  11
ENDBRANCH   7   8
ENDBRANCH   6   7
BRANCH  22  23
ATOM     23  C   UNL     1       0.375   0.658  23.723  0.00  0.00    +0.121 C 
BRANCH  23  24
ATOM     24  N   UNL     1       0.912   0.216  23.281  0.00  0.00    -0.187 NA
ATOM     25  C   UNL     1       1.714   0.410  23.291  0.00  0.00    +0.344 C 
ATOM     26  O   UNL     1       1.977   1.048  23.743  0.00  0.00    -0.249 OA
ATOM     27  N   UNL     1       2.252  -0.032  22.849  0.00  0.00    -0.161 NA
BRANCH  27  28
ATOM     28  C   UNL     1       3.053   0.163  22.859  0.00  0.00    +0.075 A 
ATOM     29  C   UNL     1       3.319   0.831  22.456  0.00  0.00    +0.017 A 
ATOM     30  C   UNL     1       4.122   1.027  22.466  0.00  0.00    +0.001 A 
ATOM     31  C   UNL     1       4.656   0.553  22.879  0.00  0.00    +0.000 A 
ATOM     32  C   UNL     1       4.389  -0.115  23.282  0.00  0.00    +0.001 A 
ATOM     33  C   UNL     1       3.588  -0.310  23.272  0.00  0.00    +0.017 A 
ENDBRANCH  27  28
ENDBRANCH  23  24
ENDBRANCH  22  23
TORSDOF 9
ENDMDL
MODEL 2
REMARK VINA RESULT:      -8.1      1.127      6.929
REMARK  Name = 
REMARK  9 active torsions:
REMARK  status: ('A' for Active; 'I' for Inactive)
REMARK    1  A    between atoms: C_2  and  C_4
REMARK    2  A    between atoms: C_6  and  C_7
REMARK    3  A    between atoms: C_7  and  C_8
REMARK    4  A    between atoms: N_10  and  C_11
REMARK    5  A    between atoms: C_11  and  C_12
REMARK    6  A    between atoms: C_12  and  N_13
REMARK    7  A    between atoms: C_22  and  C_23
REMARK    8  A    between atoms: C_23  and  N_24
REMARK    9  A    between atoms: N_27  and  C_28
REMARK                            x       y       z     vdW  Elec       q    Type
REMARK                         _______ _______ _______ _____ _____    ______ ____
ROOT
ATOM      4  C   UNL     1      -0.593   1.413  24.502  0.00  0.00    +0.006 C 
ATOM      5  C   UNL     1      -0.022   0.878  24.242  0.00  0.00    +0.005 C 
ATOM      6  C   UNL     1      -0.240   0.109  24.037  0.00  0.00    +0.027 C 
ATOM     19  C   UNL     1      -1.029  -0.124  24.092  0.00  0.00    -0.048 C 
ATOM     20  C   UNL     1      -1.247  -0.893  23.887  0.00  0.00    +0.026 C 
ATOM     21  C   UNL     1      -1.601   0.410  24.352  0.00  0.00    -0.033 C 
ATOM     22  C   UNL     1      -1.382   1.180  24.557  0.00  0.00    +0.043 C 
ENDROOT
BRANCH   4   2
ATOM      1  C   UNL     1      -0.412   2.786  24.147  0.00  0.00    +0.000 C 
ATOM      2  C   UNL     1      -0.376   2.182  24.708  0.00  0.00    +0.000 C 
ATOM      3  C   UNL     1      -0.122   2.348  25.476  0.00  0.00    +0.000 C 
ENDBRANCH   4   2
BRANCH   6   7
ATOM      7  C   UNL     1       0.331  -0.426  23.777  0.00  0.00    +0.091 C 
BRANCH   7   8
ATOM      8  C   UNL     1       0.896  -0.191  23.223  0.00  0.00    +0.242 C 
ATOM      9  O   UNL     1       0.657   0.084  22.483  0.00  0.00    -0.273 OA
ATOM     10  N   UNL     1       1.698  -0.231  23.408  0.00  0.00    -0.204 NA
BRANCH  10  11
ATOM     11  C   UNL     1       2.262   0.003  22.853  0.00  0.00    +0.132 C 
BRANCH  11  12
ATOM     12  C   UNL     1       2.971  -0.413  22.784  0.00  0.00    +0.096 C 
BRANCH  12  13
ATOM     13  N   UNL     1       3.689  -0.032  22.924  0.00  0.00    -0.267 NA
ATOM     14  C   UNL     1       3.815   0.731  22.636  0.00  0.00    +0.105 C 
ATOM     15  C   UNL     1       4.534   1.112  22.776  0.00  0.00    +0.159 C 
ATOM     16  O   UNL     1       5.126   0.729  23.204  0.00  0.00    -0.351 OA
ATOM     17  C   UNL     1       5.000  -0.034  23.492  0.00  0.00    +0.159 C 
ATOM     18  C   UNL     1       4.282  -0.414  23.352  0.00  0.00    +0.105 C 
ENDBRANCH  12  13
ENDBRANCH  11  12
ENDBRANCH  10  11
ENDBRANCH   7   8
ENDBRANCH   6   7
BRANCH  22  23
ATOM     23  C   UNL     1      -1.954   1.715  24.817  0.00  0.00    +0.121 C 
BRANCH  23  24
ATOM     24  N   UNL     1      -2.706   1.713  24.479  0.00  0.00    -0.187 NA
ATOM     25  C   UNL     1      -3.348   2.017  24.898  0.00  0.00    +0.344 C 
ATOM     26  O   UNL     1      -3.237   2.324  25.655  0.00  0.00    -0.249 OA
ATOM     27  N   UNL     1      -4.101   2.014  24.559  0.00  0.00    -0.161 NA
BRANCH  27  28
ATOM     28  C   UNL     1      -4.742   2.318  24.978  0.00  0.00    +0.075 A 
ATOM     29  C   UNL     1      -4.843   3.135  25.041  0.00  0.00    +0.017 A 
ATOM     30  C   UNL     1      -5.485   3.440  25.461  0.00  0.00    +0.001 A 
ATOM     31  C   UNL     1      -6.026   2.928  25.816  0.00  0.00    +0.000 A 
ATOM     32  C   UNL     1      -5.925   2.112  25.752  0.00  0.00    +0.001 A 
ATOM     33  C   UNL     1      -5.283   1.807  25.334  0.00  0.00    +0.017 A 
ENDBRANCH  27  28
ENDBRANCH  23  24
ENDBRANCH  22  23
TORSDOF 9
ENDMDL
MODEL 3
REMARK VINA RESULT:      -7.2      1.567      2.684
REMARK  Name = 
REMARK  9 active torsions:
REMARK  status: ('A' for Active; 'I' for Inactive)
REMARK    1  A    between atoms: C_2  and  C_4
REMARK    2  A    between atoms: C_6  and  C_7
REMARK    3  A    between atoms: C_7  and  C_8
REMARK    4  A    between atoms: N_10  and  C_11
REMARK    5  A    between atoms: C_11  and  C_12
REMARK    6  A    between atoms: C_12  and  N_13
REMARK    7  A    between atoms: C_22  and  C_23
REMARK    8  A    between atoms: C_23  and  N_24
REMARK    9  A    between atoms: N_27  and  C_28
REMARK                            x       y       z     vdW  Elec       q    Type
REMARK                         _______ _______ _______ _____ _____    ______ ____
ROOT
ATOM      4  C   UNL     1      -1.051   2.149  25.129  0.00  0.00    +0.006 C 
ATOM      5  C   UNL     1      -1.556   2.741  25.405  0.00  0.00    +0.005 C 
ATOM      6  C   UNL     1      -1.384   3.533  25.255  0.00  0.00    +0.027 C 
ATOM     19  C   UNL     1      -0.707   3.735  24.830  0.00  0.00    -0.048 C 
ATOM     20  C   UNL     1      -0.534   4.528  24.680  0.00  0.00    +0.026 C 
ATOM     21  C   UNL     1      -0.201   3.145  24.554  0.00  0.00    -0.033 C 
ATOM     22  C   UNL     1      -0.374   2.351  24.704  0.00  0.00    +0.043 C 
ENDROOT
BRANCH   4   2
ATOM      1  C   UNL     1      -1.717   0.938  24.769  0.00  0.00    +0.000 C 
ATOM      2  C   UNL     1      -1.223   1.356  25.279  0.00  0.00    +0.000 C 
ATOM      3  C   UNL     1      -0.899   0.982  25.940  0.00  0.00    +0.000 C 
ENDBRANCH   4   2
BRANCH   6   7
ATOM      7  C   UNL     1      -1.889   4.124  25.530  0.00  0.00    +0.091 C 
BRANCH   7   8
ATOM      8  C   UNL     1      -2.623   3.924  25.852  0.00  0.00    +0.242 C 
ATOM      9  O   UNL     1      -2.690   3.767  26.659  0.00  0.00    -0.273 OA
ATOM     10  N   UNL     1      -3.288   3.882  25.367  0.00  0.00    -0.204 NA
BRANCH  10  11
ATOM     11  C   UNL     1      -4.022   3.683  25.688  0.00  0.00    +0.132 C 
BRANCH  11  12
ATOM     12  C   UNL     1      -4.680   3.608  25.199  0.00  0.00    +0.096 C 
BRANCH  12  13
ATOM     13  N   UNL     1      -5.183   2.958  25.279  0.00  0.00    -0.267 NA
ATOM     14  C   UNL     1      -5.673   2.894  25.938  0.00  0.00    +0.105 C 
ATOM     15  C   UNL     1      -6.176   2.245  26.018  0.00  0.00    +0.159 C 
ATOM     16  O   UNL     1      -6.188   1.659  25.437  0.00  0.00    -0.351 OA
ATOM     17  C   UNL     1      -5.697   1.723  24.776  0.00  0.00    +0.159 C 
ATOM     18  C   UNL     1      -5.195   2.372  24.698  0.00  0.00    +0.105 C 
ENDBRANCH  12  13
ENDBRANCH  11  12
ENDBRANCH  10  11
ENDBRANCH   7   8
ENDBRANCH   6   7
BRANCH  22  23
ATOM     23  C   UNL     1       0.132   1.760  24.428  0.00  0.00    +0.121 C 
BRANCH  23  24
ATOM     24  N   UNL     1       0.871   1.959  24.123  0.00  0.00    -0.187 NA
ATOM     25  C   UNL     1       1.322   1.391  23.729  0.00  0.00    +0.344 C 
ATOM     26  O   UNL     1       1.032   0.624  23.641  0.00  0.00    -0.249 OA
ATOM     27  N   UNL     1       2.063   1.591  23.425  0.00  0.00    -0.161 NA
BRANCH  27  28
ATOM     28  C   UNL     1       2.512   1.023  23.031  0.00  0.00    +0.075 A 
ATOM     29  C   UNL     1       3.336   1.067  23.046  0.00  0.00    +0.017 A 
ATOM     30  C   UNL     1       3.787   0.498  22.652  0.00  0.00    +0.001 A 
ATOM     31  C   UNL     1       3.413  -0.113  22.244  0.00  0.00    +0.000 A 
ATOM     32  C   UNL     1       2.590  -0.157  22.229  0.00  0.00    +0.001 A 
ATOM     33  C   UNL     1       2.140   0.411  22.622  0.00  0.00    +0.017 A 
ENDBRANCH  27  28
ENDBRANCH  23  24
ENDBRANCH  22  23
TORSDOF 9
ENDMDL
MODEL 4
REMARK VINA RESULT:      -6.9      2.853      5.744
REMARK  Name = 
REMARK  9 active torsions:
REMARK  status: ('A' for Active; 'I' for Inactive)
REMARK    1  A    between atoms: C_2  and  C_4
REMARK    2  A    between atoms: C_6  and  C_7
REMARK    3  A    between atoms: C_7  and  C_8
REMARK    4  A    between atoms: N_10  and  C_11
REMARK    5  A    between atoms: C_11  and  C_12
REMARK    6  A    between atoms: C_12  and  N_13
REMARK    7  A    between atoms: C_22  and  C_23
REMARK    8  A    between atoms: C_23  and  N_24
REMARK    9  A    between atoms: N_27  and  C_28
REMARK                            x       y       z     vdW  Elec       q    Type
REMARK                         _______ _______ _______ _____ _____    ______ ____
ROOT
ATOM      4  C   UNL     1      -4.828   2.118  24.958  0.00  0.00    +0.006 C 
ATOM      5  C   UNL     1      -4.523   2.881  24.885  0.00  0.00    +0.005 C 
ATOM      6  C   UNL     1      -3.947   3.043  24.319  0.00  0.00    +0.027 C 
ATOM     19  C   UNL     1      -3.673   2.442  23.825  0.00  0.00    -0.048 C 
ATOM     20  C   UNL     1      -3.096   2.604  23.258  0.00  0.00    +0.026 C 
ATOM     21  C   UNL     1      -3.976   1.678  23.897  0.00  0.00    -0.033 C 
ATOM     22  C   UNL     1      -4.554   1.516  24.464  0.00  0.00    +0.043 C 
ENDROOT
BRANCH   4   2
ATOM      1  C   UNL     1      -5.186   1.783  26.300  0.00  0.00    +0.000 C 
ATOM      2  C   UNL     1      -5.405   1.955  25.525  0.00  0.00    +0.000 C 
ATOM      3  C   UNL     1      -6.204   1.964  25.314  0.00  0.00    +0.000 C 
ENDBRANCH   4   2
BRANCH   6   7
ATOM      7  C   UNL     1      -3.643   3.806  24.246  0.00  0.00    +0.091 C 
BRANCH   7   8
ATOM      8  C   UNL     1      -3.111   4.095  24.808  0.00  0.00    +0.242 C 
ATOM      9  O   UNL     1      -3.388   4.532  25.451  0.00  0.00    -0.273 OA
ATOM     10  N   UNL     1      -2.305   3.947  24.727  0.00  0.00    -0.204 NA
BRANCH  10  11
ATOM     11  C   UNL     1      -1.773   4.236  25.288  0.00  0.00    +0.132 C 
BRANCH  11  12
ATOM     12  C   UNL     1      -0.963   4.214  25.139  0.00  0.00    +0.096 C 
BRANCH  12  13
ATOM     13  N   UNL     1      -0.522   3.548  25.345  0.00  0.00    -0.267 NA
ATOM     14  C   UNL     1      -0.484   3.304  26.131  0.00  0.00    +0.105 C 
ATOM     15  C   UNL     1      -0.043   2.638  26.337  0.00  0.00    +0.159 C 
ATOM     16  O   UNL     1       0.360   2.215  25.754  0.00  0.00    -0.351 OA
ATOM     17  C   UNL     1       0.322   2.458  24.966  0.00  0.00    +0.159 C 
ATOM     18  C   UNL     1      -0.119   3.125  24.762  0.00  0.00    +0.105 C 
ENDBRANCH  12  13
ENDBRANCH  11  12
ENDBRANCH  10  11
ENDBRANCH   7   8
ENDBRANCH   6   7
BRANCH  22  23
ATOM     23  C   UNL     1      -4.858   0.752  24.537  0.00  0.00    +0.121 C 
BRANCH  23  24
ATOM     24  N   UNL     1      -4.619   0.162  24.013  0.00  0.00    -0.187 NA
ATOM     25  C   UNL     1      -4.338  -0.558  24.302  0.00  0.00    +0.344 C 
ATOM     26  O   UNL     1      -4.297  -0.686  25.116  0.00  0.00    -0.249 OA
ATOM     27  N   UNL     1      -4.099  -1.148  23.779  0.00  0.00    -0.161 NA
BRANCH  27  28
ATOM     28  C   UNL     1      -3.818  -1.867  24.068  0.00  0.00    +0.075 A 
ATOM     29  C   UNL     1      -4.267  -2.553  23.975  0.00  0.00    +0.017 A 
ATOM     30  C   UNL     1      -3.987  -3.273  24.265  0.00  0.00    +0.001 A 
ATOM     31  C   UNL     1      -3.257  -3.306  24.648  0.00  0.00    +0.000 A 
ATOM     32  C   UNL     1      -2.808  -2.621  24.741  0.00  0.00    +0.001 A 
ATOM     33  C   UNL     1      -3.088  -1.902  24.452  0.00  0.00    +0.017 A 
ENDBRANCH  27  28
ENDBRANCH  23  24
ENDBRANCH  22  23
TORSDOF 9
ENDMDL
MODEL 5
REMARK VINA RESULT:      -6.8      1.319      6.742
REMARK  Name = 
REMARK  9 active torsions:
REMARK  status: ('A' for Active; 'I' for Inactive)
REMARK    1  A    between atoms: C_2  and  C_4
REMARK    2  A    between atoms: C_6  and  C_7
REMARK    3  A    between atoms: C_7  and  C_8
REMARK    4  A    between atoms: N_10  and  C_11
REMARK    5  A    between atoms: C_11  and  C_12
REMARK    6  A    between atoms: C_12  and  N_13
REMARK    7  A    between atoms: C_22  and  C_23
REMARK    8  A    between atoms: C_23  and  N_24
REMARK    9  A    between atoms: N_27  and  C_28
REMARK                            x       y       z     vdW  Elec       q    Type
REMARK                         _______ _______ _______ _____ _____    ______ ____
ROOT
ATOM      4  C   UNL     1      -2.818  -1.286  24.807  0.00  0.00    +0.006 C 
ATOM      5  C   UNL     1      -2.017  -1.483  24.841  0.00  0.00    +0.005 C 
ATOM      6  C   UNL     1      -1.471  -0.940  25.135  0.00  0.00    +0.027 C 
ATOM     19  C   UNL     1      -1.725  -0.200  25.397  0.00  0.00    -0.048 C 
ATOM     20  C   UNL     1      -1.179   0.344  25.692  0.00  0.00    +0.026 C 
ATOM     21  C   UNL     1      -2.525  -0.002  25.364  0.00  0.00    -0.033 C 
ATOM     22  C   UNL     1      -3.072  -0.546  25.069  0.00  0.00    +0.043 C 
ENDROOT
BRANCH   4   2
ATOM      1  C   UNL     1      -3.644  -1.757  23.740  0.00  0.00    +0.000 C 
ATOM      2  C   UNL     1      -3.365  -1.829  24.513  0.00  0.00    +0.000 C 
ATOM      3  C   UNL     1      -3.633  -2.446  24.992  0.00  0.00    +0.000 C 
ENDBRANCH   4   2
BRANCH   6   7
ATOM      7  C   UNL     1      -0.671  -1.136  25.169  0.00  0.00    +0.091 C 
BRANCH   7   8
ATOM      8  C   UNL     1      -0.230  -1.196  24.474  0.00  0.00    +0.242 C 
ATOM      9  O   UNL     1      -0.223  -1.904  24.050  0.00  0.00    -0.273 OA
ATOM     10  N   UNL     1       0.202  -0.549  24.202  0.00  0.00    -0.204 NA
BRANCH  10  11
ATOM     11  C   UNL     1       0.642  -0.608  23.507  0.00  0.00    +0.132 C 
BRANCH  11  12
ATOM     12  C   UNL     1       0.876   0.073  23.106  0.00  0.00    +0.096 C 
BRANCH  12  13
ATOM     13  N   UNL     1       1.613   0.103  22.737  0.00  0.00    -0.267 NA
ATOM     14  C   UNL     1       1.714  -0.227  21.988  0.00  0.00    +0.105 C 
ATOM     15  C   UNL     1       2.452  -0.197  21.619  0.00  0.00    +0.159 C 
ATOM     16  O   UNL     1       3.088   0.165  22.000  0.00  0.00    -0.351 OA
ATOM     17  C   UNL     1       2.987   0.496  22.749  0.00  0.00    +0.159 C 
ATOM     18  C   UNL     1       2.250   0.465  23.117  0.00  0.00    +0.105 C 
ENDBRANCH  12  13
ENDBRANCH  11  12
ENDBRANCH  10  11
ENDBRANCH   7   8
ENDBRANCH   6   7
BRANCH  22  23
ATOM     23  C   UNL     1      -3.873  -0.349  25.035  0.00  0.00    +0.121 C 
BRANCH  23  24
ATOM     24  N   UNL     1      -4.114   0.328  24.632  0.00  0.00    -0.187 NA
ATOM     25  C   UNL     1      -4.579   0.892  25.014  0.00  0.00    +0.344 C 
ATOM     26  O   UNL     1      -4.802   0.778  25.800  0.00  0.00    -0.249 OA
ATOM     27  N   UNL     1      -4.821   1.570  24.611  0.00  0.00    -0.161 NA
BRANCH  27  28
ATOM     28  C   UNL     1      -5.286   2.133  24.993  0.00  0.00    +0.075 A 
ATOM     29  C   UNL     1      -6.081   1.977  25.146  0.00  0.00    +0.017 A 
ATOM     30  C   UNL     1      -6.547   2.541  25.529  0.00  0.00    +0.001 A 
ATOM     31  C   UNL     1      -6.216   3.261  25.759  0.00  0.00    +0.000 A 
ATOM     32  C   UNL     1      -5.421   3.417  25.606  0.00  0.00    +0.001 A 
ATOM     33  C   UNL     1      -4.956   2.854  25.224  0.00  0.00    +0.017 A 
ENDBRANCH  27  28
ENDBRANCH  23  24
ENDBRANCH  22  23
TORSDOF 9
ENDMDL
MODEL 6
REMARK VINA RESULT:      -4.9     14.187     16.399
REMARK  Name = 
REMARK  9 active torsions:
REMARK  status: ('A' for Active; 'I' for Inactive)
REMARK    1  A    between atoms: C_2  and  C_4
REMARK    2  A    between atoms: C_6  and  C_7
REMARK    3  A    between atoms: C_7  and  C_8
REMARK    4  A    between atoms: N_10  and  C_11
REMARK    5  A    between atoms: C_11  and  C_12
REMARK    6  A    between atoms: C_12  and  N_13
REMARK    7  A    between atoms: C_22  and  C_23
REMARK    8  A    between atoms: C_23  and  N_24
REMARK    9  A    between atoms: N_27  and  C_28
REMARK                            x       y       z     vdW  Elec       q    Type
REMARK                         _______ _______ _______ _____ _____    ______ ____
ROOT
ATOM      4  C   UNL     1      -6.143 -10.160  14.368  0.00  0.00    +0.006 C 
ATOM      5  C   UNL     1      -5.378 -10.394  14.164  0.00  0.00    +0.005 C 
ATOM      6  C   UNL     1      -4.809 -10.501  14.750  0.00  0.00    +0.027 C 
ATOM     19  C   UNL     1      -5.003 -10.373  15.541  0.00  0.00    -0.048 C 
ATOM     20  C   UNL     1      -4.434 -10.480  16.129  0.00  0.00    +0.026 C 
ATOM     21  C   UNL     1      -5.767 -10.140  15.747  0.00  0.00    -0.033 C 
ATOM     22  C   UNL     1      -6.337 -10.033  15.159  0.00  0.00    +0.043 C 
ENDROOT
BRANCH   4   2
ATOM      1  C   UNL     1      -7.255 -10.653  13.617  0.00  0.00    +0.000 C 
ATOM      2  C   UNL     1      -6.713 -10.053  13.781  0.00  0.00    +0.000 C 
ATOM      3  C   UNL     1      -6.742  -9.344  13.358  0.00  0.00    +0.000 C 
ENDBRANCH   4   2
BRANCH   6   7
ATOM      7  C   UNL     1      -4.045 -10.734  14.545  0.00  0.00    +0.091 C 
BRANCH   7   8
ATOM      8  C   UNL     1      -3.777 -10.640  13.771  0.00  0.00    +0.242 C 
ATOM      9  O   UNL     1      -4.290 -10.775  13.138  0.00  0.00    -0.273 OA
ATOM     10  N   UNL     1      -2.998 -10.411  13.628  0.00  0.00    -0.204 NA
BRANCH  10  11
ATOM     11  C   UNL     1      -2.731 -10.316  12.853  0.00  0.00    +0.132 C 
BRANCH  11  12
ATOM     12  C   UNL     1      -1.924 -10.238  12.702  0.00  0.00    +0.096 C 
BRANCH  12  13
ATOM     13  N   UNL     1      -1.666  -9.815  12.042  0.00  0.00    -0.267 NA
ATOM     14  C   UNL     1      -1.008  -9.322  12.098  0.00  0.00    +0.105 C 
ATOM     15  C   UNL     1      -0.750  -8.899  11.438  0.00  0.00    +0.159 C 
ATOM     16  O   UNL     1      -1.152  -8.970  10.721  0.00  0.00    -0.351 OA
ATOM     17  C   UNL     1      -1.812  -9.463  10.664  0.00  0.00    +0.159 C 
ATOM     18  C   UNL     1      -2.068  -9.886  11.325  0.00  0.00    +0.105 C 
ENDBRANCH  12  13
ENDBRANCH  11  12
ENDBRANCH  10  11
ENDBRANCH   7   8
ENDBRANCH   6   7
BRANCH  22  23
ATOM     23  C   UNL     1      -7.102  -9.799  15.364  0.00  0.00    +0.121 C 
BRANCH  23  24
ATOM     24  N   UNL     1      -7.265  -9.552  16.133  0.00  0.00    -0.187 NA
ATOM     25  C   UNL     1      -8.032  -9.332  16.343  0.00  0.00    +0.344 C 
ATOM     26  O   UNL     1      -8.636  -9.361  15.781  0.00  0.00    -0.249 OA
ATOM     27  N   UNL     1      -8.196  -9.085  17.113  0.00  0.00    -0.161 NA
BRANCH  27  28
ATOM     28  C   UNL     1      -8.963  -8.866  17.321  0.00  0.00    +0.075 A 
ATOM     29  C   UNL     1      -9.234  -8.106  17.153  0.00  0.00    +0.017 A 
ATOM     30  C   UNL     1     -10.003  -7.886  17.362  0.00  0.00    +0.001 A 
ATOM     31  C   UNL     1     -10.498  -8.428  17.738  0.00  0.00    +0.000 A 
ATOM     32  C   UNL     1     -10.226  -9.188  17.906  0.00  0.00    +0.001 A 
ATOM     33  C   UNL     1      -9.459  -9.407  17.698  0.00  0.00    +0.017 A 
ENDBRANCH  27  28
ENDBRANCH  23  24
ENDBRANCH  22  23
TORSDOF 9
ENDMDL
MODEL 7
REMARK VINA RESULT:      -4.5     17.221     17.953
REMARK  Name = 
REMARK  9 active torsions:
REMARK  status: ('A' for Active; 'I' for Inactive)
REMARK    1  A    between atoms: C_2  and  C_4
REMARK    2  A    between atoms: C_6  and  C_7
REMARK    3  A    between atoms: C_7  and  C_8
REMARK    4  A    between atoms: N_10  and  C_11
REMARK    5  A    between atoms: C_11  and  C_12
REMARK    6  A    between atoms: C_12  and  N_13
REMARK    7  A    between atoms: C_22  and  C_23
REMARK    8  A    between atoms: C_23  and  N_24
REMARK    9  A    between atoms: N_27  and  C_28
REMARK                            x       y       z     vdW  Elec       q    Type
REMARK                         _______ _______ _______ _____ _____    ______ ____
ROOT
ATOM      4  C   UNL     1      -6.892  -9.445  10.584  0.00  0.00    +0.006 C 
ATOM      5  C   UNL     1      -7.388  -9.213   9.967  0.00  0.00    +0.005 C 
ATOM      6  C   UNL     1      -7.084  -9.113   9.208  0.00  0.00    +0.027 C 
ATOM     19  C   UNL     1      -6.283  -9.245   9.063  0.00  0.00    -0.048 C 
ATOM     20  C   UNL     1      -5.978  -9.144   8.304  0.00  0.00    +0.026 C 
ATOM     21  C   UNL     1      -5.785  -9.477   9.679  0.00  0.00    -0.033 C 
ATOM     22  C   UNL     1      -6.090  -9.577  10.440  0.00  0.00    +0.043 C 
ENDROOT
BRANCH   4   2
ATOM      1  C   UNL     1      -7.521 -10.270  11.567  0.00  0.00    +0.000 C 
ATOM      2  C   UNL     1      -7.195  -9.546  11.345  0.00  0.00    +0.000 C 
ATOM      3  C   UNL     1      -7.174  -8.920  11.883  0.00  0.00    +0.000 C 
ENDBRANCH   4   2
BRANCH   6   7
ATOM      7  C   UNL     1      -7.581  -8.880   8.592  0.00  0.00    +0.091 C 
BRANCH   7   8
ATOM      8  C   UNL     1      -8.249  -8.423   8.750  0.00  0.00    +0.242 C 
ATOM      9  O   UNL     1      -8.910  -8.768   9.104  0.00  0.00    -0.273 OA
ATOM     10  N   UNL     1      -8.258  -7.622   8.555  0.00  0.00    -0.204 NA
BRANCH  10  11
ATOM     11  C   UNL     1      -8.926  -7.165   8.713  0.00  0.00    +0.132 C 
BRANCH  11  12
ATOM     12  C   UNL     1      -9.247  -6.685   8.124  0.00  0.00    +0.096 C 
BRANCH  12  13
ATOM     13  N   UNL     1      -9.573  -5.953   8.320  0.00  0.00    -0.267 NA
ATOM     14  C   UNL     1      -9.084  -5.331   8.549  0.00  0.00    +0.105 C 
ATOM     15  C   UNL     1      -9.411  -4.599   8.745  0.00  0.00    +0.159 C 
ATOM     16  O   UNL     1     -10.228  -4.490   8.711  0.00  0.00    -0.351 OA
ATOM     17  C   UNL     1     -10.718  -5.113   8.481  0.00  0.00    +0.159 C 
ATOM     18  C   UNL     1     -10.390  -5.844   8.286  0.00  0.00    +0.105 C 
ENDBRANCH  12  13
ENDBRANCH  11  12
ENDBRANCH  10  11
ENDBRANCH   7   8
ENDBRANCH   6   7
BRANCH  22  23
ATOM     23  C   UNL     1      -5.592  -9.810  11.056  0.00  0.00    +0.121 C 
BRANCH  23  24
ATOM     24  N   UNL     1      -4.786  -9.907  10.920  0.00  0.00    -0.187 NA
ATOM     25  C   UNL     1      -4.281 -10.097  11.545  0.00  0.00    +0.344 C 
ATOM     26  O   UNL     1      -4.586 -10.191  12.306  0.00  0.00    -0.249 OA
ATOM     27  N   UNL     1      -3.474 -10.194  11.409  0.00  0.00    -0.161 NA
BRANCH  27  28
ATOM     28  C   UNL     1      -2.971 -10.385  12.033  0.00  0.00    +0.075 A 
ATOM     29  C   UNL     1      -3.259 -10.396  12.806  0.00  0.00    +0.017 A 
ATOM     30  C   UNL     1      -2.755 -10.587  13.432  0.00  0.00    +0.001 A 
ATOM     31  C   UNL     1      -1.964 -10.766  13.284  0.00  0.00    +0.000 A 
ATOM     32  C   UNL     1      -1.676 -10.755  12.511  0.00  0.00    +0.001 A 
ATOM     33  C   UNL     1      -2.179 -10.565  11.886  0.00  0.00    +0.017 A 
ENDBRANCH  27  28
ENDBRANCH  23  24
ENDBRANCH  22  23
TORSDOF 9
ENDMDL
