MODEL 1
REMARK VINA RESULT:      -8.7      0.000      0.000
REMARK  Name = 
REMARK  6 active torsions:
REMARK  status: ('A' for Active; 'I' for Inactive)
REMARK    1  A    between atoms: C_2  and  N_4
REMARK    2  A    between atoms: N_7  and  C_8
REMARK    3  A    between atoms: C_8  and  C_9
REMARK    4  A    between atoms: C_12  and  N_13
REMARK    5  A    between atoms: N_13  and  C_14
REMARK    6  A    between atoms: C_14  and  C_15
REMARK                            x       y       z     vdW  Elec       q    Type
REMARK                         _______ _______ _______ _____ _____    ______ ____
ROOT
ATOM      9  C   UNL     1      -3.655   2.052  24.515  0.00  0.00    +0.169 C 
ATOM     10  O   UNL     1      -4.249   1.895  25.067  0.00  0.00    -0.350 OA
ATOM     11  C   UNL     1      -4.435   1.093  25.019  0.00  0.00    +0.162 C 
ATOM     12  C   UNL     1      -3.958   0.754  24.438  0.00  0.00    +0.135 C 
ATOM     21  C   UNL     1      -3.476   1.347  24.127  0.00  0.00    +0.199 C 
ATOM     22  O   UNL     1      -2.913   1.250  23.531  0.00  0.00    -0.219 OA
ENDROOT
BRANCH   9   8
ATOM      8  C   UNL     1      -3.304   2.785  24.376  0.00  0.00    +0.149 C 
BRANCH   8   7
ATOM      4  N   UNL     1      -1.935   4.165  25.369  0.00  0.00    -0.189 NA
ATOM      5  C   UNL     1      -2.401   3.814  24.786  0.00  0.00    +0.339 C 
ATOM      6  O   UNL     1      -2.430   4.141  24.029  0.00  0.00    -0.249 OA
ATOM      7  N   UNL     1      -2.838   3.136  24.959  0.00  0.00    -0.185 NA
BRANCH   4   2
ATOM      1  C   UNL     1      -1.843   5.588  25.275  0.00  0.00    +0.023 C 
ATOM      2  C   UNL     1      -1.498   4.843  25.196  0.00  0.00    +0.097 C 
ATOM      3  C   UNL     1      -0.715   4.776  24.944  0.00  0.00    +0.023 C 
ENDBRANCH   4   2
ENDBRANCH   8   7
ENDBRANCH   9   8
BRANCH  12  13
ATOM     13  N   UNL     1      -3.962  -0.039  24.209  0.00  0.00    -0.208 NA
BRANCH  13  14
ATOM     14  C   UNL     1      -4.211  -0.620  24.738  0.00  0.00    +0.134 C 
BRANCH  14  15
ATOM     15  C   UNL     1      -4.011  -1.409  24.608  0.00  0.00    +0.077 A 
ATOM     16  N   UNL     1      -3.513  -1.802  25.136  0.00  0.00    -0.247 NA
ATOM     17  C   UNL     1      -3.313  -2.591  25.005  0.00  0.00    +0.098 A 
ATOM     18  C   UNL     1      -3.611  -2.989  24.346  0.00  0.00    +0.021 A 
ATOM     19  C   UNL     1      -4.109  -2.597  23.819  0.00  0.00    +0.003 A 
ATOM     20  C   UNL     1      -4.309  -1.808  23.949  0.00  0.00    +0.016 A 
ENDBRANCH  14  15
ENDBRANCH  13  14
ENDBRANCH  12  13
TORSDOF 6
ENDMDL
MODEL 2
REMARK VINA RESULT:      -8.2      1.759      5.837
REMARK  Name = 
REMARK  6 active torsions:
REMARK  status: ('A' for Active; 'I' for Inactive)
REMARK    1  A    between atoms: C_2  and  N_4
REMARK    2  A    between atoms: N_7  and  C_8
REMARK    3  A    between atoms: C_8  and  C_9
REMARK    4  A    between atoms: C_12  and  N_13
REMARK    5  A    between atoms: N_13  and  C_14
REMARK    6  A    between atoms: C_14  and  C_15
REMARK                            x       y       z     vdW  Elec       q    Type
REMARK                         _______ _______ _______ _____ _____    ______ ____
ROOT
ATOM      9  C   UNL     1      -1.448   0.339  24.921  0.00  0.00    +0.169 C 
ATOM     10  O   UNL     1      -1.116   0.456  25.668  0.00  0.00    -0.350 OA
ATOM     11  C   UNL     1      -0.931   1.256  25.743  0.00  0.00    +0.162 C 
ATOM     12  C   UNL     1      -1.148   1.634  25.044  0.00  0.00    +0.135 C 
ATOM     21  C   UNL     1      -1.467   1.068  24.536  0.00  0.00    +0.199 C 
ATOM     22  O   UNL     1      -1.756   1.207  23.775  0.00  0.00    -0.219 OA
ENDROOT
BRANCH   9   8
ATOM      8  C   UNL     1      -1.712  -0.379  24.615  0.00  0.00    +0.149 C 
BRANCH   8   7
ATOM      4  N   UNL     1      -3.367  -1.777  24.881  0.00  0.00    -0.189 NA
ATOM      5  C   UNL     1      -2.669  -1.441  24.599  0.00  0.00    +0.339 C 
ATOM      6  O   UNL     1      -2.230  -1.828  24.018  0.00  0.00    -0.249 OA
ATOM      7  N   UNL     1      -2.410  -0.716  24.898  0.00  0.00    -0.185 NA
BRANCH   4   2
ATOM      1  C   UNL     1      -3.366  -3.206  24.924  0.00  0.00    +0.023 C 
ATOM      2  C   UNL     1      -3.626  -2.502  24.583  0.00  0.00    +0.097 C 
ATOM      3  C   UNL     1      -4.146  -2.521  23.943  0.00  0.00    +0.023 C 
ENDBRANCH   4   2
ENDBRANCH   8   7
ENDBRANCH   9   8
BRANCH  12  13
ATOM     13  N   UNL     1      -1.062   2.439  24.881  0.00  0.00    -0.208 NA
BRANCH  13  14
ATOM     14  C   UNL     1      -1.083   2.989  25.494  0.00  0.00    +0.134 C 
BRANCH  14  15
ATOM     15  C   UNL     1      -1.169   3.792  25.326  0.00  0.00    +0.077 A 
ATOM     16  N   UNL     1      -0.566   4.199  24.937  0.00  0.00    -0.247 NA
ATOM     17  C   UNL     1      -0.652   5.001  24.769  0.00  0.00    +0.098 A 
ATOM     18  C   UNL     1      -1.342   5.398  24.989  0.00  0.00    +0.021 A 
ATOM     19  C   UNL     1      -1.945   4.991  25.378  0.00  0.00    +0.003 A 
ATOM     20  C   UNL     1      -1.859   4.188  25.546  0.00  0.00    +0.016 A 
ENDBRANCH  14  15
ENDBRANCH  13  14
ENDBRANCH  12  13
TORSDOF 6
ENDMDL
MODEL 3
REMARK VINA RESULT:      -7.8      1.735      1.932
REMARK  Name = 
REMARK  6 active torsions:
REMARK  status: ('A' for Active; 'I' for Inactive)
REMARK    1  A    between atoms: C_2  and  N_4
REMARK    2  A    between atoms: N_7  and  C_8
REMARK    3  A    between atoms: C_8  and  C_9
REMARK    4  A    between atoms: C_12  and  N_13
REMARK    5  A    between atoms: N_13  and  C_14
REMARK    6  A    between atoms: C_14  and  C_15
REMARK                            x       y       z     vdW  Elec       q    Type
REMARK                         _______ _______ _______ _____ _____    ______ ____
ROOT
ATOM      9  C   UNL     1      -1.019   1.336  24.938  0.00  0.00    +0.169 C 
ATOM     10  O   UNL     1      -0.912   1.015  25.692  0.00  0.00    -0.350 OA
ATOM     11  C   UNL     1      -1.177   0.234  25.677  0.00  0.00    +0.162 C 
ATOM     12  C   UNL     1      -1.447   0.071  24.915  0.00  0.00    +0.135 C 
ATOM     21  C   UNL     1      -1.350   0.752  24.459  0.00  0.00    +0.199 C 
ATOM     22  O   UNL     1      -1.549   0.834  23.662  0.00  0.00    -0.219 OA
ENDROOT
BRANCH   9   8
ATOM      8  C   UNL     1      -0.829   2.104  24.707  0.00  0.00    +0.149 C 
BRANCH   8   7
ATOM      4  N   UNL     1      -1.160   4.139  25.423  0.00  0.00    -0.189 NA
ATOM      5  C   UNL     1      -1.010   3.506  24.916  0.00  0.00    +0.339 C 
ATOM      6  O   UNL     1      -0.892   3.641  24.111  0.00  0.00    -0.249 OA
ATOM      7  N   UNL     1      -0.979   2.737  25.213  0.00  0.00    -0.185 NA
BRANCH   4   2
ATOM      1  C   UNL     1      -0.517   5.252  24.800  0.00  0.00    +0.023 C 
ATOM      2  C   UNL     1      -1.192   4.908  25.125  0.00  0.00    +0.097 C 
ATOM      3  C   UNL     1      -1.899   5.332  25.154  0.00  0.00    +0.023 C 
ENDBRANCH   4   2
ENDBRANCH   8   7
ENDBRANCH   9   8
BRANCH  12  13
ATOM     13  N   UNL     1      -1.760  -0.647  24.655  0.00  0.00    -0.208 NA
BRANCH  13  14
ATOM     14  C   UNL     1      -2.246  -1.090  25.153  0.00  0.00    +0.134 C 
BRANCH  14  15
ATOM     15  C   UNL     1      -2.682  -1.721  24.851  0.00  0.00    +0.077 A 
ATOM     16  N   UNL     1      -2.297  -2.403  24.593  0.00  0.00    -0.247 NA
ATOM     17  C   UNL     1      -2.733  -3.034  24.290  0.00  0.00    +0.098 A 
ATOM     18  C   UNL     1      -3.555  -2.983  24.245  0.00  0.00    +0.021 A 
ATOM     19  C   UNL     1      -3.941  -2.300  24.502  0.00  0.00    +0.003 A 
ATOM     20  C   UNL     1      -3.504  -1.670  24.805  0.00  0.00    +0.016 A 
ENDBRANCH  14  15
ENDBRANCH  13  14
ENDBRANCH  12  13
TORSDOF 6
ENDMDL
MODEL 4
REMARK VINA RESULT:      -7.4      3.200      4.488
REMARK  Name = 
REMARK  6 active torsions:
REMARK  status: ('A' for Active; 'I' for Inactive)
REMARK    1  A    between atoms: C_2  and  N_4
REMARK    2  A    between atoms: N_7  and  C_8
REMARK    3  A    between atoms: C_8  and  C_9
REMARK    4  A    between atoms: C_12  and  N_13
REMARK    5  A    between atoms: N_13  and  C_14
REMARK    6  A    between atoms: C_14  and  C_15
REMARK                            x       y       z     vdW  Elec       q    Type
REMARK                         _______ _______ _______ _____ _____    ______ ____
ROOT
ATOM      9  C   UNL     1      -1.372   0.930  23.968  0.00  0.00    +0.169 C 
ATOM     10  O   UNL     1      -1.620   1.472  23.397  0.00  0.00    -0.350 OA
ATOM     11  C   UNL     1      -2.349   1.776  23.634  0.00  0.00    +0.162 C 
ATOM     12  C   UNL     1      -2.552   1.423  24.351  0.00  0.00    +0.135 C 
ATOM     21  C   UNL     1      -1.949   0.900  24.557  0.00  0.00    +0.199 C 
ATOM     22  O   UNL     1      -1.926   0.430  25.235  0.00  0.00    -0.219 OA
ENDROOT
BRANCH   9   8
ATOM      8  C   UNL     1      -0.672   0.495  23.952  0.00  0.00    +0.149 C 
BRANCH   8   7
ATOM      4  N   UNL     1       1.219   0.536  22.863  0.00  0.00    -0.189 NA
ATOM      5  C   UNL     1       0.567   0.254  23.283  0.00  0.00    +0.339 C 
ATOM      6  O   UNL     1       0.504  -0.550  23.454  0.00  0.00    -0.249 OA
ATOM      7  N   UNL     1      -0.021   0.776  23.532  0.00  0.00    -0.185 NA
BRANCH   4   2
ATOM      1  C   UNL     1       1.694  -0.442  21.937  0.00  0.00    +0.023 C 
ATOM      2  C   UNL     1       1.807   0.014  22.614  0.00  0.00    +0.097 C 
ATOM      3  C   UNL     1       2.509  -0.052  23.043  0.00  0.00    +0.023 C 
ENDBRANCH   4   2
ENDBRANCH   8   7
ENDBRANCH   9   8
BRANCH  12  13
ATOM     13  N   UNL     1      -3.239   1.568  24.785  0.00  0.00    -0.208 NA
BRANCH  13  14
ATOM     14  C   UNL     1      -3.835   2.042  24.469  0.00  0.00    +0.134 C 
BRANCH  14  15
ATOM     15  C   UNL     1      -4.512   2.205  24.911  0.00  0.00    +0.077 A 
ATOM     16  N   UNL     1      -4.546   2.881  25.381  0.00  0.00    -0.247 NA
ATOM     17  C   UNL     1      -5.222   3.043  25.824  0.00  0.00    +0.098 A 
ATOM     18  C   UNL     1      -5.867   2.528  25.796  0.00  0.00    +0.021 A 
ATOM     19  C   UNL     1      -5.833   1.851  25.326  0.00  0.00    +0.003 A 
ATOM     20  C   UNL     1      -5.156   1.689  24.884  0.00  0.00    +0.016 A 
ENDBRANCH  14  15
ENDBRANCH  13  14
ENDBRANCH  12  13
TORSDOF 6
ENDMDL
MODEL 5
REMARK VINA RESULT:      -6.0     13.839     14.707
REMARK  Name = 
REMARK  6 active torsions:
REMARK  status: ('A' for Active; 'I' for Inactive)
REMARK    1  A    between atoms: C_2  and  N_4
REMARK    2  A    between atoms: N_7  and  C_8
REMARK    3  A    between atoms: C_8  and  C_9
REMARK    4  A    between atoms: C_12  and  N_13
REMARK    5  A    between atoms: N_13  and  C_14
REMARK    6  A    between atoms: C_14  and  C_15
REMARK                            x       y       z     vdW  Elec       q    Type
REMARK                         _______ _______ _______ _____ _____    ______ ____
ROOT
ATOM      9  C   UNL     1      -6.214 -10.051  16.433  0.00  0.00    +0.169 C 
ATOM     10  O   UNL     1      -5.898 -10.328  17.143  0.00  0.00    -0.350 OA
ATOM     11  C   UNL     1      -5.103 -10.511  17.014  0.00  0.00    +0.162 C 
ATOM     12  C   UNL     1      -4.929 -10.346  16.226  0.00  0.00    +0.135 C 
ATOM     21  C   UNL     1      -5.615 -10.062  15.867  0.00  0.00    +0.199 C 
ATOM     22  O   UNL     1      -5.689  -9.829  15.078  0.00  0.00    -0.219 OA
ENDROOT
BRANCH   9   8
ATOM      8  C   UNL     1      -6.992  -9.806  16.313  0.00  0.00    +0.149 C 
BRANCH   8   7
ATOM      4  N   UNL     1      -8.609  -8.840  17.416  0.00  0.00    -0.189 NA
ATOM      5  C   UNL     1      -8.190  -9.200  16.804  0.00  0.00    +0.339 C 
ATOM      6  O   UNL     1      -8.549  -9.315  16.070  0.00  0.00    -0.249 OA
ATOM      7  N   UNL     1      -7.411  -9.446  16.925  0.00  0.00    -0.185 NA
BRANCH   4   2
ATOM      1  C   UNL     1     -10.009  -9.124  17.406  0.00  0.00    +0.023 C 
ATOM      2  C   UNL     1      -9.387  -8.595  17.296  0.00  0.00    +0.097 C 
ATOM      3  C   UNL     1      -9.543  -7.818  17.064  0.00  0.00    +0.023 C 
ENDBRANCH   4   2
ENDBRANCH   8   7
ENDBRANCH   9   8
BRANCH  12  13
ATOM     13  N   UNL     1      -4.196 -10.448  15.860  0.00  0.00    -0.208 NA
BRANCH  13  14
ATOM     14  C   UNL     1      -3.501 -10.337  16.290  0.00  0.00    +0.134 C 
BRANCH  14  15
ATOM     15  C   UNL     1      -2.770 -10.483  15.937  0.00  0.00    +0.077 A 
ATOM     16  N   UNL     1      -2.699 -10.476  15.116  0.00  0.00    -0.247 NA
ATOM     17  C   UNL     1      -1.968 -10.622  14.763  0.00  0.00    +0.098 A 
ATOM     18  C   UNL     1      -1.307 -10.775  15.233  0.00  0.00    +0.021 A 
ATOM     19  C   UNL     1      -1.378 -10.781  16.054  0.00  0.00    +0.003 A 
ATOM     20  C   UNL     1      -2.109 -10.635  16.407  0.00  0.00    +0.016 A 
ENDBRANCH  14  15
ENDBRANCH  13  14
ENDBRANCH  12  13
TORSDOF 6
ENDMDL
MODEL 6
REMARK VINA RESULT:      -5.8     13.900     15.234
REMARK  Name = 
REMARK  6 active torsions:
REMARK  status: ('A' for Active; 'I' for Inactive)
REMARK    1  A    between atoms: C_2  and  N_4
REMARK    2  A    between atoms: N_7  and  C_8
REMARK    3  A    between atoms: C_8  and  C_9
REMARK    4  A    between atoms: C_12  and  N_13
REMARK    5  A    between atoms: N_13  and  C_14
REMARK    6  A    between atoms: C_14  and  C_15
REMARK                            x       y       z     vdW  Elec       q    Type
REMARK                         _______ _______ _______ _____ _____    ______ ____
ROOT
ATOM      9  C   UNL     1      -6.450  -9.883  15.821  0.00  0.00    +0.169 C 
ATOM     10  O   UNL     1      -6.690 -10.245  15.119  0.00  0.00    -0.350 OA
ATOM     11  C   UNL     1      -6.014 -10.444  14.691  0.00  0.00    +0.162 C 
ATOM     12  C   UNL     1      -5.356 -10.207  15.127  0.00  0.00    +0.135 C 
ATOM     21  C   UNL     1      -5.625  -9.860  15.826  0.00  0.00    +0.199 C 
ATOM     22  O   UNL     1      -5.152  -9.546  16.424  0.00  0.00    -0.219 OA
ENDROOT
BRANCH   9   8
ATOM      8  C   UNL     1      -6.946  -9.596  16.413  0.00  0.00    +0.149 C 
BRANCH   8   7
ATOM      4  N   UNL     1      -9.047  -9.078  16.698  0.00  0.00    -0.189 NA
ATOM      5  C   UNL     1      -8.245  -9.194  16.852  0.00  0.00    +0.339 C 
ATOM      6  O   UNL     1      -7.940  -9.021  17.599  0.00  0.00    -0.249 OA
ATOM      7  N   UNL     1      -7.748  -9.481  16.260  0.00  0.00    -0.185 NA
BRANCH   4   2
ATOM      1  C   UNL     1      -9.865  -9.308  17.847  0.00  0.00    +0.023 C 
ATOM      2  C   UNL     1      -9.545  -8.791  17.291  0.00  0.00    +0.097 C 
ATOM      3  C   UNL     1      -9.721  -7.986  17.326  0.00  0.00    +0.023 C 
ENDBRANCH   4   2
ENDBRANCH   8   7
ENDBRANCH   9   8
BRANCH  12  13
ATOM     13  N   UNL     1      -4.567 -10.300  14.904  0.00  0.00    -0.208 NA
BRANCH  13  14
ATOM     14  C   UNL     1      -4.380 -10.669  14.191  0.00  0.00    +0.134 C 
BRANCH  14  15
ATOM     15  C   UNL     1      -3.606 -10.656  13.909  0.00  0.00    +0.077 A 
ATOM     16  N   UNL     1      -2.976 -10.773  14.428  0.00  0.00    -0.247 NA
ATOM     17  C   UNL     1      -2.201 -10.759  14.146  0.00  0.00    +0.098 A 
ATOM     18  C   UNL     1      -2.055 -10.628  13.345  0.00  0.00    +0.021 A 
ATOM     19  C   UNL     1      -2.685 -10.511  12.825  0.00  0.00    +0.003 A 
ATOM     20  C   UNL     1      -3.460 -10.524  13.107  0.00  0.00    +0.016 A 
ENDBRANCH  14  15
ENDBRANCH  13  14
ENDBRANCH  12  13
TORSDOF 6
ENDMDL
MODEL 7
REMARK VINA RESULT:      -5.7     15.212     17.516
REMARK  Name = 
REMARK  6 active torsions:
REMARK  status: ('A' for Active; 'I' for Inactive)
REMARK    1  A    between atoms: C_2  and  N_4
REMARK    2  A    between atoms: N_7  and  C_8
REMARK    3  A    between atoms: C_8  and  C_9
REMARK    4  A    between atoms: C_12  and  N_13
REMARK    5  A    between atoms: N_13  and  C_14
REMARK    6  A    between atoms: C_14  and  C_15
REMARK                            x       y       z     vdW  Elec       q    Type
REMARK                         _______ _______ _______ _____ _____    ______ ____
ROOT
ATOM      9  C   UNL     1      -3.659 -10.536  11.803  0.00  0.00    +0.169 C 
ATOM     10  O   UNL     1      -2.844 -10.559  11.669  0.00  0.00    -0.350 OA
ATOM     11  C   UNL     1      -2.466 -10.581  12.402  0.00  0.00    +0.162 C 
ATOM     12  C   UNL     1      -3.044 -10.572  12.988  0.00  0.00    +0.135 C 
ATOM     21  C   UNL     1      -3.782 -10.544  12.619  0.00  0.00    +0.199 C 
ATOM     22  O   UNL     1      -4.514 -10.526  12.999  0.00  0.00    -0.219 OA
ENDROOT
BRANCH   9   8
ATOM      8  C   UNL     1      -4.245 -10.509  11.225  0.00  0.00    +0.149 C 
BRANCH   8   7
ATOM      4  N   UNL     1      -4.424 -10.194   9.073  0.00  0.00    -0.189 NA
ATOM      5  C   UNL     1      -4.629 -10.311   9.863  0.00  0.00    +0.339 C 
ATOM      6  O   UNL     1      -5.424 -10.346  10.081  0.00  0.00    -0.249 OA
ATOM      7  N   UNL     1      -4.040 -10.393  10.435  0.00  0.00    -0.185 NA
BRANCH   4   2
ATOM      1  C   UNL     1      -5.330 -10.781   8.136  0.00  0.00    +0.023 C 
ATOM      2  C   UNL     1      -5.013 -10.113   8.500  0.00  0.00    +0.097 C 
ATOM      3  C   UNL     1      -5.284  -9.362   8.293  0.00  0.00    +0.023 C 
ENDBRANCH   4   2
ENDBRANCH   8   7
ENDBRANCH   9   8
BRANCH  12  13
ATOM     13  N   UNL     1      -2.910 -10.588  13.803  0.00  0.00    -0.208 NA
BRANCH  13  14
ATOM     14  C   UNL     1      -2.155 -10.438  14.099  0.00  0.00    +0.134 C 
BRANCH  14  15
ATOM     15  C   UNL     1      -1.999 -10.539  14.903  0.00  0.00    +0.077 A 
ATOM     16  N   UNL     1      -2.619 -10.676  15.429  0.00  0.00    -0.247 NA
ATOM     17  C   UNL     1      -2.464 -10.777  16.232  0.00  0.00    +0.098 A 
ATOM     18  C   UNL     1      -1.688 -10.741  16.510  0.00  0.00    +0.021 A 
ATOM     19  C   UNL     1      -1.068 -10.603  15.984  0.00  0.00    +0.003 A 
ATOM     20  C   UNL     1      -1.223 -10.503  15.181  0.00  0.00    +0.016 A 
ENDBRANCH  14  15
ENDBRANCH  13  14
ENDBRANCH  12  13
TORSDOF 6
ENDMDL
MODEL 8
REMARK VINA RESULT:      -5.5     14.102     16.684
REMARK  Name = 
REMARK  6 active torsions:
REMARK  status: ('A' for Active; 'I' for Inactive)
REMARK    1  A    between atoms: C_2  and  N_4
REMARK    2  A    between atoms: N_7  and  C_8
REMARK    3  A    between atoms: C_8  and  C_9
REMARK    4  A    between atoms: C_12  and  N_13
REMARK    5  A    between atoms: N_13  and  C_14
REMARK    6  A    between atoms: C_14  and  C_15
REMARK                            x       y       z     vdW  Elec       q    Type
REMARK                         _______ _______ _______ _____ _____    ______ ____
ROOT
ATOM      9  C   UNL     1      -5.117 -10.126  13.864  0.00  0.00    +0.169 C 
ATOM     10  O   UNL     1      -4.389 -10.497  13.746  0.00  0.00    -0.350 OA
ATOM     11  C   UNL     1      -4.213 -10.464  12.940  0.00  0.00    +0.162 C 
ATOM     12  C   UNL     1      -4.832 -10.074  12.560  0.00  0.00    +0.135 C 
ATOM     21  C   UNL     1      -5.390  -9.865  13.130  0.00  0.00    +0.199 C 
ATOM     22  O   UNL     1      -6.098  -9.465  12.991  0.00  0.00    -0.219 OA
ENDROOT
BRANCH   9   8
ATOM      8  C   UNL     1      -5.503 -10.033  14.586  0.00  0.00    +0.149 C 
BRANCH   8   7
ATOM      4  N   UNL     1      -5.352 -10.781  16.631  0.00  0.00    -0.189 NA
ATOM      5  C   UNL     1      -5.568 -10.316  15.986  0.00  0.00    +0.339 C 
ATOM      6  O   UNL     1      -6.066  -9.667  16.093  0.00  0.00    -0.249 OA
ATOM      7  N   UNL     1      -5.287 -10.498  15.232  0.00  0.00    -0.185 NA
BRANCH   4   2
ATOM      1  C   UNL     1      -6.442 -10.635  17.544  0.00  0.00    +0.023 C 
ATOM      2  C   UNL     1      -5.634 -10.598  17.385  0.00  0.00    +0.097 C 
ATOM      3  C   UNL     1      -5.106 -10.378  17.980  0.00  0.00    +0.023 C 
ENDBRANCH   4   2
ENDBRANCH   8   7
ENDBRANCH   9   8
BRANCH  12  13
ATOM     13  N   UNL     1      -4.883  -9.920  11.751  0.00  0.00    -0.208 NA
BRANCH  13  14
ATOM     14  C   UNL     1      -4.216  -9.996  11.273  0.00  0.00    +0.134 C 
BRANCH  14  15
ATOM     15  C   UNL     1      -4.256  -9.798  10.474  0.00  0.00    +0.077 A 
ATOM     16  N   UNL     1      -4.666 -10.283   9.948  0.00  0.00    -0.247 NA
ATOM     17  C   UNL     1      -4.705 -10.085   9.149  0.00  0.00    +0.098 A 
ATOM     18  C   UNL     1      -4.335  -9.400   8.874  0.00  0.00    +0.021 A 
ATOM     19  C   UNL     1      -3.925  -8.915   9.400  0.00  0.00    +0.003 A 
ATOM     20  C   UNL     1      -3.885  -9.113  10.199  0.00  0.00    +0.016 A 
ENDBRANCH  14  15
ENDBRANCH  13  14
ENDBRANCH  12  13
TORSDOF 6
ENDMDL
