MODEL 1
REMARK VINA RESULT:     -11.6      0.000      0.000
REMARK  Name = 
REMARK  4 active torsions:
REMARK  status: ('A' for Active; 'I' for Inactive)
REMARK    1  A    between atoms: O_2  and  C_3
REMARK    2  A    between atoms: C_8  and  C_10
REMARK    3  A    between atoms: N_13  and  C_14
REMARK    4  A    between atoms: C_14  and  C_15
REMARK                            x       y       z     vdW  Elec       q    Type
REMARK                         _______ _______ _______ _____ _____    ______ ____
ROOT
ATOM     10  C   UNL     1      -4.476   1.160  24.888  0.00  0.00    +0.076 C 
ATOM     11  C   UNL     1      -5.142   1.416  25.302  0.00  0.00    +0.026 C 
ATOM     12  C   UNL     1      -5.153   2.241  25.283  0.00  0.00    +0.073 C 
ATOM     13  N   UNL     1      -4.494   2.495  24.858  0.00  0.00    -0.272 NA
ATOM     21  C   UNL     1      -4.075   1.827  24.614  0.00  0.00    +0.080 C 
ENDROOT
BRANCH  10   8
ATOM      3  C   UNL     1      -3.211  -2.146  24.661  0.00  0.00    +0.140 A 
ATOM      4  C   UNL     1      -3.106  -1.422  25.042  0.00  0.00    +0.058 A 
ATOM      5  C   UNL     1      -3.602  -0.787  24.866  0.00  0.00    +0.103 A 
ATOM      6  C   UNL     1      -4.203  -0.876  24.309  0.00  0.00    +0.100 A 
ATOM      7  N   UNL     1      -4.604  -0.158  24.249  0.00  0.00    -0.229 NA
ATOM      8  C   UNL     1      -4.250   0.376  24.769  0.00  0.00    +0.140 A 
ATOM      9  N   UNL     1      -3.631  -0.014  25.150  0.00  0.00    -0.229 NA
ATOM     22  C   UNL     1      -4.309  -1.600  23.927  0.00  0.00    +0.024 A 
ATOM     23  C   UNL     1      -3.813  -2.235  24.103  0.00  0.00    +0.039 A 
BRANCH   3   2
ATOM      1  C   UNL     1      -1.964  -2.824  24.498  0.00  0.00    +0.252 C 
ATOM      2  O   UNL     1      -2.715  -2.781  24.836  0.00  0.00    -0.471 OA
ENDBRANCH   3   2
ENDBRANCH  10   8
BRANCH  13  14
ATOM     14  C   UNL     1      -4.288   3.279  24.704  0.00  0.00    +0.072 C 
BRANCH  14  15
ATOM     15  C   UNL     1      -3.623   3.610  25.063  0.00  0.00    +0.016 C 
ATOM     16  C   UNL     1      -3.663   3.869  25.846  0.00  0.00    +0.001 C 
ATOM     17  C   UNL     1      -2.998   4.200  26.204  0.00  0.00    +0.000 C 
ATOM     18  C   UNL     1      -2.294   4.273  25.782  0.00  0.00    +0.000 C 
ATOM     19  C   UNL     1      -2.254   4.014  24.999  0.00  0.00    +0.000 C 
ATOM     20  C   UNL     1      -2.919   3.682  24.640  0.00  0.00    +0.001 C 
ENDBRANCH  14  15
ENDBRANCH  13  14
TORSDOF 4
ENDMDL
MODEL 2
REMARK VINA RESULT:     -11.5      2.050      5.198
REMARK  Name = 
REMARK  4 active torsions:
REMARK  status: ('A' for Active; 'I' for Inactive)
REMARK    1  A    between atoms: O_2  and  C_3
REMARK    2  A    between atoms: C_8  and  C_10
REMARK    3  A    between atoms: N_13  and  C_14
REMARK    4  A    between atoms: C_14  and  C_15
REMARK                            x       y       z     vdW  Elec       q    Type
REMARK                         _______ _______ _______ _____ _____    ______ ____
ROOT
ATOM     10  C   UNL     1      -3.088   1.224  24.343  0.00  0.00    +0.076 C 
ATOM     11  C   UNL     1      -3.180   0.943  23.573  0.00  0.00    +0.026 C 
ATOM     12  C   UNL     1      -3.650   0.265  23.603  0.00  0.00    +0.073 C 
ATOM     13  N   UNL     1      -3.849   0.128  24.392  0.00  0.00    -0.272 NA
ATOM     21  C   UNL     1      -3.501   0.721  24.849  0.00  0.00    +0.080 C 
ENDROOT
BRANCH  10   8
ATOM      3  C   UNL     1      -1.588   4.312  25.236  0.00  0.00    +0.140 A 
ATOM      4  C   UNL     1      -2.292   3.969  24.979  0.00  0.00    +0.058 A 
ATOM      5  C   UNL     1      -2.331   3.155  24.848  0.00  0.00    +0.103 A 
ATOM      6  C   UNL     1      -1.666   2.685  24.974  0.00  0.00    +0.100 A 
ATOM      7  N   UNL     1      -1.868   1.905  24.800  0.00  0.00    -0.229 NA
ATOM      8  C   UNL     1      -2.659   1.892  24.566  0.00  0.00    +0.140 A 
ATOM      9  N   UNL     1      -2.945   2.665  24.596  0.00  0.00    -0.229 NA
ATOM     22  C   UNL     1      -0.960   3.028  25.231  0.00  0.00    +0.024 A 
ATOM     23  C   UNL     1      -0.922   3.841  25.362  0.00  0.00    +0.039 A 
BRANCH   3   2
ATOM      1  C   UNL     1      -1.026   5.589  24.929  0.00  0.00    +0.252 C 
ATOM      2  O   UNL     1      -1.548   5.125  25.367  0.00  0.00    -0.471 OA
ENDBRANCH   3   2
ENDBRANCH  10   8
BRANCH  13  14
ATOM     14  C   UNL     1      -4.312  -0.492  24.675  0.00  0.00    +0.072 C 
BRANCH  14  15
ATOM     15  C   UNL     1      -4.022  -1.265  24.661  0.00  0.00    +0.016 C 
ATOM     16  C   UNL     1      -3.565  -1.545  25.288  0.00  0.00    +0.001 C 
ATOM     17  C   UNL     1      -3.275  -2.317  25.274  0.00  0.00    +0.000 C 
ATOM     18  C   UNL     1      -3.442  -2.809  24.634  0.00  0.00    +0.000 C 
ATOM     19  C   UNL     1      -3.900  -2.529  24.006  0.00  0.00    +0.000 C 
ATOM     20  C   UNL     1      -4.190  -1.757  24.020  0.00  0.00    +0.001 C 
ENDBRANCH  14  15
ENDBRANCH  13  14
TORSDOF 4
ENDMDL
MODEL 3
REMARK VINA RESULT:     -11.3      2.531      5.421
REMARK  Name = 
REMARK  4 active torsions:
REMARK  status: ('A' for Active; 'I' for Inactive)
REMARK    1  A    between atoms: O_2  and  C_3
REMARK    2  A    between atoms: C_8  and  C_10
REMARK    3  A    between atoms: N_13  and  C_14
REMARK    4  A    between atoms: C_14  and  C_15
REMARK                            x       y       z     vdW  Elec       q    Type
REMARK                         _______ _______ _______ _____ _____    ______ ____
ROOT
ATOM     10  C   UNL     1      -1.633   0.207  25.405  0.00  0.00    +0.076 C 
ATOM     11  C   UNL     1      -1.169  -0.463  25.278  0.00  0.00    +0.026 C 
ATOM     12  C   UNL     1      -1.651  -1.128  25.361  0.00  0.00    +0.073 C 
ATOM     13  N   UNL     1      -2.413  -0.868  25.539  0.00  0.00    -0.272 NA
ATOM     21  C   UNL     1      -2.402  -0.043  25.566  0.00  0.00    +0.080 C 
ENDROOT
BRANCH  10   8
ATOM      3  C   UNL     1      -0.819   3.636  25.005  0.00  0.00    +0.140 A 
ATOM      4  C   UNL     1      -1.339   3.047  24.757  0.00  0.00    +0.058 A 
ATOM      5  C   UNL     1      -1.269   2.281  25.056  0.00  0.00    +0.103 A 
ATOM      6  C   UNL     1      -0.678   2.105  25.604  0.00  0.00    +0.100 A 
ATOM      7  N   UNL     1      -0.742   1.307  25.801  0.00  0.00    -0.229 NA
ATOM      8  C   UNL     1      -1.373   0.989  25.375  0.00  0.00    +0.140 A 
ATOM      9  N   UNL     1      -1.698   1.591  24.915  0.00  0.00    -0.229 NA
ATOM     22  C   UNL     1      -0.157   2.696  25.853  0.00  0.00    +0.024 A 
ATOM     23  C   UNL     1      -0.228   3.461  25.553  0.00  0.00    +0.039 A 
BRANCH   3   2
ATOM      1  C   UNL     1      -1.309   4.973  25.128  0.00  0.00    +0.252 C 
ATOM      2  O   UNL     1      -0.890   4.401  24.706  0.00  0.00    -0.471 OA
ENDBRANCH   3   2
ENDBRANCH  10   8
BRANCH  13  14
ATOM     14  C   UNL     1      -3.072  -1.348  25.668  0.00  0.00    +0.072 C 
BRANCH  14  15
ATOM     15  C   UNL     1      -3.454  -1.704  25.029  0.00  0.00    +0.016 C 
ATOM     16  C   UNL     1      -3.993  -1.272  24.577  0.00  0.00    +0.001 C 
ATOM     17  C   UNL     1      -4.375  -1.629  23.939  0.00  0.00    +0.000 C 
ATOM     18  C   UNL     1      -4.219  -2.416  23.752  0.00  0.00    +0.000 C 
ATOM     19  C   UNL     1      -3.681  -2.849  24.204  0.00  0.00    +0.000 C 
ATOM     20  C   UNL     1      -3.298  -2.493  24.843  0.00  0.00    +0.001 C 
ENDBRANCH  14  15
ENDBRANCH  13  14
TORSDOF 4
ENDMDL
MODEL 4
REMARK VINA RESULT:     -11.1      1.749      2.375
REMARK  Name = 
REMARK  4 active torsions:
REMARK  status: ('A' for Active; 'I' for Inactive)
REMARK    1  A    between atoms: O_2  and  C_3
REMARK    2  A    between atoms: C_8  and  C_10
REMARK    3  A    between atoms: N_13  and  C_14
REMARK    4  A    between atoms: C_14  and  C_15
REMARK                            x       y       z     vdW  Elec       q    Type
REMARK                         _______ _______ _______ _____ _____    ______ ____
ROOT
ATOM     10  C   UNL     1      -1.494   1.160  24.800  0.00  0.00    +0.076 C 
ATOM     11  C   UNL     1      -0.848   1.299  24.307  0.00  0.00    +0.026 C 
ATOM     12  C   UNL     1      -0.463   1.978  24.575  0.00  0.00    +0.073 C 
ATOM     13  N   UNL     1      -0.871   2.259  25.234  0.00  0.00    -0.272 NA
ATOM     21  C   UNL     1      -1.509   1.753  25.373  0.00  0.00    +0.080 C 
ENDROOT
BRANCH  10   8
ATOM      3  C   UNL     1      -3.532  -1.742  24.721  0.00  0.00    +0.140 A 
ATOM      4  C   UNL     1      -2.811  -1.447  24.992  0.00  0.00    +0.058 A 
ATOM      5  C   UNL     1      -2.602  -0.664  24.839  0.00  0.00    +0.103 A 
ATOM      6  C   UNL     1      -3.114  -0.176  24.415  0.00  0.00    +0.100 A 
ATOM      7  N   UNL     1      -2.761   0.567  24.348  0.00  0.00    -0.229 NA
ATOM      8  C   UNL     1      -2.032   0.538  24.731  0.00  0.00    +0.140 A 
ATOM      9  N   UNL     1      -1.933  -0.223  25.034  0.00  0.00    -0.229 NA
ATOM     22  C   UNL     1      -3.835  -0.470  24.143  0.00  0.00    +0.024 A 
ATOM     23  C   UNL     1      -4.044  -1.254  24.297  0.00  0.00    +0.039 A 
BRANCH   3   2
ATOM      1  C   UNL     1      -3.720  -3.084  24.267  0.00  0.00    +0.252 C 
ATOM      2  O   UNL     1      -3.741  -2.525  24.874  0.00  0.00    -0.471 OA
ENDBRANCH   3   2
ENDBRANCH  10   8
BRANCH  13  14
ATOM     14  C   UNL     1      -0.677   2.927  25.677  0.00  0.00    +0.072 C 
BRANCH  14  15
ATOM     15  C   UNL     1      -0.998   3.661  25.479  0.00  0.00    +0.016 C 
ATOM     16  C   UNL     1      -1.747   3.872  25.755  0.00  0.00    +0.001 C 
ATOM     17  C   UNL     1      -2.067   4.606  25.557  0.00  0.00    +0.000 C 
ATOM     18  C   UNL     1      -1.640   5.129  25.084  0.00  0.00    +0.000 C 
ATOM     19  C   UNL     1      -0.891   4.918  24.808  0.00  0.00    +0.000 C 
ATOM     20  C   UNL     1      -0.570   4.183  25.005  0.00  0.00    +0.001 C 
ENDBRANCH  14  15
ENDBRANCH  13  14
TORSDOF 4
ENDMDL
MODEL 5
REMARK VINA RESULT:     -10.2      1.919      4.978
REMARK  Name = 
REMARK  4 active torsions:
REMARK  status: ('A' for Active; 'I' for Inactive)
REMARK    1  A    between atoms: O_2  and  C_3
REMARK    2  A    between atoms: C_8  and  C_10
REMARK    3  A    between atoms: N_13  and  C_14
REMARK    4  A    between atoms: C_14  and  C_15
REMARK                            x       y       z     vdW  Elec       q    Type
REMARK                         _______ _______ _______ _____ _____    ______ ____
ROOT
ATOM     10  C   UNL     1      -4.260   0.114  24.803  0.00  0.00    +0.076 C 
ATOM     11  C   UNL     1      -4.503  -0.342  24.161  0.00  0.00    +0.026 C 
ATOM     12  C   UNL     1      -4.195  -1.102  24.256  0.00  0.00    +0.073 C 
ATOM     13  N   UNL     1      -3.762  -1.115  24.958  0.00  0.00    -0.272 NA
ATOM     21  C   UNL     1      -3.803  -0.363  25.296  0.00  0.00    +0.080 C 
ENDROOT
BRANCH  10   8
ATOM      3  C   UNL     1      -5.400   3.396  25.522  0.00  0.00    +0.140 A 
ATOM      4  C   UNL     1      -5.597   2.598  25.587  0.00  0.00    +0.058 A 
ATOM      5  C   UNL     1      -5.082   2.020  25.302  0.00  0.00    +0.103 A 
ATOM      6  C   UNL     1      -4.369   2.241  24.951  0.00  0.00    +0.100 A 
ATOM      7  N   UNL     1      -3.974   1.554  24.722  0.00  0.00    -0.229 NA
ATOM      8  C   UNL     1      -4.444   0.909  24.931  0.00  0.00    +0.140 A 
ATOM      9  N   UNL     1      -5.128   1.197  25.289  0.00  0.00    -0.229 NA
ATOM     22  C   UNL     1      -4.170   3.039  24.886  0.00  0.00    +0.024 A 
ATOM     23  C   UNL     1      -4.686   3.616  25.172  0.00  0.00    +0.039 A 
BRANCH   3   2
ATOM      1  C   UNL     1      -5.910   4.730  25.478  0.00  0.00    +0.252 C 
ATOM      2  O   UNL     1      -5.914   3.973  25.807  0.00  0.00    -0.471 OA
ENDBRANCH   3   2
ENDBRANCH  10   8
BRANCH  13  14
ATOM     14  C   UNL     1      -3.359  -1.764  25.268  0.00  0.00    +0.072 C 
BRANCH  14  15
ATOM     15  C   UNL     1      -2.576  -1.906  25.051  0.00  0.00    +0.016 C 
ATOM     16  C   UNL     1      -1.964  -1.490  25.417  0.00  0.00    +0.001 C 
ATOM     17  C   UNL     1      -1.182  -1.633  25.199  0.00  0.00    +0.000 C 
ATOM     18  C   UNL     1      -1.009  -2.191  24.617  0.00  0.00    +0.000 C 
ATOM     19  C   UNL     1      -1.621  -2.607  24.251  0.00  0.00    +0.000 C 
ATOM     20  C   UNL     1      -2.405  -2.465  24.468  0.00  0.00    +0.001 C 
ENDBRANCH  14  15
ENDBRANCH  13  14
TORSDOF 4
ENDMDL
