MODEL 1
REMARK VINA RESULT:     -10.2      0.000      0.000
REMARK  Name = 
REMARK  7 active torsions:
REMARK  status: ('A' for Active; 'I' for Inactive)
REMARK    1  A    between atoms: C_2  and  C_3
REMARK    2  A    between atoms: C_8  and  C_9
REMARK    3  A    between atoms: C_9  and  C_10
REMARK    4  A    between atoms: N_12  and  C_13
REMARK    5  A    between atoms: C_13  and  C_14
REMARK    6  A    between atoms: C_14  and  O_15
REMARK    7  A    between atoms: C_17  and  C_19
REMARK                            x       y       z     vdW  Elec       q    Type
REMARK                         _______ _______ _______ _____ _____    ______ ____
ROOT
ATOM      3  C   UNL     1      -3.198   2.144  24.316  0.00  0.00    +0.020 C 
ATOM      4  C   UNL     1      -2.600   2.593  24.662  0.00  0.00    +0.094 C 
ATOM      5  N   UNL     1      -2.019   2.226  25.117  0.00  0.00    -0.276 N 
ATOM      6  C   UNL     1      -2.036   1.408  25.227  0.00  0.00    +0.094 C 
ATOM      7  C   UNL     1      -2.635   0.958  24.880  0.00  0.00    +0.022 C 
ATOM      8  C   UNL     1      -3.216   1.325  24.425  0.00  0.00    +0.012 C 
ATOM     17  C   UNL     1      -1.420   2.676  25.464  0.00  0.00    +0.249 C 
ATOM     18  O   UNL     1      -0.839   2.308  25.919  0.00  0.00    -0.270 OA
ENDROOT
BRANCH  17  19
ATOM     19  C   UNL     1      -1.403   3.493  25.354  0.00  0.00    +0.054 A 
ATOM     20  C   UNL     1      -1.913   3.978  25.783  0.00  0.00    +0.007 A 
ATOM     21  C   UNL     1      -1.896   4.796  25.673  0.00  0.00    +0.030 A 
ATOM     22  C   UNL     1      -1.368   5.128  25.133  0.00  0.00    +0.140 A 
ATOM     23  F   UNL     1      -1.351   5.946  25.023  0.00  0.00    -0.204 F 
ATOM     24  C   UNL     1      -0.858   4.643  24.704  0.00  0.00    +0.030 A 
ATOM     25  C   UNL     1      -0.875   3.826  24.814  0.00  0.00    +0.007 A 
ENDBRANCH  17  19
BRANCH   3   2
ATOM      1  C   UNL     1      -3.583   2.844  23.131  0.00  0.00    +0.000 C 
ATOM      2  C   UNL     1      -3.780   2.511  23.860  0.00  0.00    +0.002 C 
ENDBRANCH   3   2
BRANCH   8   9
ATOM      9  C   UNL     1      -3.814   0.876  24.079  0.00  0.00    +0.087 C 
BRANCH   9  10
ATOM     10  C   UNL     1      -4.035   0.155  24.414  0.00  0.00    +0.241 C 
ATOM     11  O   UNL     1      -4.352   0.134  25.175  0.00  0.00    -0.273 OA
ATOM     12  N   UNL     1      -3.938  -0.545  23.988  0.00  0.00    -0.203 NA
BRANCH  12  13
ATOM     13  C   UNL     1      -4.159  -1.265  24.324  0.00  0.00    +0.147 C 
BRANCH  13  14
ATOM     14  C   UNL     1      -4.018  -1.970  23.918  0.00  0.00    +0.166 C 
BRANCH  14  15
ATOM     15  O   UNL     1      -4.083  -2.693  24.311  0.00  0.00    -0.349 OA
ATOM     16  C   UNL     1      -3.422  -3.179  24.392  0.00  0.00    +0.174 C 
ENDBRANCH  14  15
ENDBRANCH  13  14
ENDBRANCH  12  13
ENDBRANCH   9  10
ENDBRANCH   8   9
TORSDOF 7
ENDMDL
MODEL 2
REMARK VINA RESULT:      -9.9      2.366      5.559
REMARK  Name = 
REMARK  7 active torsions:
REMARK  status: ('A' for Active; 'I' for Inactive)
REMARK    1  A    between atoms: C_2  and  C_3
REMARK    2  A    between atoms: C_8  and  C_9
REMARK    3  A    between atoms: C_9  and  C_10
REMARK    4  A    between atoms: N_12  and  C_13
REMARK    5  A    between atoms: C_13  and  C_14
REMARK    6  A    between atoms: C_14  and  O_15
REMARK    7  A    between atoms: C_17  and  C_19
REMARK                            x       y       z     vdW  Elec       q    Type
REMARK                         _______ _______ _______ _____ _____    ______ ____
ROOT
ATOM      3  C   UNL     1      -1.580   0.086  24.682  0.00  0.00    +0.020 C 
ATOM      4  C   UNL     1      -2.291  -0.328  24.738  0.00  0.00    +0.094 C 
ATOM      5  N   UNL     1      -2.957   0.037  25.058  0.00  0.00    -0.276 N 
ATOM      6  C   UNL     1      -2.913   0.817  25.323  0.00  0.00    +0.094 C 
ATOM      7  C   UNL     1      -2.201   1.232  25.267  0.00  0.00    +0.022 C 
ATOM      8  C   UNL     1      -1.536   0.867  24.947  0.00  0.00    +0.012 C 
ATOM     17  C   UNL     1      -3.669  -0.377  25.113  0.00  0.00    +0.249 C 
ATOM     18  O   UNL     1      -4.336  -0.012  25.434  0.00  0.00    -0.270 OA
ENDROOT
BRANCH  17  19
ATOM     19  C   UNL     1      -3.713  -1.157  24.848  0.00  0.00    +0.054 A 
ATOM     20  C   UNL     1      -3.501  -1.776  25.350  0.00  0.00    +0.007 A 
ATOM     21  C   UNL     1      -3.545  -2.556  25.084  0.00  0.00    +0.030 A 
ATOM     22  C   UNL     1      -3.801  -2.716  24.317  0.00  0.00    +0.140 A 
ATOM     23  F   UNL     1      -3.845  -3.497  24.051  0.00  0.00    -0.204 F 
ATOM     24  C   UNL     1      -4.013  -2.098  23.815  0.00  0.00    +0.030 A 
ATOM     25  C   UNL     1      -3.969  -1.318  24.080  0.00  0.00    +0.007 A 
ENDBRANCH  17  19
BRANCH   3   2
ATOM      1  C   UNL     1      -0.568  -0.921  24.751  0.00  0.00    +0.000 C 
ATOM      2  C   UNL     1      -0.913  -0.280  24.362  0.00  0.00    +0.002 C 
ENDBRANCH   3   2
BRANCH   8   9
ATOM      9  C   UNL     1      -0.824   1.281  24.892  0.00  0.00    +0.087 C 
BRANCH   9  10
ATOM     10  C   UNL     1      -0.749   2.020  25.250  0.00  0.00    +0.241 C 
ATOM     11  O   UNL     1      -0.688   2.077  26.070  0.00  0.00    -0.273 OA
ATOM     12  N   UNL     1      -0.734   2.703  24.787  0.00  0.00    -0.203 NA
BRANCH  12  13
ATOM     13  C   UNL     1      -0.658   3.442  25.146  0.00  0.00    +0.147 C 
BRANCH  13  14
ATOM     14  C   UNL     1      -0.732   4.129  24.694  0.00  0.00    +0.166 C 
BRANCH  14  15
ATOM     15  O   UNL     1      -0.719   4.868  25.062  0.00  0.00    -0.349 OA
ATOM     16  C   UNL     1      -1.377   5.363  25.015  0.00  0.00    +0.174 C 
ENDBRANCH  14  15
ENDBRANCH  13  14
ENDBRANCH  12  13
ENDBRANCH   9  10
ENDBRANCH   8   9
TORSDOF 7
ENDMDL
MODEL 3
REMARK VINA RESULT:      -9.4      2.735      4.067
REMARK  Name = 
REMARK  7 active torsions:
REMARK  status: ('A' for Active; 'I' for Inactive)
REMARK    1  A    between atoms: C_2  and  C_3
REMARK    2  A    between atoms: C_8  and  C_9
REMARK    3  A    between atoms: C_9  and  C_10
REMARK    4  A    between atoms: N_12  and  C_13
REMARK    5  A    between atoms: C_13  and  C_14
REMARK    6  A    between atoms: C_14  and  O_15
REMARK    7  A    between atoms: C_17  and  C_19
REMARK                            x       y       z     vdW  Elec       q    Type
REMARK                         _______ _______ _______ _____ _____    ______ ____
ROOT
ATOM      3  C   UNL     1      -2.713   0.779  24.793  0.00  0.00    +0.020 C 
ATOM      4  C   UNL     1      -3.327   1.328  24.751  0.00  0.00    +0.094 C 
ATOM      5  N   UNL     1      -3.306   1.927  24.186  0.00  0.00    -0.276 N 
ATOM      6  C   UNL     1      -2.670   1.979  23.662  0.00  0.00    +0.094 C 
ATOM      7  C   UNL     1      -2.056   1.429  23.705  0.00  0.00    +0.022 C 
ATOM      8  C   UNL     1      -2.077   0.830  24.270  0.00  0.00    +0.012 C 
ATOM     17  C   UNL     1      -3.921   2.477  24.143  0.00  0.00    +0.249 C 
ATOM     18  O   UNL     1      -3.899   3.077  23.577  0.00  0.00    -0.270 OA
ENDROOT
BRANCH  17  19
ATOM     19  C   UNL     1      -4.556   2.425  24.667  0.00  0.00    +0.054 A 
ATOM     20  C   UNL     1      -4.541   2.844  25.376  0.00  0.00    +0.007 A 
ATOM     21  C   UNL     1      -5.177   2.792  25.900  0.00  0.00    +0.030 A 
ATOM     22  C   UNL     1      -5.827   2.321  25.712  0.00  0.00    +0.140 A 
ATOM     23  F   UNL     1      -6.464   2.269  26.236  0.00  0.00    -0.204 F 
ATOM     24  C   UNL     1      -5.842   1.902  25.003  0.00  0.00    +0.030 A 
ATOM     25  C   UNL     1      -5.207   1.954  24.479  0.00  0.00    +0.007 A 
ENDBRANCH  17  19
BRANCH   3   2
ATOM      1  C   UNL     1      -3.282  -0.435  25.289  0.00  0.00    +0.000 C 
ATOM      2  C   UNL     1      -2.735   0.179  25.359  0.00  0.00    +0.002 C 
ENDBRANCH   3   2
BRANCH   8   9
ATOM      9  C   UNL     1      -1.463   0.281  24.312  0.00  0.00    +0.087 C 
BRANCH   9  10
ATOM     10  C   UNL     1      -0.691   0.511  24.133  0.00  0.00    +0.241 C 
ATOM     11  O   UNL     1      -0.367   1.180  24.489  0.00  0.00    -0.273 OA
ATOM     12  N   UNL     1      -0.244   0.071  23.597  0.00  0.00    -0.203 NA
BRANCH  12  13
ATOM     13  C   UNL     1       0.528   0.301  23.418  0.00  0.00    +0.147 C 
BRANCH  13  14
ATOM     14  C   UNL     1       1.032  -0.219  23.024  0.00  0.00    +0.166 C 
BRANCH  14  15
ATOM     15  O   UNL     1       1.551   0.066  22.448  0.00  0.00    -0.349 OA
ATOM     16  C   UNL     1       2.365  -0.013  22.552  0.00  0.00    +0.174 C 
ENDBRANCH  14  15
ENDBRANCH  13  14
ENDBRANCH  12  13
ENDBRANCH   9  10
ENDBRANCH   8   9
TORSDOF 7
ENDMDL
MODEL 4
REMARK VINA RESULT:      -9.4      2.435      5.280
REMARK  Name = 
REMARK  7 active torsions:
REMARK  status: ('A' for Active; 'I' for Inactive)
REMARK    1  A    between atoms: C_2  and  C_3
REMARK    2  A    between atoms: C_8  and  C_9
REMARK    3  A    between atoms: C_9  and  C_10
REMARK    4  A    between atoms: N_12  and  C_13
REMARK    5  A    between atoms: C_13  and  C_14
REMARK    6  A    between atoms: C_14  and  O_15
REMARK    7  A    between atoms: C_17  and  C_19
REMARK                            x       y       z     vdW  Elec       q    Type
REMARK                         _______ _______ _______ _____ _____    ______ ____
ROOT
ATOM      3  C   UNL     1      -3.859   0.901  24.717  0.00  0.00    +0.020 C 
ATOM      4  C   UNL     1      -3.520   0.151  24.670  0.00  0.00    +0.094 C 
ATOM      5  N   UNL     1      -2.700   0.069  24.647  0.00  0.00    -0.276 N 
ATOM      6  C   UNL     1      -2.218   0.738  24.670  0.00  0.00    +0.094 C 
ATOM      7  C   UNL     1      -2.557   1.489  24.717  0.00  0.00    +0.022 C 
ATOM      8  C   UNL     1      -3.377   1.571  24.740  0.00  0.00    +0.012 C 
ATOM     17  C   UNL     1      -2.361  -0.682  24.600  0.00  0.00    +0.249 C 
ATOM     18  O   UNL     1      -1.541  -0.764  24.577  0.00  0.00    -0.270 OA
ENDROOT
BRANCH  17  19
ATOM     19  C   UNL     1      -2.844  -1.351  24.577  0.00  0.00    +0.054 A 
ATOM     20  C   UNL     1      -2.978  -1.787  25.263  0.00  0.00    +0.007 A 
ATOM     21  C   UNL     1      -3.461  -2.456  25.239  0.00  0.00    +0.030 A 
ATOM     22  C   UNL     1      -3.809  -2.688  24.528  0.00  0.00    +0.140 A 
ATOM     23  F   UNL     1      -4.292  -3.357  24.504  0.00  0.00    -0.204 F 
ATOM     24  C   UNL     1      -3.674  -2.252  23.842  0.00  0.00    +0.030 A 
ATOM     25  C   UNL     1      -3.192  -1.583  23.865  0.00  0.00    +0.007 A 
ENDBRANCH  17  19
BRANCH   3   2
ATOM      1  C   UNL     1      -5.095   0.779  25.424  0.00  0.00    +0.000 C 
ATOM      2  C   UNL     1      -4.680   0.983  24.740  0.00  0.00    +0.002 C 
ENDBRANCH   3   2
BRANCH   8   9
ATOM      9  C   UNL     1      -3.716   2.321  24.787  0.00  0.00    +0.087 C 
BRANCH   9  10
ATOM     10  C   UNL     1      -3.288   2.983  24.541  0.00  0.00    +0.241 C 
ATOM     11  O   UNL     1      -3.197   3.139  23.737  0.00  0.00    -0.273 OA
ATOM     12  N   UNL     1      -2.952   3.487  25.101  0.00  0.00    -0.203 NA
BRANCH  12  13
ATOM     13  C   UNL     1      -2.525   4.148  24.855  0.00  0.00    +0.147 C 
BRANCH  13  14
ATOM     14  C   UNL     1      -2.034   4.544  25.388  0.00  0.00    +0.166 C 
BRANCH  14  15
ATOM     15  O   UNL     1      -1.670   5.251  25.167  0.00  0.00    -0.349 OA
ATOM     16  C   UNL     1      -0.871   5.256  24.962  0.00  0.00    +0.174 C 
ENDBRANCH  14  15
ENDBRANCH  13  14
ENDBRANCH  12  13
ENDBRANCH   9  10
ENDBRANCH   8   9
TORSDOF 7
ENDMDL
