REMARK  Name = 
REMARK  6 active torsions:
REMARK  status: ('A' for Active; 'I' for Inactive)
REMARK    1  A    between atoms: C_2  and  N_3
REMARK    2  A    between atoms: N_3  and  C_4
REMARK    3  A    between atoms: N_3  and  C_6
REMARK    4  A    between atoms: C_12  and  N_13
REMARK    5  A    between atoms: N_16  and  C_17
REMARK    6  A    between atoms: C_20  and  O_21
REMARK                            x       y       z     vdW  Elec       q    Type
REMARK                         _______ _______ _______ _____ _____    ______ ____
ROOT
ATOM      6  C   UNL     1       1.611  -0.930   0.000  0.00  0.00    +0.147 C 
ATOM      7  C   UNL     1       0.640  -0.930   0.000  0.00  0.00    +0.253 C 
ATOM      8  O   UNL     1       0.120  -1.643   0.000  0.00  0.00    -0.327 OA
ATOM      9  C   UNL     1       0.740  -1.266   0.000  0.00  0.00    +0.176 C 
ATOM     10  C   UNL     1       1.060  -0.557   0.000  0.00  0.00    +0.170 C 
ATOM     11  O   UNL     1       0.500  -0.117   0.000  0.00  0.00    -0.327 OA
ATOM     12  C   UNL     1       1.989  -0.542   0.000  0.00  0.00    +0.158 C 
ATOM     25  C   UNL     1       2.127  -1.359   0.000  0.00  0.00    +0.194 C 
ATOM     26  O   UNL     1       2.539  -2.074   0.000  0.00  0.00    -0.220 OA
ENDROOT
BRANCH  12  13
ATOM     13  N   UNL     1       2.517   0.093   0.000  0.00  0.00    -0.183 NA
ATOM     14  C   UNL     1       3.330  -0.046   0.000  0.00  0.00    +0.344 C 
ATOM     15  O   UNL     1       3.616  -0.820   0.000  0.00  0.00    -0.249 OA
ATOM     16  N   UNL     1       3.857   0.588   0.000  0.00  0.00    -0.161 NA
BRANCH  16  17
ATOM     17  C   UNL     1       4.670   0.449   0.000  0.00  0.00    +0.075 A 
ATOM     18  C   UNL     1       5.197   1.083   0.000  0.00  0.00    +0.020 A 
ATOM     19  C   UNL     1       6.011   0.944   0.000  0.00  0.00    +0.038 A 
ATOM     20  C   UNL     1       6.296   0.170   0.000  0.00  0.00    +0.139 A 
ATOM     23  C   UNL     1       5.769  -0.465   0.000  0.00  0.00    +0.038 A 
ATOM     24  C   UNL     1       4.956  -0.325   0.000  0.00  0.00    +0.020 A 
BRANCH  20  21
ATOM     21  O   UNL     1       7.109   0.031   0.000  0.00  0.00    -0.471 OA
ATOM     22  C   UNL     1       7.637   0.665   0.000  0.00  0.00    +0.252 C 
ENDBRANCH  20  21
ENDBRANCH  16  17
ENDBRANCH  12  13
BRANCH   6   3
ATOM      3  N   UNL     1       1.331  -1.706   0.000  0.00  0.00    -0.268 NA
BRANCH   3   2
ATOM      1  C   UNL     1       0.239  -2.628   0.000  0.00  0.00    +0.019 C 
ATOM      2  C   UNL     1       0.519  -1.852   0.000  0.00  0.00    +0.072 C 
ENDBRANCH   3   2
BRANCH   3   4
ATOM      4  C   UNL     1       1.863  -2.337   0.000  0.00  0.00    +0.072 C 
ATOM      5  C   UNL     1       1.583  -3.113   0.000  0.00  0.00    +0.019 C 
ENDBRANCH   3   4
ENDBRANCH   6   3
TORSDOF 6
