MODEL 1
REMARK VINA RESULT:     -13.5      0.000      0.000
REMARK  Name = 
REMARK  5 active torsions:
REMARK  status: ('A' for Active; 'I' for Inactive)
REMARK    1  A    between atoms: C_5  and  C_6
REMARK    2  A    between atoms: C_6  and  N_7
REMARK    3  A    between atoms: C_12  and  C_13
REMARK    4  A    between atoms: C_18  and  C_19
REMARK    5  A    between atoms: C_19  and  C_20
REMARK                            x       y       z     vdW  Elec       q    Type
REMARK                         _______ _______ _______ _____ _____    ______ ____
ROOT
ATOM      7  N   UNL     1      -2.633   2.681  24.658  0.00  0.00    -0.257 NA
ATOM      8  C   UNL     1      -2.725   3.269  25.229  0.00  0.00    +0.121 C 
ATOM      9  C   UNL     1      -3.478   3.559  25.405  0.00  0.00    +0.090 A 
ATOM     10  C   UNL     1      -4.137   3.261  25.009  0.00  0.00    +0.077 A 
ATOM     11  C   UNL     1      -4.045   2.673  24.437  0.00  0.00    +0.072 C 
ATOM     12  C   UNL     1      -3.292   2.383  24.262  0.00  0.00    +0.142 C 
ATOM     28  N   UNL     1      -4.805   3.651  25.296  0.00  0.00    -0.227 NA
ATOM     29  C   UNL     1      -4.558   4.190  25.870  0.00  0.00    +0.198 A 
ATOM     30  N   UNL     1      -3.738   4.133  25.936  0.00  0.00    -0.226 NA
ENDROOT
BRANCH  12  13
ATOM     13  C   UNL     1      -3.200   1.795  23.691  0.00  0.00    +0.241 C 
ATOM     14  O   UNL     1      -2.790   1.957  22.994  0.00  0.00    -0.273 OA
ATOM     15  N   UNL     1      -3.519   1.044  23.818  0.00  0.00    -0.278 N 
ATOM     16  C   UNL     1      -3.427   0.456  23.247  0.00  0.00    +0.093 C 
ATOM     17  C   UNL     1      -3.746  -0.295  23.374  0.00  0.00    +0.022 C 
ATOM     18  C   UNL     1      -4.156  -0.457  24.071  0.00  0.00    +0.008 C 
ATOM     26  C   UNL     1      -4.247   0.132  24.642  0.00  0.00    +0.022 C 
ATOM     27  C   UNL     1      -3.929   0.882  24.515  0.00  0.00    +0.093 C 
BRANCH  18  19
ATOM     19  C   UNL     1      -4.474  -1.207  24.197  0.00  0.00    +0.026 C 
BRANCH  19  20
ATOM     20  C   UNL     1      -3.992  -1.819  24.469  0.00  0.00    -0.022 A 
ATOM     21  C   UNL     1      -3.810  -2.453  23.972  0.00  0.00    -0.004 A 
ATOM     22  C   UNL     1      -3.328  -3.065  24.244  0.00  0.00    -0.000 A 
ATOM     23  C   UNL     1      -3.028  -3.043  25.012  0.00  0.00    -0.000 A 
ATOM     24  C   UNL     1      -3.209  -2.410  25.508  0.00  0.00    -0.000 A 
ATOM     25  C   UNL     1      -3.691  -1.798  25.237  0.00  0.00    -0.004 A 
ENDBRANCH  19  20
ENDBRANCH  18  19
ENDBRANCH  12  13
BRANCH   7   6
ATOM      6  C   UNL     1      -1.881   2.392  24.483  0.00  0.00    +0.100 C 
BRANCH   6   5
ATOM      1  C   UNL     1       0.553   2.676  26.692  0.00  0.00    +0.031 C 
ATOM      2  C   UNL     1      -0.055   2.605  26.140  0.00  0.00    -0.022 A 
ATOM      3  C   UNL     1      -0.185   3.206  25.590  0.00  0.00    -0.005 A 
ATOM      4  C   UNL     1      -0.794   3.134  25.038  0.00  0.00    -0.003 A 
ATOM      5  C   UNL     1      -1.273   2.463  25.035  0.00  0.00    -0.006 A 
ATOM     31  C   UNL     1      -1.142   1.862  25.586  0.00  0.00    -0.003 A 
ATOM     32  C   UNL     1      -0.534   1.933  26.138  0.00  0.00    -0.005 A 
ENDBRANCH   6   5
ENDBRANCH   7   6
TORSDOF 5
ENDMDL
MODEL 2
REMARK VINA RESULT:     -12.9      1.366      4.942
REMARK  Name = 
REMARK  5 active torsions:
REMARK  status: ('A' for Active; 'I' for Inactive)
REMARK    1  A    between atoms: C_5  and  C_6
REMARK    2  A    between atoms: C_6  and  N_7
REMARK    3  A    between atoms: C_12  and  C_13
REMARK    4  A    between atoms: C_18  and  C_19
REMARK    5  A    between atoms: C_19  and  C_20
REMARK                            x       y       z     vdW  Elec       q    Type
REMARK                         _______ _______ _______ _____ _____    ______ ____
ROOT
ATOM      7  N   UNL     1      -3.944   0.483  24.297  0.00  0.00    -0.257 NA
ATOM      8  C   UNL     1      -4.602   0.247  24.734  0.00  0.00    +0.121 C 
ATOM      9  C   UNL     1      -5.140   0.809  25.007  0.00  0.00    +0.090 A 
ATOM     10  C   UNL     1      -5.019   1.609  24.844  0.00  0.00    +0.077 A 
ATOM     11  C   UNL     1      -4.360   1.846  24.407  0.00  0.00    +0.072 C 
ATOM     12  C   UNL     1      -3.823   1.283  24.133  0.00  0.00    +0.142 C 
ATOM     28  N   UNL     1      -5.638   2.035  25.183  0.00  0.00    -0.227 NA
ATOM     29  C   UNL     1      -6.141   1.499  25.557  0.00  0.00    +0.198 A 
ATOM     30  N   UNL     1      -5.833   0.742  25.448  0.00  0.00    -0.226 NA
ENDROOT
BRANCH  12  13
ATOM     13  C   UNL     1      -3.164   1.520  23.696  0.00  0.00    +0.241 C 
ATOM     14  O   UNL     1      -3.073   1.267  22.917  0.00  0.00    -0.273 OA
ATOM     15  N   UNL     1      -2.597   2.011  24.040  0.00  0.00    -0.278 N 
ATOM     16  C   UNL     1      -1.939   2.248  23.603  0.00  0.00    +0.093 C 
ATOM     17  C   UNL     1      -1.371   2.739  23.947  0.00  0.00    +0.022 C 
ATOM     18  C   UNL     1      -1.462   2.993  24.727  0.00  0.00    +0.008 C 
ATOM     26  C   UNL     1      -2.121   2.754  25.163  0.00  0.00    +0.022 C 
ATOM     27  C   UNL     1      -2.688   2.264  24.820  0.00  0.00    +0.093 C 
BRANCH  18  19
ATOM     19  C   UNL     1      -0.895   3.483  25.070  0.00  0.00    +0.026 C 
BRANCH  19  20
ATOM     20  C   UNL     1      -0.958   4.302  24.994  0.00  0.00    -0.022 A 
ATOM     21  C   UNL     1      -0.390   4.721  24.565  0.00  0.00    -0.004 A 
ATOM     22  C   UNL     1      -0.452   5.540  24.488  0.00  0.00    -0.000 A 
ATOM     23  C   UNL     1      -1.083   5.940  24.840  0.00  0.00    -0.000 A 
ATOM     24  C   UNL     1      -1.650   5.522  25.268  0.00  0.00    -0.000 A 
ATOM     25  C   UNL     1      -1.587   4.703  25.344  0.00  0.00    -0.004 A 
ENDBRANCH  19  20
ENDBRANCH  18  19
ENDBRANCH  12  13
BRANCH   7   6
ATOM      6  C   UNL     1      -3.406  -0.079  24.024  0.00  0.00    +0.100 C 
BRANCH   6   5
ATOM      1  C   UNL     1      -3.663  -3.220  25.005  0.00  0.00    +0.031 C 
ATOM      2  C   UNL     1      -3.599  -2.435  24.759  0.00  0.00    -0.022 A 
ATOM      3  C   UNL     1      -3.157  -1.899  25.204  0.00  0.00    -0.005 A 
ATOM      4  C   UNL     1      -3.093  -1.114  24.959  0.00  0.00    -0.003 A 
ATOM      5  C   UNL     1      -3.470  -0.864  24.269  0.00  0.00    -0.006 A 
ATOM     31  C   UNL     1      -3.913  -1.401  23.824  0.00  0.00    -0.003 A 
ATOM     32  C   UNL     1      -3.977  -2.186  24.069  0.00  0.00    -0.005 A 
ENDBRANCH   6   5
ENDBRANCH   7   6
TORSDOF 5
ENDMDL
MODEL 3
REMARK VINA RESULT:     -12.2      1.866      5.481
REMARK  Name = 
REMARK  5 active torsions:
REMARK  status: ('A' for Active; 'I' for Inactive)
REMARK    1  A    between atoms: C_5  and  C_6
REMARK    2  A    between atoms: C_6  and  N_7
REMARK    3  A    between atoms: C_12  and  C_13
REMARK    4  A    between atoms: C_18  and  C_19
REMARK    5  A    between atoms: C_19  and  C_20
REMARK                            x       y       z     vdW  Elec       q    Type
REMARK                         _______ _______ _______ _____ _____    ______ ____
ROOT
ATOM      7  N   UNL     1      -2.152  -0.178  24.380  0.00  0.00    -0.257 NA
ATOM      8  C   UNL     1      -1.558  -0.749  24.408  0.00  0.00    +0.121 C 
ATOM      9  C   UNL     1      -0.799  -0.569  24.140  0.00  0.00    +0.090 A 
ATOM     10  C   UNL     1      -0.634   0.183  23.844  0.00  0.00    +0.077 A 
ATOM     11  C   UNL     1      -1.229   0.755  23.816  0.00  0.00    +0.072 C 
ATOM     12  C   UNL     1      -1.988   0.574  24.084  0.00  0.00    +0.142 C 
ATOM     28  N   UNL     1       0.159   0.201  23.620  0.00  0.00    -0.227 NA
ATOM     29  C   UNL     1       0.485  -0.539  23.778  0.00  0.00    +0.198 A 
ATOM     30  N   UNL     1      -0.107  -1.015  24.099  0.00  0.00    -0.226 NA
ENDROOT
BRANCH  12  13
ATOM     13  C   UNL     1      -2.581   1.146  24.056  0.00  0.00    +0.241 C 
ATOM     14  O   UNL     1      -3.255   1.020  23.597  0.00  0.00    -0.273 OA
ATOM     15  N   UNL     1      -2.501   1.845  24.489  0.00  0.00    -0.278 N 
ATOM     16  C   UNL     1      -3.095   2.417  24.461  0.00  0.00    +0.093 C 
ATOM     17  C   UNL     1      -3.014   3.116  24.893  0.00  0.00    +0.022 C 
ATOM     18  C   UNL     1      -2.341   3.242  25.353  0.00  0.00    +0.008 C 
ATOM     26  C   UNL     1      -1.747   2.669  25.380  0.00  0.00    +0.022 C 
ATOM     27  C   UNL     1      -1.827   1.971  24.948  0.00  0.00    +0.093 C 
BRANCH  18  19
ATOM     19  C   UNL     1      -2.261   3.940  25.784  0.00  0.00    +0.026 C 
BRANCH  19  20
ATOM     20  C   UNL     1      -1.866   4.585  25.455  0.00  0.00    -0.022 A 
ATOM     21  C   UNL     1      -2.273   5.289  25.311  0.00  0.00    -0.004 A 
ATOM     22  C   UNL     1      -1.877   5.934  24.982  0.00  0.00    -0.000 A 
ATOM     23  C   UNL     1      -1.075   5.875  24.798  0.00  0.00    -0.000 A 
ATOM     24  C   UNL     1      -0.669   5.173  24.941  0.00  0.00    -0.000 A 
ATOM     25  C   UNL     1      -1.064   4.527  25.270  0.00  0.00    -0.004 A 
ENDBRANCH  19  20
ENDBRANCH  18  19
ENDBRANCH  12  13
BRANCH   7   6
ATOM      6  C   UNL     1      -2.911  -0.359  24.648  0.00  0.00    +0.100 C 
BRANCH   6   5
ATOM      1  C   UNL     1      -3.954  -3.489  24.660  0.00  0.00    +0.031 C 
ATOM      2  C   UNL     1      -3.693  -2.706  24.657  0.00  0.00    -0.022 A 
ATOM      3  C   UNL     1      -3.808  -2.237  23.990  0.00  0.00    -0.005 A 
ATOM      4  C   UNL     1      -3.547  -1.454  23.987  0.00  0.00    -0.003 A 
ATOM      5  C   UNL     1      -3.172  -1.141  24.651  0.00  0.00    -0.006 A 
ATOM     31  C   UNL     1      -3.057  -1.612  25.320  0.00  0.00    -0.003 A 
ATOM     32  C   UNL     1      -3.318  -2.395  25.323  0.00  0.00    -0.005 A 
ENDBRANCH   6   5
ENDBRANCH   7   6
TORSDOF 5
ENDMDL
MODEL 4
REMARK VINA RESULT:     -12.1      1.600      2.699
REMARK  Name = 
REMARK  5 active torsions:
REMARK  status: ('A' for Active; 'I' for Inactive)
REMARK    1  A    between atoms: C_5  and  C_6
REMARK    2  A    between atoms: C_6  and  N_7
REMARK    3  A    between atoms: C_12  and  C_13
REMARK    4  A    between atoms: C_18  and  C_19
REMARK    5  A    between atoms: C_19  and  C_20
REMARK                            x       y       z     vdW  Elec       q    Type
REMARK                         _______ _______ _______ _____ _____    ______ ____
ROOT
ATOM      7  N   UNL     1      -1.397   2.352  24.254  0.00  0.00    -0.257 NA
ATOM      8  C   UNL     1      -0.620   2.503  24.486  0.00  0.00    +0.121 C 
ATOM      9  C   UNL     1      -0.018   1.978  24.278  0.00  0.00    +0.090 A 
ATOM     10  C   UNL     1      -0.194   1.302  23.839  0.00  0.00    +0.077 A 
ATOM     11  C   UNL     1      -0.972   1.151  23.607  0.00  0.00    +0.072 C 
ATOM     12  C   UNL     1      -1.573   1.676  23.815  0.00  0.00    +0.142 C 
ATOM     28  N   UNL     1       0.509   0.888  23.716  0.00  0.00    -0.227 NA
ATOM     29  C   UNL     1       1.119   1.308  24.079  0.00  0.00    +0.198 A 
ATOM     30  N   UNL     1       0.793   1.981  24.427  0.00  0.00    -0.226 NA
ENDROOT
BRANCH  12  13
ATOM     13  C   UNL     1      -2.350   1.525  23.583  0.00  0.00    +0.241 C 
ATOM     14  O   UNL     1      -2.705   1.990  23.001  0.00  0.00    -0.273 OA
ATOM     15  N   UNL     1      -2.771   0.907  23.933  0.00  0.00    -0.278 N 
ATOM     16  C   UNL     1      -3.548   0.756  23.701  0.00  0.00    +0.093 C 
ATOM     17  C   UNL     1      -3.970   0.138  24.051  0.00  0.00    +0.022 C 
ATOM     18  C   UNL     1      -3.614  -0.327  24.632  0.00  0.00    +0.008 C 
ATOM     26  C   UNL     1      -2.837  -0.174  24.863  0.00  0.00    +0.022 C 
ATOM     27  C   UNL     1      -2.416   0.442  24.514  0.00  0.00    +0.093 C 
BRANCH  18  19
ATOM     19  C   UNL     1      -4.036  -0.943  24.981  0.00  0.00    +0.026 C 
BRANCH  19  20
ATOM     20  C   UNL     1      -3.914  -1.720  24.731  0.00  0.00    -0.022 A 
ATOM     21  C   UNL     1      -4.275  -1.993  24.041  0.00  0.00    -0.004 A 
ATOM     22  C   UNL     1      -4.153  -2.770  23.790  0.00  0.00    -0.000 A 
ATOM     23  C   UNL     1      -3.669  -3.273  24.230  0.00  0.00    -0.000 A 
ATOM     24  C   UNL     1      -3.308  -3.001  24.920  0.00  0.00    -0.000 A 
ATOM     25  C   UNL     1      -3.430  -2.224  25.170  0.00  0.00    -0.004 A 
ENDBRANCH  19  20
ENDBRANCH  18  19
ENDBRANCH  12  13
BRANCH   7   6
ATOM      6  C   UNL     1      -1.998   2.876  24.462  0.00  0.00    +0.100 C 
BRANCH   6   5
ATOM      1  C   UNL     1      -1.268   5.999  25.241  0.00  0.00    +0.031 C 
ATOM      2  C   UNL     1      -1.451   5.218  25.046  0.00  0.00    -0.022 A 
ATOM      3  C   UNL     1      -1.379   4.960  24.267  0.00  0.00    -0.005 A 
ATOM      4  C   UNL     1      -1.561   4.180  24.072  0.00  0.00    -0.003 A 
ATOM      5  C   UNL     1      -1.816   3.657  24.657  0.00  0.00    -0.006 A 
ATOM     31  C   UNL     1      -1.888   3.915  25.438  0.00  0.00    -0.003 A 
ATOM     32  C   UNL     1      -1.705   4.696  25.632  0.00  0.00    -0.005 A 
ENDBRANCH   6   5
ENDBRANCH   7   6
TORSDOF 5
ENDMDL
MODEL 5
REMARK VINA RESULT:     -11.9      2.071      4.990
REMARK  Name = 
REMARK  5 active torsions:
REMARK  status: ('A' for Active; 'I' for Inactive)
REMARK    1  A    between atoms: C_5  and  C_6
REMARK    2  A    between atoms: C_6  and  N_7
REMARK    3  A    between atoms: C_12  and  C_13
REMARK    4  A    between atoms: C_18  and  C_19
REMARK    5  A    between atoms: C_19  and  C_20
REMARK                            x       y       z     vdW  Elec       q    Type
REMARK                         _______ _______ _______ _____ _____    ______ ____
ROOT
ATOM      7  N   UNL     1      -0.775   0.017  24.793  0.00  0.00    -0.257 NA
ATOM      8  C   UNL     1      -0.466  -0.477  24.210  0.00  0.00    +0.121 C 
ATOM      9  C   UNL     1       0.087  -0.185  23.672  0.00  0.00    +0.090 A 
ATOM     10  C   UNL     1       0.330   0.602  23.717  0.00  0.00    +0.077 A 
ATOM     11  C   UNL     1       0.020   1.097  24.301  0.00  0.00    +0.072 C 
ATOM     12  C   UNL     1      -0.532   0.804  24.838  0.00  0.00    +0.142 C 
ATOM     28  N   UNL     1       0.878   0.735  23.115  0.00  0.00    -0.227 NA
ATOM     29  C   UNL     1       0.974   0.030  22.698  0.00  0.00    +0.198 A 
ATOM     30  N   UNL     1       0.485  -0.538  23.042  0.00  0.00    -0.226 NA
ENDROOT
BRANCH  12  13
ATOM     13  C   UNL     1      -0.841   1.299  25.421  0.00  0.00    +0.241 C 
ATOM     14  O   UNL     1      -0.580   1.233  26.201  0.00  0.00    -0.273 OA
ATOM     15  N   UNL     1      -1.413   1.862  25.224  0.00  0.00    -0.278 N 
ATOM     16  C   UNL     1      -1.722   2.356  25.807  0.00  0.00    +0.093 C 
ATOM     17  C   UNL     1      -2.293   2.919  25.610  0.00  0.00    +0.022 C 
ATOM     18  C   UNL     1      -2.555   2.986  24.830  0.00  0.00    +0.008 C 
ATOM     26  C   UNL     1      -2.245   2.490  24.248  0.00  0.00    +0.022 C 
ATOM     27  C   UNL     1      -1.674   1.928  24.445  0.00  0.00    +0.093 C 
BRANCH  18  19
ATOM     19  C   UNL     1      -3.125   3.547  24.634  0.00  0.00    +0.026 C 
BRANCH  19  20
ATOM     20  C   UNL     1      -3.916   3.419  24.833  0.00  0.00    -0.022 A 
ATOM     21  C   UNL     1      -4.259   3.845  25.452  0.00  0.00    -0.004 A 
ATOM     22  C   UNL     1      -5.050   3.718  25.651  0.00  0.00    -0.000 A 
ATOM     23  C   UNL     1      -5.496   3.164  25.233  0.00  0.00    -0.000 A 
ATOM     24  C   UNL     1      -5.153   2.739  24.615  0.00  0.00    -0.000 A 
ATOM     25  C   UNL     1      -4.363   2.866  24.416  0.00  0.00    -0.004 A 
ENDBRANCH  19  20
ENDBRANCH  18  19
ENDBRANCH  12  13
BRANCH   7   6
ATOM      6  C   UNL     1      -1.328  -0.275  25.331  0.00  0.00    +0.100 C 
BRANCH   6   5
ATOM      1  C   UNL     1      -3.148  -2.916  24.556  0.00  0.00    +0.031 C 
ATOM      2  C   UNL     1      -2.693  -2.256  24.750  0.00  0.00    -0.022 A 
ATOM      3  C   UNL     1      -1.929  -2.354  25.043  0.00  0.00    -0.005 A 
ATOM      4  C   UNL     1      -1.474  -1.693  25.237  0.00  0.00    -0.003 A 
ATOM      5  C   UNL     1      -1.783  -0.935  25.137  0.00  0.00    -0.006 A 
ATOM     31  C   UNL     1      -2.548  -0.837  24.844  0.00  0.00    -0.003 A 
ATOM     32  C   UNL     1      -3.003  -1.498  24.650  0.00  0.00    -0.005 A 
ENDBRANCH   6   5
ENDBRANCH   7   6
TORSDOF 5
ENDMDL
MODEL 6
REMARK VINA RESULT:     -11.8      1.867      3.802
REMARK  Name = 
REMARK  5 active torsions:
REMARK  status: ('A' for Active; 'I' for Inactive)
REMARK    1  A    between atoms: C_5  and  C_6
REMARK    2  A    between atoms: C_6  and  N_7
REMARK    3  A    between atoms: C_12  and  C_13
REMARK    4  A    between atoms: C_18  and  C_19
REMARK    5  A    between atoms: C_19  and  C_20
REMARK                            x       y       z     vdW  Elec       q    Type
REMARK                         _______ _______ _______ _____ _____    ______ ____
ROOT
ATOM      7  N   UNL     1      -1.025   1.463  24.588  0.00  0.00    -0.257 NA
ATOM      8  C   UNL     1      -0.437   1.383  25.160  0.00  0.00    +0.121 C 
ATOM      9  C   UNL     1      -0.153   2.050  25.555  0.00  0.00    +0.090 A 
ATOM     10  C   UNL     1      -0.457   2.795  25.377  0.00  0.00    +0.077 A 
ATOM     11  C   UNL     1      -1.046   2.875  24.804  0.00  0.00    +0.072 C 
ATOM     12  C   UNL     1      -1.330   2.208  24.410  0.00  0.00    +0.142 C 
ATOM     28  N   UNL     1      -0.073   3.348  25.853  0.00  0.00    -0.227 NA
ATOM     29  C   UNL     1       0.470   2.944  26.325  0.00  0.00    +0.198 A 
ATOM     30  N   UNL     1       0.420   2.142  26.141  0.00  0.00    -0.226 NA
ENDROOT
BRANCH  12  13
ATOM     13  C   UNL     1      -1.918   2.288  23.837  0.00  0.00    +0.241 C 
ATOM     14  O   UNL     1      -1.747   2.135  23.045  0.00  0.00    -0.273 OA
ATOM     15  N   UNL     1      -2.679   2.522  24.058  0.00  0.00    -0.278 N 
ATOM     16  C   UNL     1      -3.267   2.602  23.486  0.00  0.00    +0.093 C 
ATOM     17  C   UNL     1      -4.028   2.835  23.706  0.00  0.00    +0.022 C 
ATOM     18  C   UNL     1      -4.199   2.988  24.499  0.00  0.00    +0.008 C 
ATOM     26  C   UNL     1      -3.609   2.908  25.070  0.00  0.00    +0.022 C 
ATOM     27  C   UNL     1      -2.850   2.675  24.850  0.00  0.00    +0.093 C 
BRANCH  18  19
ATOM     19  C   UNL     1      -4.958   3.221  24.719  0.00  0.00    +0.026 C 
BRANCH  19  20
ATOM     20  C   UNL     1      -5.447   2.699  25.130  0.00  0.00    -0.022 A 
ATOM     21  C   UNL     1      -5.832   2.089  24.727  0.00  0.00    -0.004 A 
ATOM     22  C   UNL     1      -6.320   1.567  25.138  0.00  0.00    -0.000 A 
ATOM     23  C   UNL     1      -6.424   1.654  25.952  0.00  0.00    -0.000 A 
ATOM     24  C   UNL     1      -6.041   2.262  26.354  0.00  0.00    -0.000 A 
ATOM     25  C   UNL     1      -5.552   2.785  25.943  0.00  0.00    -0.004 A 
ENDBRANCH  19  20
ENDBRANCH  18  19
ENDBRANCH  12  13
BRANCH   7   6
ATOM      6  C   UNL     1      -1.309   0.797  24.193  0.00  0.00    +0.100 C 
BRANCH   6   5
ATOM      1  C   UNL     1      -0.585  -2.220  25.317  0.00  0.00    +0.031 C 
ATOM      2  C   UNL     1      -0.766  -1.466  25.036  0.00  0.00    -0.022 A 
ATOM      3  C   UNL     1      -0.292  -1.117  24.459  0.00  0.00    -0.005 A 
ATOM      4  C   UNL     1      -0.473  -0.362  24.178  0.00  0.00    -0.003 A 
ATOM      5  C   UNL     1      -1.128   0.042  24.474  0.00  0.00    -0.006 A 
ATOM     31  C   UNL     1      -1.602  -0.308  25.052  0.00  0.00    -0.003 A 
ATOM     32  C   UNL     1      -1.421  -1.062  25.333  0.00  0.00    -0.005 A 
ENDBRANCH   6   5
ENDBRANCH   7   6
TORSDOF 5
ENDMDL
MODEL 7
REMARK VINA RESULT:     -11.2      2.114      2.755
REMARK  Name = 
REMARK  5 active torsions:
REMARK  status: ('A' for Active; 'I' for Inactive)
REMARK    1  A    between atoms: C_5  and  C_6
REMARK    2  A    between atoms: C_6  and  N_7
REMARK    3  A    between atoms: C_12  and  C_13
REMARK    4  A    between atoms: C_18  and  C_19
REMARK    5  A    between atoms: C_19  and  C_20
REMARK                            x       y       z     vdW  Elec       q    Type
REMARK                         _______ _______ _______ _____ _____    ______ ____
ROOT
ATOM      7  N   UNL     1      -0.539   1.621  24.253  0.00  0.00    -0.257 NA
ATOM      8  C   UNL     1       0.103   1.759  24.751  0.00  0.00    +0.121 C 
ATOM      9  C   UNL     1      -0.009   2.147  25.470  0.00  0.00    +0.090 A 
ATOM     10  C   UNL     1      -0.763   2.396  25.692  0.00  0.00    +0.077 A 
ATOM     11  C   UNL     1      -1.407   2.257  25.193  0.00  0.00    +0.072 C 
ATOM     12  C   UNL     1      -1.294   1.870  24.474  0.00  0.00    +0.142 C 
ATOM     28  N   UNL     1      -0.705   2.762  26.428  0.00  0.00    -0.227 NA
ATOM     29  C   UNL     1       0.085   2.740  26.662  0.00  0.00    +0.198 A 
ATOM     30  N   UNL     1       0.515   2.359  26.070  0.00  0.00    -0.226 NA
ENDROOT
BRANCH  12  13
ATOM     13  C   UNL     1      -1.937   1.731  23.976  0.00  0.00    +0.241 C 
ATOM     14  O   UNL     1      -2.021   2.164  23.279  0.00  0.00    -0.273 OA
ATOM     15  N   UNL     1      -2.498   1.159  24.177  0.00  0.00    -0.278 N 
ATOM     16  C   UNL     1      -3.141   1.020  23.679  0.00  0.00    +0.093 C 
ATOM     17  C   UNL     1      -3.701   0.448  23.879  0.00  0.00    +0.022 C 
ATOM     18  C   UNL     1      -3.618   0.015  24.577  0.00  0.00    +0.008 C 
ATOM     26  C   UNL     1      -2.974   0.155  25.074  0.00  0.00    +0.022 C 
ATOM     27  C   UNL     1      -2.414   0.726  24.874  0.00  0.00    +0.093 C 
BRANCH  18  19
ATOM     19  C   UNL     1      -4.178  -0.556  24.777  0.00  0.00    +0.026 C 
BRANCH  19  20
ATOM     20  C   UNL     1      -4.029  -1.352  24.618  0.00  0.00    -0.022 A 
ATOM     21  C   UNL     1      -4.303  -1.692  23.917  0.00  0.00    -0.004 A 
ATOM     22  C   UNL     1      -4.155  -2.488  23.759  0.00  0.00    -0.000 A 
ATOM     23  C   UNL     1      -3.732  -2.944  24.301  0.00  0.00    -0.000 A 
ATOM     24  C   UNL     1      -3.458  -2.605  25.001  0.00  0.00    -0.000 A 
ATOM     25  C   UNL     1      -3.607  -1.809  25.160  0.00  0.00    -0.004 A 
ENDBRANCH  19  20
ENDBRANCH  18  19
ENDBRANCH  12  13
BRANCH   7   6
ATOM      6  C   UNL     1      -0.428   1.233  23.534  0.00  0.00    +0.100 C 
BRANCH   6   5
ATOM      1  C   UNL     1       2.430  -0.296  22.910  0.00  0.00    +0.031 C 
ATOM      2  C   UNL     1       1.715   0.087  23.066  0.00  0.00    -0.022 A 
ATOM      3  C   UNL     1       1.675   0.910  23.043  0.00  0.00    -0.005 A 
ATOM      4  C   UNL     1       0.960   1.292  23.199  0.00  0.00    -0.003 A 
ATOM      5  C   UNL     1       0.287   0.851  23.378  0.00  0.00    -0.006 A 
ATOM     31  C   UNL     1       0.328   0.026  23.401  0.00  0.00    -0.003 A 
ATOM     32  C   UNL     1       1.042  -0.356  23.245  0.00  0.00    -0.005 A 
ENDBRANCH   6   5
ENDBRANCH   7   6
TORSDOF 5
ENDMDL
MODEL 8
REMARK VINA RESULT:     -11.2      1.444      2.874
REMARK  Name = 
REMARK  5 active torsions:
REMARK  status: ('A' for Active; 'I' for Inactive)
REMARK    1  A    between atoms: C_5  and  C_6
REMARK    2  A    between atoms: C_6  and  N_7
REMARK    3  A    between atoms: C_12  and  C_13
REMARK    4  A    between atoms: C_18  and  C_19
REMARK    5  A    between atoms: C_19  and  C_20
REMARK                            x       y       z     vdW  Elec       q    Type
REMARK                         _______ _______ _______ _____ _____    ______ ____
ROOT
ATOM      7  N   UNL     1      -2.614   2.974  24.315  0.00  0.00    -0.257 NA
ATOM      8  C   UNL     1      -2.518   3.654  24.771  0.00  0.00    +0.121 C 
ATOM      9  C   UNL     1      -1.761   3.927  24.952  0.00  0.00    +0.090 A 
ATOM     10  C   UNL     1      -1.099   3.519  24.676  0.00  0.00    +0.077 A 
ATOM     11  C   UNL     1      -1.194   2.837  24.219  0.00  0.00    +0.072 C 
ATOM     12  C   UNL     1      -1.952   2.565  24.039  0.00  0.00    +0.142 C 
ATOM     28  N   UNL     1      -0.426   3.916  24.940  0.00  0.00    -0.227 NA
ATOM     29  C   UNL     1      -0.672   4.569  25.379  0.00  0.00    +0.198 A 
ATOM     30  N   UNL     1      -1.496   4.576  25.386  0.00  0.00    -0.226 NA
ENDROOT
BRANCH  12  13
ATOM     13  C   UNL     1      -2.047   1.885  23.583  0.00  0.00    +0.241 C 
ATOM     14  O   UNL     1      -2.262   1.946  22.789  0.00  0.00    -0.273 OA
ATOM     15  N   UNL     1      -1.926   1.142  23.921  0.00  0.00    -0.278 N 
ATOM     16  C   UNL     1      -2.021   0.461  23.465  0.00  0.00    +0.093 C 
ATOM     17  C   UNL     1      -1.900  -0.282  23.804  0.00  0.00    +0.022 C 
ATOM     18  C   UNL     1      -1.684  -0.344  24.598  0.00  0.00    +0.008 C 
ATOM     26  C   UNL     1      -1.589   0.338  25.053  0.00  0.00    +0.022 C 
ATOM     27  C   UNL     1      -1.710   1.080  24.715  0.00  0.00    +0.093 C 
BRANCH  18  19
ATOM     19  C   UNL     1      -1.563  -1.086  24.936  0.00  0.00    +0.026 C 
BRANCH  19  20
ATOM     20  C   UNL     1      -2.194  -1.614  25.008  0.00  0.00    -0.022 A 
ATOM     21  C   UNL     1      -2.242  -2.270  24.510  0.00  0.00    -0.004 A 
ATOM     22  C   UNL     1      -2.872  -2.798  24.583  0.00  0.00    -0.000 A 
ATOM     23  C   UNL     1      -3.454  -2.669  25.153  0.00  0.00    -0.000 A 
ATOM     24  C   UNL     1      -3.406  -2.013  25.651  0.00  0.00    -0.000 A 
ATOM     25  C   UNL     1      -2.776  -1.486  25.578  0.00  0.00    -0.004 A 
ENDBRANCH  19  20
ENDBRANCH  18  19
ENDBRANCH  12  13
BRANCH   7   6
ATOM      6  C   UNL     1      -3.371   2.701  24.134  0.00  0.00    +0.100 C 
BRANCH   6   5
ATOM      1  C   UNL     1      -5.977   3.846  25.802  0.00  0.00    +0.031 C 
ATOM      2  C   UNL     1      -5.326   3.560  25.385  0.00  0.00    -0.022 A 
ATOM      3  C   UNL     1      -5.025   3.987  24.748  0.00  0.00    -0.005 A 
ATOM      4  C   UNL     1      -4.373   3.701  24.331  0.00  0.00    -0.003 A 
ATOM      5  C   UNL     1      -4.022   2.987  24.551  0.00  0.00    -0.006 A 
ATOM     31  C   UNL     1      -4.324   2.560  25.190  0.00  0.00    -0.003 A 
ATOM     32  C   UNL     1      -4.976   2.846  25.607  0.00  0.00    -0.005 A 
ENDBRANCH   6   5
ENDBRANCH   7   6
TORSDOF 5
ENDMDL
MODEL 9
REMARK VINA RESULT:     -10.8      2.666      4.422
REMARK  Name = 
REMARK  5 active torsions:
REMARK  status: ('A' for Active; 'I' for Inactive)
REMARK    1  A    between atoms: C_5  and  C_6
REMARK    2  A    between atoms: C_6  and  N_7
REMARK    3  A    between atoms: C_12  and  C_13
REMARK    4  A    between atoms: C_18  and  C_19
REMARK    5  A    between atoms: C_19  and  C_20
REMARK                            x       y       z     vdW  Elec       q    Type
REMARK                         _______ _______ _______ _____ _____    ______ ____
ROOT
ATOM      7  N   UNL     1      -0.388   0.409  24.345  0.00  0.00    -0.257 NA
ATOM      8  C   UNL     1      -0.228  -0.400  24.325  0.00  0.00    +0.121 C 
ATOM      9  C   UNL     1      -0.599  -0.908  24.859  0.00  0.00    +0.090 A 
ATOM     10  C   UNL     1      -1.131  -0.606  25.414  0.00  0.00    +0.077 A 
ATOM     11  C   UNL     1      -1.291   0.204  25.434  0.00  0.00    +0.072 C 
ATOM     12  C   UNL     1      -0.919   0.710  24.899  0.00  0.00    +0.142 C 
ATOM     28  N   UNL     1      -1.411  -1.235  25.867  0.00  0.00    -0.227 NA
ATOM     29  C   UNL     1      -1.053  -1.926  25.593  0.00  0.00    +0.198 A 
ATOM     30  N   UNL     1      -0.552  -1.723  24.971  0.00  0.00    -0.226 NA
ENDROOT
BRANCH  12  13
ATOM     13  C   UNL     1      -1.079   1.519  24.920  0.00  0.00    +0.241 C 
ATOM     14  O   UNL     1      -0.493   2.051  25.154  0.00  0.00    -0.273 OA
ATOM     15  N   UNL     1      -1.827   1.797  24.706  0.00  0.00    -0.278 N 
ATOM     16  C   UNL     1      -1.987   2.606  24.727  0.00  0.00    +0.093 C 
ATOM     17  C   UNL     1      -2.735   2.883  24.513  0.00  0.00    +0.022 C 
ATOM     18  C   UNL     1      -3.321   2.352  24.280  0.00  0.00    +0.008 C 
ATOM     26  C   UNL     1      -3.159   1.543  24.259  0.00  0.00    +0.022 C 
ATOM     27  C   UNL     1      -2.413   1.266  24.473  0.00  0.00    +0.093 C 
BRANCH  18  19
ATOM     19  C   UNL     1      -4.067   2.629  24.066  0.00  0.00    +0.026 C 
BRANCH  19  20
ATOM     20  C   UNL     1      -4.678   2.637  24.621  0.00  0.00    -0.022 A 
ATOM     21  C   UNL     1      -5.184   1.987  24.687  0.00  0.00    -0.004 A 
ATOM     22  C   UNL     1      -5.795   1.994  25.241  0.00  0.00    -0.000 A 
ATOM     23  C   UNL     1      -5.901   2.651  25.729  0.00  0.00    -0.000 A 
ATOM     24  C   UNL     1      -5.396   3.300  25.663  0.00  0.00    -0.000 A 
ATOM     25  C   UNL     1      -4.785   3.293  25.109  0.00  0.00    -0.004 A 
ENDBRANCH  19  20
ENDBRANCH  18  19
ENDBRANCH  12  13
BRANCH   7   6
ATOM      6  C   UNL     1      -0.017   0.915  23.811  0.00  0.00    +0.100 C 
BRANCH   6   5
ATOM      1  C   UNL     1       2.743  -0.040  22.275  0.00  0.00    +0.031 C 
ATOM      2  C   UNL     1       2.053   0.199  22.659  0.00  0.00    -0.022 A 
ATOM      3  C   UNL     1       1.321  -0.072  22.396  0.00  0.00    -0.005 A 
ATOM      4  C   UNL     1       0.631   0.167  22.780  0.00  0.00    -0.003 A 
ATOM      5  C   UNL     1       0.673   0.677  23.427  0.00  0.00    -0.006 A 
ATOM     31  C   UNL     1       1.407   0.948  23.690  0.00  0.00    -0.003 A 
ATOM     32  C   UNL     1       2.097   0.709  23.306  0.00  0.00    -0.005 A 
ENDBRANCH   6   5
ENDBRANCH   7   6
TORSDOF 5
ENDMDL
