REMARK  Name = 
REMARK  7 active torsions:
REMARK  status: ('A' for Active; 'I' for Inactive)
REMARK    1  A    between atoms: C_2  and  N_4
REMARK    2  A    between atoms: C_12  and  C_13
REMARK    3  A    between atoms: N_15  and  C_16
REMARK    4  A    between atoms: C_16  and  C_17
REMARK    5  A    between atoms: C_16  and  C_24
REMARK    6  A    between atoms: C_17  and  C_18
REMARK    7  A    between atoms: N_29  and  C_30
REMARK                            x       y       z     vdW  Elec       q    Type
REMARK                         _______ _______ _______ _____ _____    ______ ____
ROOT
ATOM      4  N   UNL     1       2.143  -5.362   0.000  0.00  0.00    -0.190 NA
ATOM      5  C   UNL     1       1.429  -4.950   0.000  0.00  0.00    +0.324 C 
ATOM      6  O   UNL     1       0.715  -5.362   0.000  0.00  0.00    -0.251 OA
ATOM      7  N   UNL     1       1.429  -4.125   0.000  0.00  0.00    -0.253 N 
ATOM      8  C   UNL     1       0.715  -3.712   0.000  0.00  0.00    +0.117 C 
ATOM      9  C   UNL     1       0.715  -2.888   0.000  0.00  0.00    +0.117 C 
ATOM     10  N   UNL     1       1.429  -2.475   0.000  0.00  0.00    -0.259 N 
ATOM     11  C   UNL     1       2.143  -2.888   0.000  0.00  0.00    +0.124 C 
ATOM     12  C   UNL     1       2.143  -3.712   0.000  0.00  0.00    +0.175 C 
ATOM     27  C   UNL     1       1.429  -1.650   0.000  0.00  0.00    +0.328 C 
ATOM     28  O   UNL     1       2.143  -1.238   0.000  0.00  0.00    -0.250 OA
ATOM     29  N   UNL     1       0.715  -1.238   0.000  0.00  0.00    -0.162 NA
ENDROOT
BRANCH  29  30
ATOM     30  C   UNL     1       0.715  -0.412   0.000  0.00  0.00    +0.075 A 
ATOM     31  C   UNL     1       0.000   0.000   0.000  0.00  0.00    +0.017 A 
ATOM     32  C   UNL     1       0.000   0.825   0.000  0.00  0.00    +0.001 A 
ATOM     33  C   UNL     1       0.715   1.238   0.000  0.00  0.00    +0.000 A 
ATOM     34  C   UNL     1       1.429   0.825   0.000  0.00  0.00    +0.001 A 
ATOM     35  C   UNL     1       1.429   0.000   0.000  0.00  0.00    +0.017 A 
ENDBRANCH  29  30
BRANCH   4   2
ATOM      1  C   UNL     1       2.858  -6.600   0.000  0.00  0.00    +0.023 C 
ATOM      2  C   UNL     1       2.143  -6.188   0.000  0.00  0.00    +0.097 C 
ATOM      3  C   UNL     1       1.429  -6.600   0.000  0.00  0.00    +0.023 C 
ENDBRANCH   4   2
BRANCH  12  13
ATOM     13  C   UNL     1       2.858  -4.125   0.000  0.00  0.00    +0.262 C 
ATOM     14  O   UNL     1       3.572  -3.712   0.000  0.00  0.00    -0.271 OA
ATOM     15  N   UNL     1       2.858  -4.950   0.000  0.00  0.00    -0.196 NA
BRANCH  15  16
ATOM     16  C   UNL     1       3.572  -5.362   0.000  0.00  0.00    +0.174 C 
BRANCH  16  24
ATOM     24  C   UNL     1       4.287  -4.950   0.000  0.00  0.00    +0.281 C 
ATOM     25  N   UNL     1       4.287  -4.125   0.000  0.00  0.00    -0.086 NA
ATOM     26  O   UNL     1       5.001  -5.362   0.000  0.00  0.00    -0.270 OA
ENDBRANCH  16  24
BRANCH  16  17
ATOM     17  C   UNL     1       3.572  -6.188   0.000  0.00  0.00    +0.031 C 
BRANCH  17  18
ATOM     18  C   UNL     1       4.287  -6.600   0.000  0.00  0.00    +0.002 C 
ATOM     19  C   UNL     1       5.001  -6.188   0.000  0.00  0.00    +0.000 C 
ATOM     20  C   UNL     1       5.716  -6.600   0.000  0.00  0.00    +0.000 C 
ATOM     21  C   UNL     1       5.716  -7.425   0.000  0.00  0.00    +0.000 C 
ATOM     22  C   UNL     1       5.001  -7.838   0.000  0.00  0.00    +0.000 C 
ATOM     23  C   UNL     1       4.287  -7.425   0.000  0.00  0.00    +0.000 C 
ENDBRANCH  17  18
ENDBRANCH  16  17
ENDBRANCH  15  16
ENDBRANCH  12  13
TORSDOF 7
