MODEL 1
REMARK VINA RESULT:      -8.1      0.000      0.000
REMARK  Name = 
REMARK  7 active torsions:
REMARK  status: ('A' for Active; 'I' for Inactive)
REMARK    1  A    between atoms: O_2  and  C_3
REMARK    2  A    between atoms: C_3  and  C_4
REMARK    3  A    between atoms: N_13  and  C_14
REMARK    4  A    between atoms: C_14  and  C_15
REMARK    5  A    between atoms: C_15  and  C_16
REMARK    6  A    between atoms: C_17  and  O_18
REMARK    7  A    between atoms: C_20  and  O_21
REMARK                            x       y       z     vdW  Elec       q    Type
REMARK                         _______ _______ _______ _____ _____    ______ ____
ROOT
ATOM      4  C   UNL     1       1.073   0.332  23.083  0.00  0.00    +0.256 C 
ATOM      5  O   UNL     1       0.692  -0.238  22.623  0.00  0.00    -0.272 OA
ATOM      6  N   UNL     1       0.628   0.877  23.514  0.00  0.00    -0.278 N 
ATOM      7  C   UNL     1       1.009   1.446  23.974  0.00  0.00    +0.093 C 
ATOM      8  C   UNL     1       0.566   1.992  24.406  0.00  0.00    +0.022 C 
ATOM      9  C   UNL     1      -0.259   1.969  24.377  0.00  0.00    +0.012 C 
ATOM     10  C   UNL     1      -0.593   2.560  24.846  0.00  0.00    +0.085 C 
ATOM     11  C   UNL     1      -1.392   2.726  24.970  0.00  0.00    +0.226 C 
ATOM     12  O   UNL     1      -1.550   3.359  25.475  0.00  0.00    -0.275 OA
ATOM     13  N   UNL     1      -2.052   2.345  24.656  0.00  0.00    -0.279 N 
ATOM     26  C   UNL     1      -2.077   1.701  24.141  0.00  0.00    +0.093 C 
ATOM     27  C   UNL     1      -1.449   1.280  23.812  0.00  0.00    +0.023 C 
ATOM     28  C   UNL     1      -0.639   1.399  23.917  0.00  0.00    +0.022 C 
ATOM     29  C   UNL     1      -0.195   0.854  23.486  0.00  0.00    +0.093 C 
ENDROOT
BRANCH   4   3
ATOM      3  C   UNL     1       1.896   0.355  23.112  0.00  0.00    +0.227 C 
BRANCH   3   2
ATOM      1  C   UNL     1       3.153   0.135  22.468  0.00  0.00    +0.175 C 
ATOM      2  O   UNL     1       2.341   0.001  22.513  0.00  0.00    -0.342 OA
ENDBRANCH   3   2
ENDBRANCH   4   3
BRANCH  13  14
ATOM     14  C   UNL     1      -2.784   2.646  24.889  0.00  0.00    +0.098 C 
BRANCH  14  15
ATOM     15  C   UNL     1      -3.462   2.183  24.817  0.00  0.00    +0.051 C 
BRANCH  15  16
ATOM     16  C   UNL     1      -4.190   2.474  25.074  0.00  0.00    +0.017 A 
ATOM     17  C   UNL     1      -4.771   1.954  25.345  0.00  0.00    +0.168 A 
ATOM     20  C   UNL     1      -5.498   2.246  25.602  0.00  0.00    +0.172 A 
ATOM     23  C   UNL     1      -5.645   3.058  25.588  0.00  0.00    +0.040 A 
ATOM     24  C   UNL     1      -5.065   3.577  25.318  0.00  0.00    +0.003 A 
ATOM     25  C   UNL     1      -4.337   3.286  25.061  0.00  0.00    -0.001 A 
BRANCH  17  18
ATOM     18  O   UNL     1      -4.623   1.143  25.359  0.00  0.00    -0.469 OA
ATOM     19  C   UNL     1      -4.987   0.648  24.807  0.00  0.00    +0.253 C 
ENDBRANCH  17  18
BRANCH  20  21
ATOM     21  O   UNL     1      -6.078   1.726  25.873  0.00  0.00    -0.468 OA
ATOM     22  C   UNL     1      -6.627   1.976  26.436  0.00  0.00    +0.253 C 
ENDBRANCH  20  21
ENDBRANCH  15  16
ENDBRANCH  14  15
ENDBRANCH  13  14
TORSDOF 7
ENDMDL
MODEL 2
REMARK VINA RESULT:      -7.8      1.238      1.887
REMARK  Name = 
REMARK  7 active torsions:
REMARK  status: ('A' for Active; 'I' for Inactive)
REMARK    1  A    between atoms: O_2  and  C_3
REMARK    2  A    between atoms: C_3  and  C_4
REMARK    3  A    between atoms: N_13  and  C_14
REMARK    4  A    between atoms: C_14  and  C_15
REMARK    5  A    between atoms: C_15  and  C_16
REMARK    6  A    between atoms: C_17  and  O_18
REMARK    7  A    between atoms: C_20  and  O_21
REMARK                            x       y       z     vdW  Elec       q    Type
REMARK                         _______ _______ _______ _____ _____    ______ ____
ROOT
ATOM      4  C   UNL     1       1.327   0.228  23.122  0.00  0.00    +0.256 C 
ATOM      5  O   UNL     1       1.450   0.949  22.742  0.00  0.00    -0.272 OA
ATOM      6  N   UNL     1       0.608   0.077  23.499  0.00  0.00    -0.278 N 
ATOM      7  C   UNL     1       0.485  -0.645  23.879  0.00  0.00    +0.093 C 
ATOM      8  C   UNL     1      -0.233  -0.796  24.256  0.00  0.00    +0.022 C 
ATOM      9  C   UNL     1      -0.828  -0.224  24.253  0.00  0.00    +0.012 C 
ATOM     10  C   UNL     1      -1.498  -0.485  24.659  0.00  0.00    +0.085 C 
ATOM     11  C   UNL     1      -2.210  -0.088  24.784  0.00  0.00    +0.226 C 
ATOM     12  O   UNL     1      -2.778  -0.501  25.216  0.00  0.00    -0.275 OA
ATOM     13  N   UNL     1      -2.428   0.668  24.536  0.00  0.00    -0.279 N 
ATOM     26  C   UNL     1      -1.988   1.213  24.100  0.00  0.00    +0.093 C 
ATOM     27  C   UNL     1      -1.222   1.137  23.805  0.00  0.00    +0.023 C 
ATOM     28  C   UNL     1      -0.706   0.498  23.873  0.00  0.00    +0.022 C 
ATOM     29  C   UNL     1       0.013   0.648  23.496  0.00  0.00    +0.093 C 
ENDROOT
BRANCH   4   3
ATOM      3  C   UNL     1       1.922  -0.343  23.125  0.00  0.00    +0.227 C 
BRANCH   3   2
ATOM      1  C   UNL     1       3.331  -0.547  23.010  0.00  0.00    +0.175 C 
ATOM      2  O   UNL     1       2.636  -0.197  22.738  0.00  0.00    -0.342 OA
ENDBRANCH   3   2
ENDBRANCH   4   3
BRANCH  13  14
ATOM     14  C   UNL     1      -3.187   0.910  24.752  0.00  0.00    +0.098 C 
BRANCH  14  15
ATOM     15  C   UNL     1      -3.384   1.710  24.732  0.00  0.00    +0.051 C 
BRANCH  15  16
ATOM     16  C   UNL     1      -4.157   1.948  24.896  0.00  0.00    +0.017 A 
ATOM     17  C   UNL     1      -4.312   2.731  25.110  0.00  0.00    +0.168 A 
ATOM     20  C   UNL     1      -5.085   2.968  25.273  0.00  0.00    +0.172 A 
ATOM     23  C   UNL     1      -5.703   2.424  25.223  0.00  0.00    +0.040 A 
ATOM     24  C   UNL     1      -5.549   1.643  25.009  0.00  0.00    +0.003 A 
ATOM     25  C   UNL     1      -4.776   1.405  24.845  0.00  0.00    -0.001 A 
BRANCH  17  18
ATOM     18  O   UNL     1      -3.693   3.274  25.160  0.00  0.00    -0.469 OA
ATOM     19  C   UNL     1      -3.638   3.887  24.610  0.00  0.00    +0.253 C 
ENDBRANCH  17  18
BRANCH  20  21
ATOM     21  O   UNL     1      -5.239   3.749  25.487  0.00  0.00    -0.468 OA
ATOM     22  C   UNL     1      -5.994   3.967  25.740  0.00  0.00    +0.253 C 
ENDBRANCH  20  21
ENDBRANCH  15  16
ENDBRANCH  14  15
ENDBRANCH  13  14
TORSDOF 7
ENDMDL
MODEL 3
REMARK VINA RESULT:      -7.8      2.787      4.622
REMARK  Name = 
REMARK  7 active torsions:
REMARK  status: ('A' for Active; 'I' for Inactive)
REMARK    1  A    between atoms: O_2  and  C_3
REMARK    2  A    between atoms: C_3  and  C_4
REMARK    3  A    between atoms: N_13  and  C_14
REMARK    4  A    between atoms: C_14  and  C_15
REMARK    5  A    between atoms: C_15  and  C_16
REMARK    6  A    between atoms: C_17  and  O_18
REMARK    7  A    between atoms: C_20  and  O_21
REMARK                            x       y       z     vdW  Elec       q    Type
REMARK                         _______ _______ _______ _____ _____    ______ ____
ROOT
ATOM      4  C   UNL     1      -1.577   4.298  25.037  0.00  0.00    +0.256 C 
ATOM      5  O   UNL     1      -0.829   3.988  24.878  0.00  0.00    -0.272 OA
ATOM      6  N   UNL     1      -2.238   3.805  25.021  0.00  0.00    -0.278 N 
ATOM      7  C   UNL     1      -2.986   4.114  25.181  0.00  0.00    +0.093 C 
ATOM      8  C   UNL     1      -3.649   3.623  25.165  0.00  0.00    +0.022 C 
ATOM      9  C   UNL     1      -3.562   2.820  24.990  0.00  0.00    +0.012 C 
ATOM     10  C   UNL     1      -4.289   2.429  25.003  0.00  0.00    +0.085 C 
ATOM     11  C   UNL     1      -4.446   1.633  24.860  0.00  0.00    +0.226 C 
ATOM     12  O   UNL     1      -5.238   1.409  24.916  0.00  0.00    -0.275 OA
ATOM     13  N   UNL     1      -3.917   1.030  24.669  0.00  0.00    -0.279 N 
ATOM     26  C   UNL     1      -3.099   1.075  24.573  0.00  0.00    +0.093 C 
ATOM     27  C   UNL     1      -2.608   1.734  24.645  0.00  0.00    +0.023 C 
ATOM     28  C   UNL     1      -2.814   2.511  24.830  0.00  0.00    +0.022 C 
ATOM     29  C   UNL     1      -2.153   3.004  24.846  0.00  0.00    +0.093 C 
ENDROOT
BRANCH   4   3
ATOM      3  C   UNL     1      -1.662   5.099  25.212  0.00  0.00    +0.227 C 
BRANCH   3   2
ATOM      1  C   UNL     1      -1.256   6.438  24.924  0.00  0.00    +0.175 C 
ATOM      2  O   UNL     1      -1.077   5.636  24.988  0.00  0.00    -0.342 OA
ENDBRANCH   3   2
ENDBRANCH   4   3
BRANCH  13  14
ATOM     14  C   UNL     1      -4.249   0.283  24.559  0.00  0.00    +0.098 C 
BRANCH  14  15
ATOM     15  C   UNL     1      -3.946  -0.367  24.965  0.00  0.00    +0.051 C 
BRANCH  15  16
ATOM     16  C   UNL     1      -3.987  -1.119  24.628  0.00  0.00    +0.017 A 
ATOM     17  C   UNL     1      -3.532  -1.735  24.937  0.00  0.00    +0.168 A 
ATOM     20  C   UNL     1      -3.573  -2.487  24.600  0.00  0.00    +0.172 A 
ATOM     23  C   UNL     1      -4.069  -2.624  23.955  0.00  0.00    +0.040 A 
ATOM     24  C   UNL     1      -4.523  -2.009  23.647  0.00  0.00    +0.003 A 
ATOM     25  C   UNL     1      -4.482  -1.257  23.983  0.00  0.00    -0.001 A 
BRANCH  17  18
ATOM     18  O   UNL     1      -3.036  -1.598  25.582  0.00  0.00    -0.469 OA
ATOM     19  C   UNL     1      -3.295  -1.775  26.346  0.00  0.00    +0.253 C 
ENDBRANCH  17  18
BRANCH  20  21
ATOM     21  O   UNL     1      -3.118  -3.102  24.909  0.00  0.00    -0.468 OA
ATOM     22  C   UNL     1      -2.759  -3.645  24.402  0.00  0.00    +0.253 C 
ENDBRANCH  20  21
ENDBRANCH  15  16
ENDBRANCH  14  15
ENDBRANCH  13  14
TORSDOF 7
ENDMDL
MODEL 4
REMARK VINA RESULT:      -7.5      2.544      4.597
REMARK  Name = 
REMARK  7 active torsions:
REMARK  status: ('A' for Active; 'I' for Inactive)
REMARK    1  A    between atoms: O_2  and  C_3
REMARK    2  A    between atoms: C_3  and  C_4
REMARK    3  A    between atoms: N_13  and  C_14
REMARK    4  A    between atoms: C_14  and  C_15
REMARK    5  A    between atoms: C_15  and  C_16
REMARK    6  A    between atoms: C_17  and  O_18
REMARK    7  A    between atoms: C_20  and  O_21
REMARK                            x       y       z     vdW  Elec       q    Type
REMARK                         _______ _______ _______ _____ _____    ______ ____
ROOT
ATOM      4  C   UNL     1      -3.302  -2.298  24.510  0.00  0.00    +0.256 C 
ATOM      5  O   UNL     1      -2.545  -2.495  24.773  0.00  0.00    -0.272 OA
ATOM      6  N   UNL     1      -3.541  -1.508  24.499  0.00  0.00    -0.278 N 
ATOM      7  C   UNL     1      -4.298  -1.311  24.236  0.00  0.00    +0.093 C 
ATOM      8  C   UNL     1      -4.539  -0.522  24.225  0.00  0.00    +0.022 C 
ATOM      9  C   UNL     1      -4.021   0.070  24.476  0.00  0.00    +0.012 C 
ATOM     10  C   UNL     1      -4.369   0.817  24.421  0.00  0.00    +0.085 C 
ATOM     11  C   UNL     1      -4.044   1.550  24.615  0.00  0.00    +0.226 C 
ATOM     12  O   UNL     1      -4.537   2.201  24.496  0.00  0.00    -0.275 OA
ATOM     13  N   UNL     1      -3.294   1.718  24.911  0.00  0.00    -0.279 N 
ATOM     26  C   UNL     1      -2.681   1.195  25.088  0.00  0.00    +0.093 C 
ATOM     27  C   UNL     1      -2.668   0.373  25.011  0.00  0.00    +0.023 C 
ATOM     28  C   UNL     1      -3.265  -0.127  24.739  0.00  0.00    +0.022 C 
ATOM     29  C   UNL     1      -3.025  -0.917  24.750  0.00  0.00    +0.093 C 
ENDROOT
BRANCH   4   3
ATOM      3  C   UNL     1      -3.818  -2.889  24.259  0.00  0.00    +0.227 C 
BRANCH   3   2
ATOM      1  C   UNL     1      -3.947  -4.210  23.728  0.00  0.00    +0.175 C 
ATOM      2  O   UNL     1      -3.562  -3.673  24.221  0.00  0.00    -0.342 OA
ENDBRANCH   3   2
ENDBRANCH   4   3
BRANCH  13  14
ATOM     14  C   UNL     1      -3.134   2.516  25.050  0.00  0.00    +0.098 C 
BRANCH  14  15
ATOM     15  C   UNL     1      -2.354   2.778  25.093  0.00  0.00    +0.051 C 
BRANCH  15  16
ATOM     16  C   UNL     1      -2.194   3.577  25.224  0.00  0.00    +0.017 A 
ATOM     17  C   UNL     1      -1.504   3.915  24.921  0.00  0.00    +0.168 A 
ATOM     20  C   UNL     1      -1.344   4.714  25.052  0.00  0.00    +0.172 A 
ATOM     23  C   UNL     1      -1.874   5.174  25.486  0.00  0.00    +0.040 A 
ATOM     24  C   UNL     1      -2.563   4.837  25.788  0.00  0.00    +0.003 A 
ATOM     25  C   UNL     1      -2.723   4.038  25.657  0.00  0.00    -0.001 A 
BRANCH  17  18
ATOM     18  O   UNL     1      -0.975   3.454  24.488  0.00  0.00    -0.469 OA
ATOM     19  C   UNL     1      -0.251   3.236  24.819  0.00  0.00    +0.253 C 
ENDBRANCH  17  18
BRANCH  20  21
ATOM     21  O   UNL     1      -0.656   5.051  24.750  0.00  0.00    -0.468 OA
ATOM     22  C   UNL     1      -0.589   5.872  24.689  0.00  0.00    +0.253 C 
ENDBRANCH  20  21
ENDBRANCH  15  16
ENDBRANCH  14  15
ENDBRANCH  13  14
TORSDOF 7
ENDMDL
MODEL 5
REMARK VINA RESULT:      -6.7      2.509      4.415
REMARK  Name = 
REMARK  7 active torsions:
REMARK  status: ('A' for Active; 'I' for Inactive)
REMARK    1  A    between atoms: O_2  and  C_3
REMARK    2  A    between atoms: C_3  and  C_4
REMARK    3  A    between atoms: N_13  and  C_14
REMARK    4  A    between atoms: C_14  and  C_15
REMARK    5  A    between atoms: C_15  and  C_16
REMARK    6  A    between atoms: C_17  and  O_18
REMARK    7  A    between atoms: C_20  and  O_21
REMARK                            x       y       z     vdW  Elec       q    Type
REMARK                         _______ _______ _______ _____ _____    ______ ____
ROOT
ATOM      4  C   UNL     1      -1.520   4.301  25.244  0.00  0.00    +0.256 C 
ATOM      5  O   UNL     1      -2.231   4.467  25.628  0.00  0.00    -0.272 OA
ATOM      6  N   UNL     1      -1.338   3.524  25.033  0.00  0.00    -0.278 N 
ATOM      7  C   UNL     1      -0.626   3.358  24.650  0.00  0.00    +0.093 C 
ATOM      8  C   UNL     1      -0.443   2.582  24.438  0.00  0.00    +0.022 C 
ATOM      9  C   UNL     1      -0.972   1.972  24.610  0.00  0.00    +0.012 C 
ATOM     10  C   UNL     1      -0.684   1.242  24.353  0.00  0.00    +0.085 C 
ATOM     11  C   UNL     1      -1.037   0.500  24.416  0.00  0.00    +0.226 C 
ATOM     12  O   UNL     1      -0.606  -0.129  24.102  0.00  0.00    -0.275 OA
ATOM     13  N   UNL     1      -1.764   0.302  24.751  0.00  0.00    -0.279 N 
ATOM     26  C   UNL     1      -2.318   0.800  25.107  0.00  0.00    +0.093 C 
ATOM     27  C   UNL     1      -2.283   1.617  25.214  0.00  0.00    +0.023 C 
ATOM     28  C   UNL     1      -1.683   2.138  24.993  0.00  0.00    +0.022 C 
ATOM     29  C   UNL     1      -1.866   2.915  25.205  0.00  0.00    +0.093 C 
ENDROOT
BRANCH   4   3
ATOM      3  C   UNL     1      -0.992   4.910  25.073  0.00  0.00    +0.227 C 
BRANCH   3   2
ATOM      1  C   UNL     1      -0.798   6.276  24.699  0.00  0.00    +0.175 C 
ATOM      2  O   UNL     1      -1.253   5.693  25.063  0.00  0.00    -0.342 OA
ENDBRANCH   3   2
ENDBRANCH   4   3
BRANCH  13  14
ATOM     14  C   UNL     1      -1.964  -0.498  24.728  0.00  0.00    +0.098 C 
BRANCH  14  15
ATOM     15  C   UNL     1      -2.754  -0.724  24.665  0.00  0.00    +0.051 C 
BRANCH  15  16
ATOM     16  C   UNL     1      -2.953  -1.524  24.635  0.00  0.00    +0.017 A 
ATOM     17  C   UNL     1      -3.612  -1.769  24.201  0.00  0.00    +0.168 A 
ATOM     20  C   UNL     1      -3.811  -2.569  24.170  0.00  0.00    +0.172 A 
ATOM     23  C   UNL     1      -3.351  -3.124  24.574  0.00  0.00    +0.040 A 
ATOM     24  C   UNL     1      -2.694  -2.879  25.007  0.00  0.00    +0.003 A 
ATOM     25  C   UNL     1      -2.495  -2.079  25.038  0.00  0.00    -0.001 A 
BRANCH  17  18
ATOM     18  O   UNL     1      -4.070  -1.214  23.798  0.00  0.00    -0.469 OA
ATOM     19  C   UNL     1      -4.775  -0.943  24.130  0.00  0.00    +0.253 C 
ENDBRANCH  17  18
BRANCH  20  21
ATOM     21  O   UNL     1      -4.468  -2.814  23.737  0.00  0.00    -0.468 OA
ATOM     22  C   UNL     1      -4.476  -3.561  23.385  0.00  0.00    +0.253 C 
ENDBRANCH  20  21
ENDBRANCH  15  16
ENDBRANCH  14  15
ENDBRANCH  13  14
TORSDOF 7
ENDMDL
MODEL 6
REMARK VINA RESULT:      -6.4      1.466      6.306
REMARK  Name = 
REMARK  7 active torsions:
REMARK  status: ('A' for Active; 'I' for Inactive)
REMARK    1  A    between atoms: O_2  and  C_3
REMARK    2  A    between atoms: C_3  and  C_4
REMARK    3  A    between atoms: N_13  and  C_14
REMARK    4  A    between atoms: C_14  and  C_15
REMARK    5  A    between atoms: C_15  and  C_16
REMARK    6  A    between atoms: C_17  and  O_18
REMARK    7  A    between atoms: C_20  and  O_21
REMARK                            x       y       z     vdW  Elec       q    Type
REMARK                         _______ _______ _______ _____ _____    ______ ____
ROOT
ATOM      4  C   UNL     1      -4.789   1.714  24.900  0.00  0.00    +0.256 C 
ATOM      5  O   UNL     1      -4.731   2.446  24.523  0.00  0.00    -0.272 OA
ATOM      6  N   UNL     1      -4.157   1.184  24.870  0.00  0.00    -0.278 N 
ATOM      7  C   UNL     1      -4.215   0.452  25.246  0.00  0.00    +0.093 C 
ATOM      8  C   UNL     1      -3.585  -0.079  25.217  0.00  0.00    +0.022 C 
ATOM      9  C   UNL     1      -2.895   0.123  24.811  0.00  0.00    +0.012 C 
ATOM     10  C   UNL     1      -2.335  -0.482  24.850  0.00  0.00    +0.085 C 
ATOM     11  C   UNL     1      -1.579  -0.504  24.521  0.00  0.00    +0.226 C 
ATOM     12  O   UNL     1      -1.149  -1.195  24.659  0.00  0.00    -0.275 OA
ATOM     13  N   UNL     1      -1.195   0.073  24.073  0.00  0.00    -0.279 N 
ATOM     26  C   UNL     1      -1.474   0.814  23.843  0.00  0.00    +0.093 C 
ATOM     27  C   UNL     1      -2.204   1.162  24.004  0.00  0.00    +0.023 C 
ATOM     28  C   UNL     1      -2.836   0.855  24.435  0.00  0.00    +0.022 C 
ATOM     29  C   UNL     1      -3.468   1.385  24.464  0.00  0.00    +0.093 C 
ENDROOT
BRANCH   4   3
ATOM      3  C   UNL     1      -5.478   1.513  25.305  0.00  0.00    +0.227 C 
BRANCH   3   2
ATOM      1  C   UNL     1      -6.603   1.945  26.073  0.00  0.00    +0.175 C 
ATOM      2  O   UNL     1      -6.026   2.097  25.504  0.00  0.00    -0.342 OA
ENDBRANCH   3   2
ENDBRANCH   4   3
BRANCH  13  14
ATOM     14  C   UNL     1      -0.433  -0.117  23.822  0.00  0.00    +0.098 C 
BRANCH  14  15
ATOM     15  C   UNL     1       0.119   0.481  23.690  0.00  0.00    +0.051 C 
BRANCH  15  16
ATOM     16  C   UNL     1       0.813   0.318  23.275  0.00  0.00    +0.017 A 
ATOM     17  C   UNL     1       1.494   0.761  23.420  0.00  0.00    +0.168 A 
ATOM     20  C   UNL     1       2.189   0.598  23.005  0.00  0.00    +0.172 A 
ATOM     23  C   UNL     1       2.201  -0.008  22.446  0.00  0.00    +0.040 A 
ATOM     24  C   UNL     1       1.521  -0.451  22.301  0.00  0.00    +0.003 A 
ATOM     25  C   UNL     1       0.827  -0.287  22.715  0.00  0.00    -0.001 A 
BRANCH  17  18
ATOM     18  O   UNL     1       1.480   1.367  23.980  0.00  0.00    -0.469 OA
ATOM     19  C   UNL     1       1.307   2.140  23.747  0.00  0.00    +0.253 C 
ENDBRANCH  17  18
BRANCH  20  21
ATOM     21  O   UNL     1       2.869   1.041  23.151  0.00  0.00    -0.468 OA
ATOM     22  C   UNL     1       3.587   0.818  22.811  0.00  0.00    +0.253 C 
ENDBRANCH  20  21
ENDBRANCH  15  16
ENDBRANCH  14  15
ENDBRANCH  13  14
TORSDOF 7
ENDMDL
MODEL 7
REMARK VINA RESULT:      -6.2      2.397      6.149
REMARK  Name = 
REMARK  7 active torsions:
REMARK  status: ('A' for Active; 'I' for Inactive)
REMARK    1  A    between atoms: O_2  and  C_3
REMARK    2  A    between atoms: C_3  and  C_4
REMARK    3  A    between atoms: N_13  and  C_14
REMARK    4  A    between atoms: C_14  and  C_15
REMARK    5  A    between atoms: C_15  and  C_16
REMARK    6  A    between atoms: C_17  and  O_18
REMARK    7  A    between atoms: C_20  and  O_21
REMARK                            x       y       z     vdW  Elec       q    Type
REMARK                         _______ _______ _______ _____ _____    ______ ____
ROOT
ATOM      4  C   UNL     1      -5.075   3.738  25.412  0.00  0.00    +0.256 C 
ATOM      5  O   UNL     1      -4.387   4.185  25.501  0.00  0.00    -0.272 OA
ATOM      6  N   UNL     1      -5.023   2.933  25.237  0.00  0.00    -0.278 N 
ATOM      7  C   UNL     1      -5.711   2.486  25.149  0.00  0.00    +0.093 C 
ATOM      8  C   UNL     1      -5.661   1.682  24.974  0.00  0.00    +0.022 C 
ATOM      9  C   UNL     1      -4.922   1.324  24.888  0.00  0.00    +0.012 C 
ATOM     10  C   UNL     1      -4.995   0.520  24.716  0.00  0.00    +0.085 C 
ATOM     11  C   UNL     1      -4.398  -0.035  24.589  0.00  0.00    +0.226 C 
ATOM     12  O   UNL     1      -4.652  -0.802  24.426  0.00  0.00    -0.275 OA
ATOM     13  N   UNL     1      -3.581   0.077  24.603  0.00  0.00    -0.279 N 
ATOM     26  C   UNL     1      -3.159   0.770  24.748  0.00  0.00    +0.093 C 
ATOM     27  C   UNL     1      -3.450   1.524  24.915  0.00  0.00    +0.023 C 
ATOM     28  C   UNL     1      -4.234   1.770  24.977  0.00  0.00    +0.022 C 
ATOM     29  C   UNL     1      -4.286   2.575  25.152  0.00  0.00    +0.093 C 
ENDROOT
BRANCH   4   3
ATOM      3  C   UNL     1      -5.812   4.096  25.498  0.00  0.00    +0.227 C 
BRANCH   3   2
ATOM      1  C   UNL     1      -6.465   5.367  25.492  0.00  0.00    +0.175 C 
ATOM      2  O   UNL     1      -5.865   4.874  25.768  0.00  0.00    -0.342 OA
ENDBRANCH   3   2
ENDBRANCH   4   3
BRANCH  13  14
ATOM     14  C   UNL     1      -3.126  -0.595  24.453  0.00  0.00    +0.098 C 
BRANCH  14  15
ATOM     15  C   UNL     1      -2.312  -0.580  24.588  0.00  0.00    +0.051 C 
BRANCH  15  16
ATOM     16  C   UNL     1      -1.893  -1.286  24.659  0.00  0.00    +0.017 A 
ATOM     17  C   UNL     1      -1.106  -1.276  24.908  0.00  0.00    +0.168 A 
ATOM     20  C   UNL     1      -0.686  -1.983  24.979  0.00  0.00    +0.172 A 
ATOM     23  C   UNL     1      -1.054  -2.700  24.801  0.00  0.00    +0.040 A 
ATOM     24  C   UNL     1      -1.840  -2.711  24.552  0.00  0.00    +0.003 A 
ATOM     25  C   UNL     1      -2.260  -2.004  24.481  0.00  0.00    -0.001 A 
BRANCH  17  18
ATOM     18  O   UNL     1      -0.739  -0.559  25.086  0.00  0.00    -0.469 OA
ATOM     19  C   UNL     1      -0.198  -0.230  24.556  0.00  0.00    +0.253 C 
ENDBRANCH  17  18
BRANCH  20  21
ATOM     21  O   UNL     1       0.099  -1.973  25.227  0.00  0.00    -0.468 OA
ATOM     22  C   UNL     1       0.452  -2.663  25.511  0.00  0.00    +0.253 C 
ENDBRANCH  20  21
ENDBRANCH  15  16
ENDBRANCH  14  15
ENDBRANCH  13  14
TORSDOF 7
ENDMDL
MODEL 8
REMARK VINA RESULT:      -5.7      2.330      2.953
REMARK  Name = 
REMARK  7 active torsions:
REMARK  status: ('A' for Active; 'I' for Inactive)
REMARK    1  A    between atoms: O_2  and  C_3
REMARK    2  A    between atoms: C_3  and  C_4
REMARK    3  A    between atoms: N_13  and  C_14
REMARK    4  A    between atoms: C_14  and  C_15
REMARK    5  A    between atoms: C_15  and  C_16
REMARK    6  A    between atoms: C_17  and  O_18
REMARK    7  A    between atoms: C_20  and  O_21
REMARK                            x       y       z     vdW  Elec       q    Type
REMARK                         _______ _______ _______ _____ _____    ______ ____
ROOT
ATOM      4  C   UNL     1       2.678   0.332  22.761  0.00  0.00    +0.256 C 
ATOM      5  O   UNL     1       2.704  -0.399  22.378  0.00  0.00    -0.272 OA
ATOM      6  N   UNL     1       1.986   0.575  23.138  0.00  0.00    -0.278 N 
ATOM      7  C   UNL     1       1.960   1.305  23.521  0.00  0.00    +0.093 C 
ATOM      8  C   UNL     1       1.268   1.549  23.899  0.00  0.00    +0.022 C 
ATOM      9  C   UNL     1       0.602   1.062  23.893  0.00  0.00    +0.012 C 
ATOM     10  C   UNL     1      -0.027   1.409  24.300  0.00  0.00    +0.085 C 
ATOM     11  C   UNL     1      -0.786   1.109  24.424  0.00  0.00    +0.226 C 
ATOM     12  O   UNL     1      -1.294   1.593  24.857  0.00  0.00    -0.275 OA
ATOM     13  N   UNL     1      -1.103   0.391  24.173  0.00  0.00    -0.279 N 
ATOM     26  C   UNL     1      -0.739  -0.206  23.734  0.00  0.00    +0.093 C 
ATOM     27  C   UNL     1       0.030  -0.233  23.440  0.00  0.00    +0.023 C 
ATOM     28  C   UNL     1       0.627   0.332  23.510  0.00  0.00    +0.022 C 
ATOM     29  C   UNL     1       1.320   0.089  23.133  0.00  0.00    +0.093 C 
ENDROOT
BRANCH   4   3
ATOM      3  C   UNL     1       3.344   0.818  22.766  0.00  0.00    +0.227 C 
BRANCH   3   2
ATOM      1  C   UNL     1       4.756   0.791  22.979  0.00  0.00    +0.175 C 
ATOM      2  O   UNL     1       4.087   0.503  22.595  0.00  0.00    -0.342 OA
ENDBRANCH   3   2
ENDBRANCH   4   3
BRANCH  13  14
ATOM     14  C   UNL     1      -1.887   0.250  24.387  0.00  0.00    +0.098 C 
BRANCH  14  15
ATOM     15  C   UNL     1      -2.145  -0.520  24.526  0.00  0.00    +0.051 C 
BRANCH  15  16
ATOM     16  C   UNL     1      -2.943  -0.710  24.440  0.00  0.00    +0.017 A 
ATOM     17  C   UNL     1      -3.174  -1.498  24.360  0.00  0.00    +0.168 A 
ATOM     20  C   UNL     1      -3.973  -1.688  24.274  0.00  0.00    +0.172 A 
ATOM     23  C   UNL     1      -4.540  -1.088  24.268  0.00  0.00    +0.040 A 
ATOM     24  C   UNL     1      -4.309  -0.301  24.348  0.00  0.00    +0.003 A 
ATOM     25  C   UNL     1      -3.511  -0.112  24.433  0.00  0.00    -0.001 A 
BRANCH  17  18
ATOM     18  O   UNL     1      -2.606  -2.096  24.366  0.00  0.00    -0.469 OA
ATOM     19  C   UNL     1      -2.551  -2.605  25.014  0.00  0.00    +0.253 C 
ENDBRANCH  17  18
BRANCH  20  21
ATOM     21  O   UNL     1      -4.203  -2.475  24.194  0.00  0.00    -0.468 OA
ATOM     22  C   UNL     1      -4.787  -2.682  23.648  0.00  0.00    +0.253 C 
ENDBRANCH  20  21
ENDBRANCH  15  16
ENDBRANCH  14  15
ENDBRANCH  13  14
TORSDOF 7
ENDMDL
MODEL 9
REMARK VINA RESULT:      -5.1     19.440     20.817
REMARK  Name = 
REMARK  7 active torsions:
REMARK  status: ('A' for Active; 'I' for Inactive)
REMARK    1  A    between atoms: O_2  and  C_3
REMARK    2  A    between atoms: C_3  and  C_4
REMARK    3  A    between atoms: N_13  and  C_14
REMARK    4  A    between atoms: C_14  and  C_15
REMARK    5  A    between atoms: C_15  and  C_16
REMARK    6  A    between atoms: C_17  and  O_18
REMARK    7  A    between atoms: C_20  and  O_21
REMARK                            x       y       z     vdW  Elec       q    Type
REMARK                         _______ _______ _______ _____ _____    ______ ____
ROOT
ATOM      4  C   UNL     1      17.095  -2.508  24.408  0.00  0.00    +0.256 C 
ATOM      5  O   UNL     1      16.972  -2.259  25.185  0.00  0.00    -0.272 OA
ATOM      6  N   UNL     1      17.153  -3.314  24.237  0.00  0.00    -0.278 N 
ATOM      7  C   UNL     1      17.275  -3.562  23.460  0.00  0.00    +0.093 C 
ATOM      8  C   UNL     1      17.333  -4.367  23.289  0.00  0.00    +0.022 C 
ATOM      9  C   UNL     1      17.269  -4.924  23.895  0.00  0.00    +0.012 C 
ATOM     10  C   UNL     1      17.342  -5.693  23.607  0.00  0.00    +0.085 C 
ATOM     11  C   UNL     1      17.311  -6.404  24.025  0.00  0.00    +0.226 C 
ATOM     12  O   UNL     1      17.405  -7.088  23.574  0.00  0.00    -0.275 OA
ATOM     13  N   UNL     1      17.199  -6.521  24.833  0.00  0.00    -0.279 N 
ATOM     26  C   UNL     1      17.090  -5.955  25.424  0.00  0.00    +0.093 C 
ATOM     27  C   UNL     1      17.066  -5.134  25.353  0.00  0.00    +0.023 C 
ATOM     28  C   UNL     1      17.146  -4.675  24.672  0.00  0.00    +0.022 C 
ATOM     29  C   UNL     1      17.088  -3.869  24.843  0.00  0.00    +0.093 C 
ENDROOT
BRANCH   4   3
ATOM      3  C   UNL     1      17.159  -1.952  23.802  0.00  0.00    +0.227 C 
BRANCH   3   2
ATOM      1  C   UNL     1      16.980  -0.600  23.377  0.00  0.00    +0.175 C 
ATOM      2  O   UNL     1      17.129  -1.146  23.976  0.00  0.00    -0.342 OA
ENDBRANCH   3   2
ENDBRANCH   4   3
BRANCH  13  14
ATOM     14  C   UNL     1      17.195  -7.306  25.084  0.00  0.00    +0.098 C 
BRANCH  14  15
ATOM     15  C   UNL     1      16.688  -7.543  25.690  0.00  0.00    +0.051 C 
BRANCH  15  16
ATOM     16  C   UNL     1      16.702  -8.323  25.958  0.00  0.00    +0.017 A 
ATOM     17  C   UNL     1      16.045  -8.638  26.347  0.00  0.00    +0.168 A 
ATOM     20  C   UNL     1      16.059  -9.418  26.615  0.00  0.00    +0.172 A 
ATOM     23  C   UNL     1      16.729  -9.883  26.495  0.00  0.00    +0.040 A 
ATOM     24  C   UNL     1      17.385  -9.569  26.106  0.00  0.00    +0.003 A 
ATOM     25  C   UNL     1      17.372  -8.789  25.838  0.00  0.00    -0.001 A 
BRANCH  17  18
ATOM     18  O   UNL     1      15.375  -8.172  26.467  0.00  0.00    -0.469 OA
ATOM     19  C   UNL     1      15.221  -7.855  27.214  0.00  0.00    +0.253 C 
ENDBRANCH  17  18
BRANCH  20  21
ATOM     21  O   UNL     1      15.403  -9.732  27.003  0.00  0.00    -0.468 OA
ATOM     22  C   UNL     1      15.381 -10.534  27.196  0.00  0.00    +0.253 C 
ENDBRANCH  20  21
ENDBRANCH  15  16
ENDBRANCH  14  15
ENDBRANCH  13  14
TORSDOF 7
ENDMDL
MODEL 10
REMARK VINA RESULT:      -4.9     19.282     20.217
REMARK  Name = 
REMARK  7 active torsions:
REMARK  status: ('A' for Active; 'I' for Inactive)
REMARK    1  A    between atoms: O_2  and  C_3
REMARK    2  A    between atoms: C_3  and  C_4
REMARK    3  A    between atoms: N_13  and  C_14
REMARK    4  A    between atoms: C_14  and  C_15
REMARK    5  A    between atoms: C_15  and  C_16
REMARK    6  A    between atoms: C_17  and  O_18
REMARK    7  A    between atoms: C_20  and  O_21
REMARK                            x       y       z     vdW  Elec       q    Type
REMARK                         _______ _______ _______ _____ _____    ______ ____
ROOT
ATOM      4  C   UNL     1      15.987  -7.780  28.044  0.00  0.00    +0.256 C 
ATOM      5  O   UNL     1      16.760  -7.664  27.782  0.00  0.00    -0.272 OA
ATOM      6  N   UNL     1      15.656  -7.262  28.595  0.00  0.00    -0.278 N 
ATOM      7  C   UNL     1      14.883  -7.378  28.858  0.00  0.00    +0.093 C 
ATOM      8  C   UNL     1      14.552  -6.861  29.408  0.00  0.00    +0.022 C 
ATOM      9  C   UNL     1      14.995  -6.226  29.696  0.00  0.00    +0.012 C 
ATOM     10  C   UNL     1      14.562  -5.779  30.239  0.00  0.00    +0.085 C 
ATOM     11  C   UNL     1      14.798  -5.105  30.652  0.00  0.00    +0.226 C 
ATOM     12  O   UNL     1      14.233  -4.782  31.159  0.00  0.00    -0.275 OA
ATOM     13  N   UNL     1      15.522  -4.712  30.625  0.00  0.00    -0.279 N 
ATOM     26  C   UNL     1      16.191  -4.896  30.179  0.00  0.00    +0.093 C 
ATOM     27  C   UNL     1      16.300  -5.518  29.648  0.00  0.00    +0.023 C 
ATOM     28  C   UNL     1      15.768  -6.110  29.434  0.00  0.00    +0.022 C 
ATOM     29  C   UNL     1      16.098  -6.628  28.883  0.00  0.00    +0.093 C 
ENDROOT
BRANCH   4   3
ATOM      3  C   UNL     1      15.545  -8.414  27.757  0.00  0.00    +0.227 C 
BRANCH   3   2
ATOM      1  C   UNL     1      15.471  -9.605  26.971  0.00  0.00    +0.175 C 
ATOM      2  O   UNL     1      15.860  -8.908  27.176  0.00  0.00    -0.342 OA
ENDBRANCH   3   2
ENDBRANCH   4   3
BRANCH  13  14
ATOM     14  C   UNL     1      15.587  -4.047  31.110  0.00  0.00    +0.098 C 
BRANCH  14  15
ATOM     15  C   UNL     1      16.024  -3.395  30.858  0.00  0.00    +0.051 C 
BRANCH  15  16
ATOM     16  C   UNL     1      16.219  -2.798  31.393  0.00  0.00    +0.017 A 
ATOM     17  C   UNL     1      16.463  -2.059  31.116  0.00  0.00    +0.168 A 
ATOM     20  C   UNL     1      16.657  -1.462  31.651  0.00  0.00    +0.172 A 
ATOM     23  C   UNL     1      16.608  -1.604  32.463  0.00  0.00    +0.040 A 
ATOM     24  C   UNL     1      16.365  -2.341  32.739  0.00  0.00    +0.003 A 
ATOM     25  C   UNL     1      16.170  -2.938  32.204  0.00  0.00    -0.001 A 
BRANCH  17  18
ATOM     18  O   UNL     1      16.511  -1.919  30.305  0.00  0.00    -0.469 OA
ATOM     19  C   UNL     1      17.249  -1.829  29.946  0.00  0.00    +0.253 C 
ENDBRANCH  17  18
BRANCH  20  21
ATOM     21  O   UNL     1      16.901  -0.725  31.375  0.00  0.00    -0.468 OA
ATOM     22  C   UNL     1      17.039  -0.109  31.907  0.00  0.00    +0.253 C 
ENDBRANCH  20  21
ENDBRANCH  15  16
ENDBRANCH  14  15
ENDBRANCH  13  14
TORSDOF 7
ENDMDL
