MODEL 1
REMARK VINA RESULT:     -13.1      0.000      0.000
REMARK  Name = 
REMARK  3 active torsions:
REMARK  status: ('A' for Active; 'I' for Inactive)
REMARK    1  A    between atoms: C_6  and  C_7
REMARK    2  A    between atoms: C_7  and  N_8
REMARK    3  A    between atoms: C_11  and  C_13
REMARK                            x       y       z     vdW  Elec       q    Type
REMARK                         _______ _______ _______ _____ _____    ______ ____
ROOT
ATOM      8  N   UNL     1      -4.510   2.323  24.785  0.00  0.00    -0.268 NA
ATOM      9  C   UNL     1      -5.141   2.109  25.271  0.00  0.00    +0.073 C 
ATOM     10  C   UNL     1      -5.148   1.286  25.332  0.00  0.00    +0.028 C 
ATOM     11  C   UNL     1      -4.521   0.992  24.884  0.00  0.00    +0.094 C 
ATOM     12  C   UNL     1      -4.126   1.632  24.546  0.00  0.00    +0.082 C 
ENDROOT
BRANCH  11  13
ATOM     13  C   UNL     1      -4.323   0.196  24.791  0.00  0.00    +0.207 A 
ATOM     14  N   UNL     1      -3.902  -0.265  25.330  0.00  0.00    -0.212 NA
ATOM     15  C   UNL     1      -3.830  -1.023  25.015  0.00  0.00    +0.119 A 
ATOM     16  C   UNL     1      -4.207  -1.031  24.280  0.00  0.00    +0.164 A 
ATOM     17  O   UNL     1      -4.511  -0.277  24.142  0.00  0.00    -0.438 OA
ATOM     18  C   UNL     1      -4.223  -1.724  23.833  0.00  0.00    +0.040 A 
ATOM     19  C   UNL     1      -3.864  -2.409  24.119  0.00  0.00    +0.015 A 
ATOM     20  C   UNL     1      -3.488  -2.401  24.853  0.00  0.00    +0.059 A 
ATOM     21 CL   UNL     1      -3.128  -3.086  25.140  0.00  0.00    -0.082 Cl
ATOM     22  C   UNL     1      -3.471  -1.709  25.302  0.00  0.00    +0.034 A 
ENDBRANCH  11  13
BRANCH   8   7
ATOM      7  C   UNL     1      -4.299   3.092  24.574  0.00  0.00    +0.099 C 
BRANCH   7   6
ATOM      1  F   UNL     1      -1.634   4.499  25.920  0.00  0.00    -0.202 F 
ATOM      2  C   UNL     1      -2.301   4.147  25.583  0.00  0.00    +0.167 A 
ATOM      3  C   UNL     1      -3.012   4.130  26.000  0.00  0.00    +0.167 A 
ATOM      4  F   UNL     1      -3.058   4.464  26.753  0.00  0.00    -0.202 F 
ATOM      5  C   UNL     1      -3.678   3.778  25.664  0.00  0.00    +0.029 A 
ATOM      6  C   UNL     1      -3.632   3.444  24.910  0.00  0.00    -0.004 A 
ATOM     23  C   UNL     1      -2.921   3.462  24.494  0.00  0.00    -0.000 A 
ATOM     24  C   UNL     1      -2.254   3.814  24.831  0.00  0.00    +0.032 A 
ENDBRANCH   7   6
ENDBRANCH   8   7
TORSDOF 3
ENDMDL
MODEL 2
REMARK VINA RESULT:     -12.7      3.079      5.338
REMARK  Name = 
REMARK  3 active torsions:
REMARK  status: ('A' for Active; 'I' for Inactive)
REMARK    1  A    between atoms: C_6  and  C_7
REMARK    2  A    between atoms: C_7  and  N_8
REMARK    3  A    between atoms: C_11  and  C_13
REMARK                            x       y       z     vdW  Elec       q    Type
REMARK                         _______ _______ _______ _____ _____    ______ ____
ROOT
ATOM      8  N   UNL     1      -3.889   0.586  24.386  0.00  0.00    -0.268 NA
ATOM      9  C   UNL     1      -3.588   0.648  23.620  0.00  0.00    +0.073 C 
ATOM     10  C   UNL     1      -3.128   1.333  23.583  0.00  0.00    +0.028 C 
ATOM     11  C   UNL     1      -3.146   1.693  24.325  0.00  0.00    +0.094 C 
ATOM     12  C   UNL     1      -3.616   1.231  24.821  0.00  0.00    +0.082 C 
ENDROOT
BRANCH  11  13
ATOM     13  C   UNL     1      -2.761   2.392  24.534  0.00  0.00    +0.207 A 
ATOM     14  N   UNL     1      -1.995   2.607  24.317  0.00  0.00    -0.212 NA
ATOM     15  C   UNL     1      -1.835   3.346  24.645  0.00  0.00    +0.119 A 
ATOM     16  C   UNL     1      -2.502   3.588  25.067  0.00  0.00    +0.164 A 
ATOM     17  O   UNL     1      -3.074   2.998  24.998  0.00  0.00    -0.438 OA
ATOM     18  C   UNL     1      -2.501   4.314  25.458  0.00  0.00    +0.040 A 
ATOM     19  C   UNL     1      -1.835   4.799  25.428  0.00  0.00    +0.015 A 
ATOM     20  C   UNL     1      -1.168   4.557  25.007  0.00  0.00    +0.059 A 
ATOM     21 CL   UNL     1      -0.500   5.041  24.977  0.00  0.00    -0.082 Cl
ATOM     22  C   UNL     1      -1.167   3.831  24.616  0.00  0.00    +0.034 A 
ENDBRANCH  11  13
BRANCH   8   7
ATOM      7  C   UNL     1      -4.378  -0.016  24.667  0.00  0.00    +0.099 C 
BRANCH   7   6
ATOM      1  F   UNL     1      -3.180  -3.066  25.064  0.00  0.00    -0.202 F 
ATOM      2  C   UNL     1      -3.479  -2.303  24.965  0.00  0.00    +0.167 A 
ATOM      3  C   UNL     1      -3.896  -2.110  24.280  0.00  0.00    +0.167 A 
ATOM      4  F   UNL     1      -4.013  -2.679  23.693  0.00  0.00    -0.202 F 
ATOM      5  C   UNL     1      -4.195  -1.348  24.180  0.00  0.00    +0.029 A 
ATOM      6  C   UNL     1      -4.078  -0.779  24.767  0.00  0.00    -0.004 A 
ATOM     23  C   UNL     1      -3.662  -0.972  25.452  0.00  0.00    -0.000 A 
ATOM     24  C   UNL     1      -3.362  -1.735  25.551  0.00  0.00    +0.032 A 
ENDBRANCH   7   6
ENDBRANCH   8   7
TORSDOF 3
ENDMDL
MODEL 3
REMARK VINA RESULT:     -12.6      1.800      2.409
REMARK  Name = 
REMARK  3 active torsions:
REMARK  status: ('A' for Active; 'I' for Inactive)
REMARK    1  A    between atoms: C_6  and  C_7
REMARK    2  A    between atoms: C_7  and  N_8
REMARK    3  A    between atoms: C_11  and  C_13
REMARK                            x       y       z     vdW  Elec       q    Type
REMARK                         _______ _______ _______ _____ _____    ______ ____
ROOT
ATOM      8  N   UNL     1      -1.046   1.883  25.269  0.00  0.00    -0.268 NA
ATOM      9  C   UNL     1      -0.633   1.667  24.588  0.00  0.00    +0.073 C 
ATOM     10  C   UNL     1      -1.014   1.013  24.257  0.00  0.00    +0.028 C 
ATOM     11  C   UNL     1      -1.661   0.826  24.733  0.00  0.00    +0.094 C 
ATOM     12  C   UNL     1      -1.681   1.364  25.359  0.00  0.00    +0.082 C 
ENDROOT
BRANCH  11  13
ATOM     13  C   UNL     1      -2.195   0.210  24.607  0.00  0.00    +0.207 A 
ATOM     14  N   UNL     1      -2.053  -0.590  24.745  0.00  0.00    -0.212 NA
ATOM     15  C   UNL     1      -2.734  -1.009  24.543  0.00  0.00    +0.119 A 
ATOM     16  C   UNL     1      -3.298  -0.467  24.279  0.00  0.00    +0.164 A 
ATOM     17  O   UNL     1      -2.965   0.287  24.319  0.00  0.00    -0.438 OA
ATOM     18  C   UNL     1      -4.041  -0.730  24.038  0.00  0.00    +0.040 A 
ATOM     19  C   UNL     1      -4.222  -1.534  24.060  0.00  0.00    +0.015 A 
ATOM     20  C   UNL     1      -3.658  -2.076  24.323  0.00  0.00    +0.059 A 
ATOM     21 CL   UNL     1      -3.838  -2.881  24.345  0.00  0.00    -0.082 Cl
ATOM     22  C   UNL     1      -2.915  -1.814  24.565  0.00  0.00    +0.034 A 
ENDBRANCH  11  13
BRANCH   8   7
ATOM      7  C   UNL     1      -0.856   2.509  25.772  0.00  0.00    +0.099 C 
BRANCH   7   6
ATOM      1  F   UNL     1      -1.906   5.560  25.079  0.00  0.00    -0.202 F 
ATOM      2  C   UNL     1      -1.644   4.797  25.253  0.00  0.00    +0.167 A 
ATOM      3  C   UNL     1      -0.897   4.551  25.003  0.00  0.00    +0.167 A 
ATOM      4  F   UNL     1      -0.412   5.068  24.580  0.00  0.00    -0.202 F 
ATOM      5  C   UNL     1      -0.634   3.788  25.176  0.00  0.00    +0.029 A 
ATOM      6  C   UNL     1      -1.119   3.271  25.599  0.00  0.00    -0.004 A 
ATOM     23  C   UNL     1      -1.866   3.517  25.849  0.00  0.00    -0.000 A 
ATOM     24  C   UNL     1      -2.128   4.280  25.675  0.00  0.00    +0.032 A 
ENDBRANCH   7   6
ENDBRANCH   8   7
TORSDOF 3
ENDMDL
