REMARK  Name = 
REMARK  2 active torsions:
REMARK  status: ('A' for Active; 'I' for Inactive)
REMARK    1  A    between atoms: C_7  and  C_8
REMARK    2  A    between atoms: C_10  and  C_13
REMARK                            x       y       z     vdW  Elec       q    Type
REMARK                         _______ _______ _______ _____ _____    ______ ____
ROOT
ATOM      8  C   UNL     1       0.715  -1.238   0.000  0.00  0.00    +0.156 A 
ATOM      9  N   UNL     1       1.382  -1.722   0.000  0.00  0.00    -0.228 NA
ATOM     10  C   UNL     1       1.127  -2.507   0.000  0.00  0.00    +0.102 A 
ATOM     11  C   UNL     1       0.302  -2.507   0.000  0.00  0.00    +0.119 A 
ATOM     12  N   UNL     1       0.047  -1.722   0.000  0.00  0.00    -0.226 NA
ENDROOT
BRANCH   8   7
ATOM      1  C   UNL     1      -0.715  -0.412   0.000  0.00  0.00    +0.090 C 
ATOM      2  N   UNL     1       0.000   0.000   0.000  0.00  0.00    -0.262 NA
ATOM      3  C   UNL     1       0.000   0.825   0.000  0.00  0.00    +0.105 C 
ATOM      4  C   UNL     1       0.715   1.238   0.000  0.00  0.00    +0.160 C 
ATOM      5  O   UNL     1       1.429   0.825   0.000  0.00  0.00    -0.350 OA
ATOM      6  C   UNL     1       1.429   0.000   0.000  0.00  0.00    +0.166 C 
ATOM      7  C   UNL     1       0.715  -0.412   0.000  0.00  0.00    +0.147 C 
ENDBRANCH   8   7
BRANCH  10  13
ATOM     13  C   UNL     1       1.612  -3.175   0.000  0.00  0.00    +0.022 A 
ATOM     14  C   UNL     1       2.432  -3.088   0.000  0.00  0.00    +0.022 A 
ATOM     15  C   UNL     1       2.917  -3.756   0.000  0.00  0.00    +0.099 A 
ATOM     16  N   UNL     1       2.582  -4.509   0.000  0.00  0.00    -0.242 NA
ATOM     17  C   UNL     1       1.761  -4.596   0.000  0.00  0.00    +0.099 A 
ATOM     18  C   UNL     1       1.276  -3.928   0.000  0.00  0.00    +0.022 A 
ENDBRANCH  10  13
TORSDOF 2
