MODEL 1
REMARK VINA RESULT:     -13.9      0.000      0.000
REMARK  Name = 
REMARK  5 active torsions:
REMARK  status: ('A' for Active; 'I' for Inactive)
REMARK    1  A    between atoms: C_2  and  C_3
REMARK    2  A    between atoms: C_3  and  O_4
REMARK    3  A    between atoms: O_4  and  C_5
REMARK    4  A    between atoms: C_20  and  N_21
REMARK    5  A    between atoms: C_22  and  C_24
REMARK                            x       y       z     vdW  Elec       q    Type
REMARK                         _______ _______ _______ _____ _____    ______ ____
ROOT
ATOM      1  O   UNL     1      -1.090  -0.310  25.092  0.00  0.00    -0.271 OA
ATOM      2  C   UNL     1      -1.867  -0.530  24.925  0.00  0.00    +0.270 C 
ATOM     11  N   UNL     1      -2.057  -1.327  24.820  0.00  0.00    -0.276 N 
ATOM     12  C   UNL     1      -1.948  -2.153  24.770  0.00  0.00    +0.095 C 
ATOM     13  C   UNL     1      -2.875  -2.430  24.570  0.00  0.00    +0.043 C 
ATOM     14  C   UNL     1      -3.574  -2.815  24.404  0.00  0.00    +0.011 C 
ATOM     15  C   UNL     1      -3.356  -2.155  24.502  0.00  0.00    +0.058 C 
ATOM     16  C   UNL     1      -2.455  -1.904  24.695  0.00  0.00    +0.099 C 
ATOM     17  C   UNL     1      -3.663  -1.290  24.518  0.00  0.00    +0.041 A 
ATOM     18  C   UNL     1      -4.358  -0.855  24.424  0.00  0.00    +0.014 A 
ATOM     19  C   UNL     1      -4.343  -0.033  24.498  0.00  0.00    +0.023 A 
ATOM     20  C   UNL     1      -3.634   0.353  24.666  0.00  0.00    +0.130 A 
ATOM     29  C   UNL     1      -2.939  -0.081  24.760  0.00  0.00    +0.276 A 
ATOM     30  O   UNL     1      -2.597   0.657  24.889  0.00  0.00    -0.266 OA
ATOM     31  N   UNL     1      -2.954  -0.903  24.686  0.00  0.00    -0.298 N 
ATOM     32  C   UNL     1      -3.187  -1.523  24.589  0.00  0.00    +0.110 C 
ENDROOT
BRANCH  20  21
ATOM     21  N   UNL     1      -3.620   1.175  24.739  0.00  0.00    -0.170 NA
ATOM     22  C   UNL     1      -4.323   1.605  24.699  0.00  0.00    +0.275 C 
ATOM     23  O   UNL     1      -5.040   1.213  24.585  0.00  0.00    -0.267 OA
BRANCH  22  24
ATOM     24  C   UNL     1      -4.308   2.427  24.772  0.00  0.00    +0.085 A 
ATOM     25  C   UNL     1      -4.112   2.963  24.178  0.00  0.00    +0.012 A 
ATOM     26  C   UNL     1      -4.170   3.725  24.491  0.00  0.00    +0.008 A 
ATOM     27  C   UNL     1      -4.402   3.658  25.280  0.00  0.00    +0.036 A 
ATOM     28  S   UNL     1      -4.488   2.856  25.454  0.00  0.00    -0.082 S 
ENDBRANCH  22  24
ENDBRANCH  20  21
BRANCH   2   3
ATOM      3  C   UNL     1      -2.455   0.046  24.863  0.00  0.00    +0.290 C 
BRANCH   3   4
ATOM      4  O   UNL     1      -2.283   0.831  25.048  0.00  0.00    -0.466 OA
BRANCH   4   5
ATOM      5  C   UNL     1      -1.527   1.132  24.911  0.00  0.00    +0.139 A 
ATOM      6  C   UNL     1      -1.039   1.325  25.548  0.00  0.00    +0.037 A 
ATOM      7  C   UNL     1      -0.283   1.627  25.412  0.00  0.00    +0.003 A 
ATOM      8  C   UNL     1      -0.016   1.735  24.639  0.00  0.00    +0.000 A 
ATOM      9  C   UNL     1      -0.504   1.542  24.002  0.00  0.00    +0.003 A 
ATOM     10  C   UNL     1      -1.259   1.241  24.139  0.00  0.00    +0.037 A 
ENDBRANCH   4   5
ENDBRANCH   3   4
ENDBRANCH   2   3
TORSDOF 5
ENDMDL
MODEL 2
REMARK VINA RESULT:     -13.9      1.103      2.861
REMARK  Name = 
REMARK  5 active torsions:
REMARK  status: ('A' for Active; 'I' for Inactive)
REMARK    1  A    between atoms: C_2  and  C_3
REMARK    2  A    between atoms: C_3  and  O_4
REMARK    3  A    between atoms: O_4  and  C_5
REMARK    4  A    between atoms: C_20  and  N_21
REMARK    5  A    between atoms: C_22  and  C_24
REMARK                            x       y       z     vdW  Elec       q    Type
REMARK                         _______ _______ _______ _____ _____    ______ ____
ROOT
ATOM      1  O   UNL     1      -4.515   0.706  24.300  0.00  0.00    -0.271 OA
ATOM      2  C   UNL     1      -3.940   0.125  24.408  0.00  0.00    +0.270 C 
ATOM     11  N   UNL     1      -4.130  -0.670  24.297  0.00  0.00    -0.276 N 
ATOM     12  C   UNL     1      -4.593  -1.344  24.123  0.00  0.00    +0.095 C 
ATOM     13  C   UNL     1      -3.913  -2.049  24.250  0.00  0.00    +0.043 C 
ATOM     14  C   UNL     1      -3.479  -2.736  24.313  0.00  0.00    +0.011 C 
ATOM     15  C   UNL     1      -3.374  -2.047  24.394  0.00  0.00    +0.058 C 
ATOM     16  C   UNL     1      -4.042  -1.376  24.267  0.00  0.00    +0.099 C 
ATOM     17  C   UNL     1      -2.721  -1.438  24.613  0.00  0.00    +0.041 A 
ATOM     18  C   UNL     1      -1.926  -1.401  24.828  0.00  0.00    +0.014 A 
ATOM     19  C   UNL     1      -1.572  -0.671  24.977  0.00  0.00    +0.023 A 
ATOM     20  C   UNL     1      -2.015   0.023  24.912  0.00  0.00    +0.130 A 
ATOM     29  C   UNL     1      -2.810  -0.014  24.698  0.00  0.00    +0.276 A 
ATOM     30  O   UNL     1      -2.778   0.807  24.769  0.00  0.00    -0.266 OA
ATOM     31  N   UNL     1      -3.164  -0.744  24.549  0.00  0.00    -0.298 N 
ATOM     32  C   UNL     1      -3.238  -1.406  24.479  0.00  0.00    +0.110 C 
ENDROOT
BRANCH  20  21
ATOM     21  N   UNL     1      -1.661   0.752  25.062  0.00  0.00    -0.170 NA
ATOM     22  C   UNL     1      -0.858   0.791  25.248  0.00  0.00    +0.275 C 
ATOM     23  O   UNL     1      -0.409   0.100  25.286  0.00  0.00    -0.267 OA
BRANCH  22  24
ATOM     24  C   UNL     1      -0.504   1.522  25.398  0.00  0.00    +0.085 A 
ATOM     25  C   UNL     1      -0.524   1.933  26.112  0.00  0.00    +0.012 A 
ATOM     26  C   UNL     1      -0.100   2.635  26.016  0.00  0.00    +0.008 A 
ATOM     27  C   UNL     1       0.181   2.657  25.240  0.00  0.00    +0.036 A 
ATOM     28  S   UNL     1      -0.068   1.969  24.858  0.00  0.00    -0.082 S 
ENDBRANCH  22  24
ENDBRANCH  20  21
BRANCH   2   3
ATOM      3  C   UNL     1      -3.173   0.340  24.628  0.00  0.00    +0.290 C 
BRANCH   3   4
ATOM      4  O   UNL     1      -3.013   1.114  24.860  0.00  0.00    -0.466 OA
BRANCH   4   5
ATOM      5  C   UNL     1      -3.434   1.741  24.529  0.00  0.00    +0.139 A 
ATOM      6  C   UNL     1      -3.990   2.150  24.982  0.00  0.00    +0.037 A 
ATOM      7  C   UNL     1      -4.412   2.777  24.650  0.00  0.00    +0.003 A 
ATOM      8  C   UNL     1      -4.277   2.995  23.866  0.00  0.00    +0.000 A 
ATOM      9  C   UNL     1      -3.722   2.586  23.413  0.00  0.00    +0.003 A 
ATOM     10  C   UNL     1      -3.301   1.959  23.745  0.00  0.00    +0.037 A 
ENDBRANCH   4   5
ENDBRANCH   3   4
ENDBRANCH   2   3
TORSDOF 5
ENDMDL
MODEL 3
REMARK VINA RESULT:     -13.7      1.477      4.094
REMARK  Name = 
REMARK  5 active torsions:
REMARK  status: ('A' for Active; 'I' for Inactive)
REMARK    1  A    between atoms: C_2  and  C_3
REMARK    2  A    between atoms: C_3  and  O_4
REMARK    3  A    between atoms: O_4  and  C_5
REMARK    4  A    between atoms: C_20  and  N_21
REMARK    5  A    between atoms: C_22  and  C_24
REMARK                            x       y       z     vdW  Elec       q    Type
REMARK                         _______ _______ _______ _____ _____    ______ ____
ROOT
ATOM      1  O   UNL     1      -4.961   0.139  24.769  0.00  0.00    -0.271 OA
ATOM      2  C   UNL     1      -4.691   0.911  24.875  0.00  0.00    +0.270 C 
ATOM     11  N   UNL     1      -5.220   1.506  25.095  0.00  0.00    -0.276 N 
ATOM     12  C   UNL     1      -5.944   1.867  25.303  0.00  0.00    +0.095 C 
ATOM     13  C   UNL     1      -5.634   2.796  25.434  0.00  0.00    +0.043 C 
ATOM     14  C   UNL     1      -5.541   3.593  25.579  0.00  0.00    +0.011 C 
ATOM     15  C   UNL     1      -5.138   3.049  25.393  0.00  0.00    +0.058 C 
ATOM     16  C   UNL     1      -5.453   2.156  25.270  0.00  0.00    +0.099 C 
ATOM     17  C   UNL     1      -4.269   2.833  25.188  0.00  0.00    +0.041 A 
ATOM     18  C   UNL     1      -3.523   3.178  25.119  0.00  0.00    +0.014 A 
ATOM     19  C   UNL     1      -2.874   2.716  24.904  0.00  0.00    +0.023 A 
ATOM     20  C   UNL     1      -2.971   1.910  24.758  0.00  0.00    +0.130 A 
ATOM     29  C   UNL     1      -3.717   1.565  24.827  0.00  0.00    +0.276 A 
ATOM     30  O   UNL     1      -3.322   0.874  24.613  0.00  0.00    -0.266 OA
ATOM     31  N   UNL     1      -4.366   2.027  25.042  0.00  0.00    -0.298 N 
ATOM     32  C   UNL     1      -4.728   2.562  25.218  0.00  0.00    +0.110 C 
ENDROOT
BRANCH  20  21
ATOM     21  N   UNL     1      -2.322   1.449  24.543  0.00  0.00    -0.170 NA
ATOM     22  C   UNL     1      -1.579   1.797  24.456  0.00  0.00    +0.275 C 
ATOM     23  O   UNL     1      -1.485   2.607  24.584  0.00  0.00    -0.267 OA
BRANCH  22  24
ATOM     24  C   UNL     1      -0.929   1.335  24.241  0.00  0.00    +0.085 A 
ATOM     25  C   UNL     1      -0.726   1.112  23.475  0.00  0.00    +0.012 A 
ATOM     26  C   UNL     1      -0.040   0.654  23.515  0.00  0.00    +0.008 A 
ATOM     27  C   UNL     1       0.180   0.596  24.307  0.00  0.00    +0.036 A 
ATOM     28  S   UNL     1      -0.369   1.016  24.757  0.00  0.00    -0.082 S 
ENDBRANCH  22  24
ENDBRANCH  20  21
BRANCH   2   3
ATOM      3  C   UNL     1      -3.893   1.089  24.763  0.00  0.00    +0.290 C 
BRANCH   3   4
ATOM      4  O   UNL     1      -3.385   0.520  24.450  0.00  0.00    -0.466 OA
BRANCH   4   5
ATOM      5  C   UNL     1      -3.528  -0.280  24.584  0.00  0.00    +0.139 A 
ATOM      6  C   UNL     1      -3.817  -0.755  23.974  0.00  0.00    +0.037 A 
ATOM      7  C   UNL     1      -3.961  -1.557  24.107  0.00  0.00    +0.003 A 
ATOM      8  C   UNL     1      -3.814  -1.884  24.850  0.00  0.00    +0.000 A 
ATOM      9  C   UNL     1      -3.524  -1.409  25.460  0.00  0.00    +0.003 A 
ATOM     10  C   UNL     1      -3.381  -0.608  25.326  0.00  0.00    +0.037 A 
ENDBRANCH   4   5
ENDBRANCH   3   4
ENDBRANCH   2   3
TORSDOF 5
ENDMDL
MODEL 4
REMARK VINA RESULT:     -13.2      1.642      3.656
REMARK  Name = 
REMARK  5 active torsions:
REMARK  status: ('A' for Active; 'I' for Inactive)
REMARK    1  A    between atoms: C_2  and  C_3
REMARK    2  A    between atoms: C_3  and  O_4
REMARK    3  A    between atoms: O_4  and  C_5
REMARK    4  A    between atoms: C_20  and  N_21
REMARK    5  A    between atoms: C_22  and  C_24
REMARK                            x       y       z     vdW  Elec       q    Type
REMARK                         _______ _______ _______ _____ _____    ______ ____
ROOT
ATOM      1  O   UNL     1      -2.869   3.253  24.761  0.00  0.00    -0.271 OA
ATOM      2  C   UNL     1      -3.387   2.615  24.836  0.00  0.00    +0.270 C 
ATOM     11  N   UNL     1      -4.200   2.748  24.884  0.00  0.00    -0.276 N 
ATOM     12  C   UNL     1      -4.921   3.170  24.908  0.00  0.00    +0.095 C 
ATOM     13  C   UNL     1      -5.552   2.415  24.999  0.00  0.00    +0.043 C 
ATOM     14  C   UNL     1      -6.191   1.915  25.074  0.00  0.00    +0.011 C 
ATOM     15  C   UNL     1      -5.492   1.862  25.029  0.00  0.00    +0.058 C 
ATOM     16  C   UNL     1      -4.895   2.602  24.942  0.00  0.00    +0.099 C 
ATOM     17  C   UNL     1      -4.816   1.239  25.021  0.00  0.00    +0.041 A 
ATOM     18  C   UNL     1      -4.695   0.425  25.063  0.00  0.00    +0.014 A 
ATOM     19  C   UNL     1      -3.930   0.119  25.029  0.00  0.00    +0.023 A 
ATOM     20  C   UNL     1      -3.285   0.629  24.953  0.00  0.00    +0.130 A 
ATOM     29  C   UNL     1      -3.406   1.444  24.911  0.00  0.00    +0.276 A 
ATOM     30  O   UNL     1      -2.584   1.475  24.852  0.00  0.00    -0.266 OA
ATOM     31  N   UNL     1      -4.172   1.749  24.945  0.00  0.00    -0.298 N 
ATOM     32  C   UNL     1      -4.839   1.772  24.989  0.00  0.00    +0.110 C 
ENDROOT
BRANCH  20  21
ATOM     21  N   UNL     1      -2.520   0.323  24.919  0.00  0.00    -0.170 NA
ATOM     22  C   UNL     1      -2.399  -0.492  24.956  0.00  0.00    +0.275 C 
ATOM     23  O   UNL     1      -3.044  -1.002  25.027  0.00  0.00    -0.267 OA
BRANCH  22  24
ATOM     24  C   UNL     1      -1.633  -0.798  24.922  0.00  0.00    +0.085 A 
ATOM     25  C   UNL     1      -1.143  -0.950  25.567  0.00  0.00    +0.012 A 
ATOM     26  C   UNL     1      -0.430  -1.251  25.281  0.00  0.00    +0.008 A 
ATOM     27  C   UNL     1      -0.480  -1.286  24.458  0.00  0.00    +0.036 A 
ATOM     28  S   UNL     1      -1.224  -1.006  24.236  0.00  0.00    -0.082 S 
ENDBRANCH  22  24
ENDBRANCH  20  21
BRANCH   2   3
ATOM      3  C   UNL     1      -3.092   1.845  24.864  0.00  0.00    +0.290 C 
BRANCH   3   4
ATOM      4  O   UNL     1      -2.290   1.706  24.734  0.00  0.00    -0.466 OA
BRANCH   4   5
ATOM      5  C   UNL     1      -1.735   2.288  24.915  0.00  0.00    +0.139 A 
ATOM      6  C   UNL     1      -1.360   2.704  24.308  0.00  0.00    +0.037 A 
ATOM      7  C   UNL     1      -0.804   3.287  24.488  0.00  0.00    +0.003 A 
ATOM      8  C   UNL     1      -0.624   3.454  25.275  0.00  0.00    +0.000 A 
ATOM      9  C   UNL     1      -0.999   3.039  25.883  0.00  0.00    +0.003 A 
ATOM     10  C   UNL     1      -1.554   2.456  25.701  0.00  0.00    +0.037 A 
ENDBRANCH   4   5
ENDBRANCH   3   4
ENDBRANCH   2   3
TORSDOF 5
ENDMDL
MODEL 5
REMARK VINA RESULT:     -12.9      1.725      4.578
REMARK  Name = 
REMARK  5 active torsions:
REMARK  status: ('A' for Active; 'I' for Inactive)
REMARK    1  A    between atoms: C_2  and  C_3
REMARK    2  A    between atoms: C_3  and  O_4
REMARK    3  A    between atoms: O_4  and  C_5
REMARK    4  A    between atoms: C_20  and  N_21
REMARK    5  A    between atoms: C_22  and  C_24
REMARK                            x       y       z     vdW  Elec       q    Type
REMARK                         _______ _______ _______ _____ _____    ______ ____
ROOT
ATOM      1  O   UNL     1      -4.291   3.354  24.909  0.00  0.00    -0.271 OA
ATOM      2  C   UNL     1      -3.501   3.125  24.970  0.00  0.00    +0.270 C 
ATOM     11  N   UNL     1      -2.911   3.697  25.043  0.00  0.00    -0.276 N 
ATOM     12  C   UNL     1      -2.562   4.454  25.102  0.00  0.00    +0.095 C 
ATOM     13  C   UNL     1      -1.612   4.193  25.176  0.00  0.00    +0.043 C 
ATOM     14  C   UNL     1      -0.801   4.146  25.246  0.00  0.00    +0.011 C 
ATOM     15  C   UNL     1      -1.343   3.704  25.181  0.00  0.00    +0.058 C 
ATOM     16  C   UNL     1      -2.257   3.972  25.111  0.00  0.00    +0.099 C 
ATOM     17  C   UNL     1      -1.541   2.808  25.131  0.00  0.00    +0.041 A 
ATOM     18  C   UNL     1      -1.173   2.070  25.135  0.00  0.00    +0.014 A 
ATOM     19  C   UNL     1      -1.626   1.383  25.070  0.00  0.00    +0.023 A 
ATOM     20  C   UNL     1      -2.446   1.435  25.000  0.00  0.00    +0.130 A 
ATOM     29  C   UNL     1      -2.814   2.173  24.995  0.00  0.00    +0.276 A 
ATOM     30  O   UNL     1      -3.506   1.732  24.917  0.00  0.00    -0.266 OA
ATOM     31  N   UNL     1      -2.361   2.860  25.060  0.00  0.00    -0.298 N 
ATOM     32  C   UNL     1      -1.828   3.259  25.122  0.00  0.00    +0.110 C 
ENDROOT
BRANCH  20  21
ATOM     21  N   UNL     1      -2.898   0.748  24.934  0.00  0.00    -0.170 NA
ATOM     22  C   UNL     1      -2.530   0.011  24.929  0.00  0.00    +0.275 C 
ATOM     23  O   UNL     1      -1.708  -0.041  24.990  0.00  0.00    -0.267 OA
BRANCH  22  24
ATOM     24  C   UNL     1      -2.983  -0.677  24.864  0.00  0.00    +0.085 A 
ATOM     25  C   UNL     1      -3.306  -0.979  24.169  0.00  0.00    +0.012 A 
ATOM     26  C   UNL     1      -3.715  -1.671  24.357  0.00  0.00    +0.008 A 
ATOM     27  C   UNL     1      -3.643  -1.796  25.169  0.00  0.00    +0.036 A 
ATOM     28  S   UNL     1      -3.190  -1.181  25.483  0.00  0.00    -0.082 S 
ENDBRANCH  22  24
ENDBRANCH  20  21
BRANCH   2   3
ATOM      3  C   UNL     1      -3.302   2.325  24.957  0.00  0.00    +0.290 C 
BRANCH   3   4
ATOM      4  O   UNL     1      -3.879   1.758  24.798  0.00  0.00    -0.466 OA
BRANCH   4   5
ATOM      5  C   UNL     1      -4.663   1.894  25.015  0.00  0.00    +0.139 A 
ATOM      6  C   UNL     1      -5.233   2.035  24.435  0.00  0.00    +0.037 A 
ATOM      7  C   UNL     1      -6.018   2.171  24.652  0.00  0.00    +0.003 A 
ATOM      8  C   UNL     1      -6.232   2.167  25.448  0.00  0.00    +0.000 A 
ATOM      9  C   UNL     1      -5.661   2.027  26.028  0.00  0.00    +0.003 A 
ATOM     10  C   UNL     1      -4.878   1.890  25.811  0.00  0.00    +0.037 A 
ENDBRANCH   4   5
ENDBRANCH   3   4
ENDBRANCH   2   3
TORSDOF 5
ENDMDL
MODEL 6
REMARK VINA RESULT:     -12.9      1.152      3.071
REMARK  Name = 
REMARK  5 active torsions:
REMARK  status: ('A' for Active; 'I' for Inactive)
REMARK    1  A    between atoms: C_2  and  C_3
REMARK    2  A    between atoms: C_3  and  O_4
REMARK    3  A    between atoms: O_4  and  C_5
REMARK    4  A    between atoms: C_20  and  N_21
REMARK    5  A    between atoms: C_22  and  C_24
REMARK                            x       y       z     vdW  Elec       q    Type
REMARK                         _______ _______ _______ _____ _____    ______ ____
ROOT
ATOM      1  O   UNL     1      -1.952  -0.783  24.685  0.00  0.00    -0.271 OA
ATOM      2  C   UNL     1      -1.792   0.024  24.629  0.00  0.00    +0.270 C 
ATOM     11  N   UNL     1      -1.023   0.284  24.479  0.00  0.00    -0.276 N 
ATOM     12  C   UNL     1      -0.203   0.242  24.329  0.00  0.00    +0.095 C 
ATOM     13  C   UNL     1       0.002   1.207  24.259  0.00  0.00    +0.043 C 
ATOM     14  C   UNL     1       0.329   1.948  24.175  0.00  0.00    +0.011 C 
ATOM     15  C   UNL     1      -0.304   1.671  24.301  0.00  0.00    +0.058 C 
ATOM     16  C   UNL     1      -0.485   0.736  24.365  0.00  0.00    +0.099 C 
ATOM     17  C   UNL     1      -1.178   1.911  24.454  0.00  0.00    +0.041 A 
ATOM     18  C   UNL     1      -1.656   2.580  24.520  0.00  0.00    +0.014 A 
ATOM     19  C   UNL     1      -2.463   2.496  24.672  0.00  0.00    +0.023 A 
ATOM     20  C   UNL     1      -2.791   1.744  24.757  0.00  0.00    +0.130 A 
ATOM     29  C   UNL     1      -2.312   1.075  24.690  0.00  0.00    +0.276 A 
ATOM     30  O   UNL     1      -3.014   0.666  24.833  0.00  0.00    -0.266 OA
ATOM     31  N   UNL     1      -1.506   1.159  24.539  0.00  0.00    -0.298 N 
ATOM     32  C   UNL     1      -0.914   1.448  24.420  0.00  0.00    +0.110 C 
ENDROOT
BRANCH  20  21
ATOM     21  N   UNL     1      -3.597   1.661  24.908  0.00  0.00    -0.170 NA
ATOM     22  C   UNL     1      -4.076   2.329  24.974  0.00  0.00    +0.275 C 
ATOM     23  O   UNL     1      -3.748   3.082  24.888  0.00  0.00    -0.267 OA
BRANCH  22  24
ATOM     24  C   UNL     1      -4.883   2.246  25.125  0.00  0.00    +0.085 A 
ATOM     25  C   UNL     1      -5.458   2.020  24.579  0.00  0.00    +0.012 A 
ATOM     26  C   UNL     1      -6.187   2.008  24.966  0.00  0.00    +0.008 A 
ATOM     27  C   UNL     1      -6.062   2.227  25.751  0.00  0.00    +0.036 A 
ATOM     28  S   UNL     1      -5.256   2.374  25.850  0.00  0.00    -0.082 S 
ENDBRANCH  22  24
ENDBRANCH  20  21
BRANCH   2   3
ATOM      3  C   UNL     1      -2.402   0.573  24.723  0.00  0.00    +0.290 C 
BRANCH   3   4
ATOM      4  O   UNL     1      -3.144   0.323  24.981  0.00  0.00    -0.466 OA
BRANCH   4   5
ATOM      5  C   UNL     1      -3.391  -0.452  24.842  0.00  0.00    +0.139 A 
ATOM      6  C   UNL     1      -3.371  -1.006  25.454  0.00  0.00    +0.037 A 
ATOM      7  C   UNL     1      -3.618  -1.782  25.316  0.00  0.00    +0.003 A 
ATOM      8  C   UNL     1      -3.885  -2.002  24.567  0.00  0.00    +0.000 A 
ATOM      9  C   UNL     1      -3.905  -1.448  23.956  0.00  0.00    +0.003 A 
ATOM     10  C   UNL     1      -3.658  -0.673  24.094  0.00  0.00    +0.037 A 
ENDBRANCH   4   5
ENDBRANCH   3   4
ENDBRANCH   2   3
TORSDOF 5
ENDMDL
