REMARK  Name = 
REMARK  8 active torsions:
REMARK  status: ('A' for Active; 'I' for Inactive)
REMARK    1  A    between atoms: C_4  and  C_7
REMARK    2  A    between atoms: C_12  and  N_28
REMARK    3  A    between atoms: C_14  and  C_15
REMARK    4  A    between atoms: N_17  and  C_18
REMARK    5  A    between atoms: C_18  and  C_19
REMARK    6  A    between atoms: C_18  and  C_25
REMARK    7  A    between atoms: C_19  and  C_20
REMARK    8  A    between atoms: C_29  and  C_31
REMARK                            x       y       z     vdW  Elec       q    Type
REMARK                         _______ _______ _______ _____ _____    ______ ____
ROOT
ATOM      7  C   UNL     1       0.290  -3.236   0.000  0.00  0.00    +0.268 C 
ATOM      8  O   UNL     1      -0.046  -3.990   0.000  0.00  0.00    -0.268 OA
ATOM      9  N   UNL     1       1.110  -3.150   0.000  0.00  0.00    -0.268 N 
ATOM     10  C   UNL     1       1.446  -2.396   0.000  0.00  0.00    +0.096 C 
ATOM     11  C   UNL     1       2.266  -2.310   0.000  0.00  0.00    +0.043 C 
ATOM     12  C   UNL     1       2.751  -2.977   0.000  0.00  0.00    +0.100 C 
ATOM     13  C   UNL     1       2.416  -3.731   0.000  0.00  0.00    +0.051 C 
ATOM     14  C   UNL     1       1.595  -3.817   0.000  0.00  0.00    +0.155 C 
ENDROOT
BRANCH   7   4
ATOM      1  C   UNL     1      -0.608  -0.474   0.000  0.00  0.00    +0.059 C 
ATOM      2  C   UNL     1      -0.608  -1.299   0.000  0.00  0.00    +0.089 A 
ATOM      3  N   UNL     1       0.060  -1.784   0.000  0.00  0.00    -0.238 NA
ATOM      4  C   UNL     1      -0.195  -2.569   0.000  0.00  0.00    +0.141 A 
ATOM      5  C   UNL     1      -1.020  -2.569   0.000  0.00  0.00    +0.060 A 
ATOM      6  S   UNL     1      -1.275  -1.784   0.000  0.00  0.00    -0.070 S 
ENDBRANCH   7   4
BRANCH  14  15
ATOM     15  C   UNL     1       1.260  -4.571   0.000  0.00  0.00    +0.260 C 
ATOM     16  O   UNL     1       1.744  -5.238   0.000  0.00  0.00    -0.272 OA
ATOM     17  N   UNL     1       0.439  -4.657   0.000  0.00  0.00    -0.196 NA
BRANCH  17  18
ATOM     18  C   UNL     1       0.103  -5.411   0.000  0.00  0.00    +0.179 C 
BRANCH  18  25
ATOM     25  C   UNL     1       0.588  -6.078   0.000  0.00  0.00    +0.281 C 
ATOM     26  N   UNL     1       1.409  -5.992   0.000  0.00  0.00    -0.086 NA
ATOM     27  O   UNL     1       0.253  -6.832   0.000  0.00  0.00    -0.270 OA
ENDBRANCH  18  25
BRANCH  18  19
ATOM     19  C   UNL     1      -0.717  -5.497   0.000  0.00  0.00    +0.064 C 
BRANCH  19  20
ATOM     20  C   UNL     1      -1.053  -6.251   0.000  0.00  0.00    +0.010 A 
ATOM     21  C   UNL     1      -0.640  -6.965   0.000  0.00  0.00    +0.003 A 
ATOM     22  C   UNL     1      -1.192  -7.578   0.000  0.00  0.00    +0.007 A 
ATOM     23  C   UNL     1      -1.946  -7.243   0.000  0.00  0.00    +0.035 A 
ATOM     24  S   UNL     1      -1.859  -6.422   0.000  0.00  0.00    -0.091 S 
ENDBRANCH  19  20
ENDBRANCH  18  19
ENDBRANCH  17  18
ENDBRANCH  14  15
BRANCH  12  28
ATOM     28  N   UNL     1       3.572  -2.891   0.000  0.00  0.00    -0.203 NA
ATOM     29  C   UNL     1       3.907  -2.138   0.000  0.00  0.00    +0.273 C 
ATOM     30  O   UNL     1       3.422  -1.470   0.000  0.00  0.00    -0.268 OA
BRANCH  29  31
ATOM     31  C   UNL     1       4.728  -2.051   0.000  0.00  0.00    +0.119 A 
ATOM     32  C   UNL     1       5.140  -1.337   0.000  0.00  0.00    +0.093 A 
ATOM     33  C   UNL     1       4.805  -0.583   0.000  0.00  0.00    +0.055 C 
ATOM     34  N   UNL     1       5.947  -1.508   0.000  0.00  0.00    -0.145 NA
ATOM     35  N   UNL     1       6.033  -2.329   0.000  0.00  0.00    -0.110 NA
ATOM     36  S   UNL     1       5.280  -2.664   0.000  0.00  0.00    +0.042 S 
ENDBRANCH  29  31
ENDBRANCH  12  28
TORSDOF 8
