MODEL 1
REMARK VINA RESULT:     -11.1      0.000      0.000
REMARK  Name = 
REMARK  5 active torsions:
REMARK  status: ('A' for Active; 'I' for Inactive)
REMARK    1  A    between atoms: O_2  and  C_3
REMARK    2  A    between atoms: C_6  and  C_9
REMARK    3  A    between atoms: N_11  and  C_12
REMARK    4  A    between atoms: C_14  and  C_18
REMARK    5  A    between atoms: C_20  and  C_23
REMARK                            x       y       z     vdW  Elec       q    Type
REMARK                         _______ _______ _______ _____ _____    ______ ____
ROOT
ATOM     12  C   UNL     1      -4.583   1.022  25.167  0.00  0.00    +0.113 C 
ATOM     13  C   UNL     1      -3.962   1.533  25.354  0.00  0.00    +0.049 C 
ATOM     14  C   UNL     1      -4.262   2.302  25.369  0.00  0.00    +0.139 C 
ATOM     15  N   UNL     1      -5.067   2.265  25.191  0.00  0.00    -0.264 NA
ATOM     16  C   UNL     1      -5.583   2.906  25.145  0.00  0.00    +0.090 C 
ATOM     17  C   UNL     1      -5.265   1.473  25.066  0.00  0.00    +0.094 C 
ENDROOT
BRANCH  14  18
ATOM     18  C   UNL     1      -3.832   2.986  25.533  0.00  0.00    +0.251 A 
ATOM     19  N   UNL     1      -3.126   3.213  25.173  0.00  0.00    -0.190 NA
ATOM     20  C   UNL     1      -2.890   3.932  25.504  0.00  0.00    +0.203 A 
ATOM     21  N   UNL     1      -3.451   4.149  26.068  0.00  0.00    -0.056 NA
ATOM     22  O   UNL     1      -4.033   3.564  26.087  0.00  0.00    -0.336 OA
BRANCH  20  23
ATOM     23  C   UNL     1      -2.212   4.358  25.304  0.00  0.00    +0.039 A 
ATOM     24  C   UNL     1      -2.257   5.174  25.190  0.00  0.00    +0.004 A 
ATOM     25  C   UNL     1      -1.580   5.600  24.991  0.00  0.00    +0.011 A 
ATOM     26  C   UNL     1      -0.857   5.211  24.906  0.00  0.00    +0.058 A 
ATOM     27 CL   UNL     1      -0.180   5.637  24.707  0.00  0.00    -0.082 Cl
ATOM     28  C   UNL     1      -0.812   4.396  25.020  0.00  0.00    +0.011 A 
ATOM     29  C   UNL     1      -1.490   3.969  25.220  0.00  0.00    +0.004 A 
ENDBRANCH  20  23
ENDBRANCH  14  18
BRANCH  12  11
ATOM      9  C   UNL     1      -4.036  -0.130  24.522  0.00  0.00    +0.265 C 
ATOM     10  O   UNL     1      -3.597   0.358  24.024  0.00  0.00    -0.268 OA
ATOM     11  N   UNL     1      -4.529   0.202  25.094  0.00  0.00    -0.202 NA
BRANCH   9   6
ATOM      3  C   UNL     1      -3.876  -2.590  24.302  0.00  0.00    +0.139 A 
ATOM      4  C   UNL     1      -4.308  -2.155  23.752  0.00  0.00    +0.037 A 
ATOM      5  C   UNL     1      -4.362  -1.334  23.825  0.00  0.00    +0.008 A 
ATOM      6  C   UNL     1      -3.983  -0.950  24.449  0.00  0.00    +0.055 A 
ATOM      7  C   UNL     1      -3.551  -1.386  24.999  0.00  0.00    +0.008 A 
ATOM      8  C   UNL     1      -3.497  -2.207  24.926  0.00  0.00    +0.037 A 
BRANCH   3   2
ATOM      1  C   UNL     1      -3.085  -3.769  24.141  0.00  0.00    +0.252 C 
ATOM      2  O   UNL     1      -3.822  -3.410  24.229  0.00  0.00    -0.471 OA
ENDBRANCH   3   2
ENDBRANCH   9   6
ENDBRANCH  12  11
TORSDOF 5
ENDMDL
MODEL 2
REMARK VINA RESULT:      -9.8      3.948      5.252
REMARK  Name = 
REMARK  5 active torsions:
REMARK  status: ('A' for Active; 'I' for Inactive)
REMARK    1  A    between atoms: O_2  and  C_3
REMARK    2  A    between atoms: C_6  and  C_9
REMARK    3  A    between atoms: N_11  and  C_12
REMARK    4  A    between atoms: C_14  and  C_18
REMARK    5  A    between atoms: C_20  and  C_23
REMARK                            x       y       z     vdW  Elec       q    Type
REMARK                         _______ _______ _______ _____ _____    ______ ____
ROOT
ATOM     12  C   UNL     1      -0.428   0.377  24.195  0.00  0.00    +0.113 C 
ATOM     13  C   UNL     1      -1.114   0.778  23.974  0.00  0.00    +0.049 C 
ATOM     14  C   UNL     1      -1.747   0.445  24.387  0.00  0.00    +0.139 C 
ATOM     15  N   UNL     1      -1.451  -0.160  24.862  0.00  0.00    -0.264 NA
ATOM     16  C   UNL     1      -1.892  -0.640  25.368  0.00  0.00    +0.090 C 
ATOM     17  C   UNL     1      -0.635  -0.202  24.743  0.00  0.00    +0.094 C 
ENDROOT
BRANCH  14  18
ATOM     18  C   UNL     1      -2.536   0.678  24.333  0.00  0.00    +0.251 A 
ATOM     19  N   UNL     1      -2.891   1.293  24.753  0.00  0.00    -0.190 NA
ATOM     20  C   UNL     1      -3.684   1.331  24.529  0.00  0.00    +0.203 A 
ATOM     21  N   UNL     1      -3.820   0.739  23.971  0.00  0.00    -0.056 NA
ATOM     22  O   UNL     1      -3.111   0.335  23.850  0.00  0.00    -0.336 OA
BRANCH  20  23
ATOM     23  C   UNL     1      -4.243   1.867  24.814  0.00  0.00    +0.039 A 
ATOM     24  C   UNL     1      -4.113   2.678  24.738  0.00  0.00    +0.004 A 
ATOM     25  C   UNL     1      -4.672   3.213  25.023  0.00  0.00    +0.011 A 
ATOM     26  C   UNL     1      -5.361   2.939  25.383  0.00  0.00    +0.058 A 
ATOM     27 CL   UNL     1      -5.920   3.474  25.668  0.00  0.00    -0.082 Cl
ATOM     28  C   UNL     1      -5.491   2.127  25.460  0.00  0.00    +0.011 A 
ATOM     29  C   UNL     1      -4.932   1.591  25.175  0.00  0.00    +0.004 A 
ENDBRANCH  20  23
ENDBRANCH  14  18
BRANCH  12  11
ATOM      9  C   UNL     1       0.671   0.037  23.347  0.00  0.00    +0.265 C 
ATOM     10  O   UNL     1       0.247  -0.609  23.059  0.00  0.00    -0.268 OA
ATOM     11  N   UNL     1       0.333   0.530  23.915  0.00  0.00    -0.202 NA
BRANCH   9   6
ATOM      3  C   UNL     1       2.954   0.496  22.509  0.00  0.00    +0.139 A 
ATOM      4  C   UNL     1       2.487  -0.074  22.140  0.00  0.00    +0.037 A 
ATOM      5  C   UNL     1       1.725  -0.227  22.420  0.00  0.00    +0.008 A 
ATOM      6  C   UNL     1       1.432   0.190  23.068  0.00  0.00    +0.055 A 
ATOM      7  C   UNL     1       1.900   0.760  23.436  0.00  0.00    +0.008 A 
ATOM      8  C   UNL     1       2.661   0.913  23.156  0.00  0.00    +0.037 A 
BRANCH   3   2
ATOM      1  C   UNL     1       4.348   0.686  22.756  0.00  0.00    +0.252 C 
ATOM      2  O   UNL     1       3.715   0.649  22.229  0.00  0.00    -0.471 OA
ENDBRANCH   3   2
ENDBRANCH   9   6
ENDBRANCH  12  11
TORSDOF 5
ENDMDL
MODEL 3
REMARK VINA RESULT:      -9.7      2.103      5.965
REMARK  Name = 
REMARK  5 active torsions:
REMARK  status: ('A' for Active; 'I' for Inactive)
REMARK    1  A    between atoms: O_2  and  C_3
REMARK    2  A    between atoms: C_6  and  C_9
REMARK    3  A    between atoms: N_11  and  C_12
REMARK    4  A    between atoms: C_14  and  C_18
REMARK    5  A    between atoms: C_20  and  C_23
REMARK                            x       y       z     vdW  Elec       q    Type
REMARK                         _______ _______ _______ _____ _____    ______ ____
ROOT
ATOM     12  C   UNL     1      -3.818   2.734  24.848  0.00  0.00    +0.113 C 
ATOM     13  C   UNL     1      -3.740   1.945  24.618  0.00  0.00    +0.049 C 
ATOM     14  C   UNL     1      -4.434   1.550  24.826  0.00  0.00    +0.139 C 
ATOM     15  N   UNL     1      -4.939   2.095  25.185  0.00  0.00    -0.264 NA
ATOM     16  C   UNL     1      -5.693   1.936  25.479  0.00  0.00    +0.090 C 
ATOM     17  C   UNL     1      -4.558   2.826  25.199  0.00  0.00    +0.094 C 
ENDROOT
BRANCH  14  18
ATOM     18  C   UNL     1      -4.594   0.751  24.698  0.00  0.00    +0.251 A 
ATOM     19  N   UNL     1      -4.047   0.135  24.736  0.00  0.00    -0.190 NA
ATOM     20  C   UNL     1      -4.445  -0.569  24.571  0.00  0.00    +0.203 A 
ATOM     21  N   UNL     1      -5.237  -0.388  24.431  0.00  0.00    -0.056 NA
ATOM     22  O   UNL     1      -5.330   0.428  24.510  0.00  0.00    -0.336 OA
BRANCH  20  23
ATOM     23  C   UNL     1      -4.109  -1.323  24.549  0.00  0.00    +0.039 A 
ATOM     24  C   UNL     1      -3.638  -1.582  25.175  0.00  0.00    +0.004 A 
ATOM     25  C   UNL     1      -3.303  -2.335  25.153  0.00  0.00    +0.011 A 
ATOM     26  C   UNL     1      -3.437  -2.829  24.505  0.00  0.00    +0.058 A 
ATOM     27 CL   UNL     1      -3.101  -3.581  24.483  0.00  0.00    -0.082 Cl
ATOM     28  C   UNL     1      -3.907  -2.569  23.880  0.00  0.00    +0.011 A 
ATOM     29  C   UNL     1      -4.244  -1.816  23.901  0.00  0.00    +0.004 A 
ENDBRANCH  20  23
ENDBRANCH  14  18
BRANCH  12  11
ATOM      9  C   UNL     1      -2.625   3.394  25.277  0.00  0.00    +0.265 C 
ATOM     10  O   UNL     1      -2.564   2.870  25.911  0.00  0.00    -0.268 OA
ATOM     11  N   UNL     1      -3.252   3.326  24.746  0.00  0.00    -0.202 NA
BRANCH   9   6
ATOM      3  C   UNL     1      -0.929   5.170  24.970  0.00  0.00    +0.139 A 
ATOM      4  C   UNL     1      -1.693   5.367  25.209  0.00  0.00    +0.037 A 
ATOM      5  C   UNL     1      -2.259   4.774  25.311  0.00  0.00    +0.008 A 
ATOM      6  C   UNL     1      -2.060   3.986  25.175  0.00  0.00    +0.055 A 
ATOM      7  C   UNL     1      -1.296   3.789  24.936  0.00  0.00    +0.008 A 
ATOM      8  C   UNL     1      -0.730   4.382  24.833  0.00  0.00    +0.037 A 
BRANCH   3   2
ATOM      1  C   UNL     1       0.136   5.746  24.212  0.00  0.00    +0.252 C 
ATOM      2  O   UNL     1      -0.364   5.762  24.867  0.00  0.00    -0.471 OA
ENDBRANCH   3   2
ENDBRANCH   9   6
ENDBRANCH  12  11
TORSDOF 5
ENDMDL
MODEL 4
REMARK VINA RESULT:      -9.6      4.340      5.766
REMARK  Name = 
REMARK  5 active torsions:
REMARK  status: ('A' for Active; 'I' for Inactive)
REMARK    1  A    between atoms: O_2  and  C_3
REMARK    2  A    between atoms: C_6  and  C_9
REMARK    3  A    between atoms: N_11  and  C_12
REMARK    4  A    between atoms: C_14  and  C_18
REMARK    5  A    between atoms: C_20  and  C_23
REMARK                            x       y       z     vdW  Elec       q    Type
REMARK                         _______ _______ _______ _____ _____    ______ ____
ROOT
ATOM     12  C   UNL     1      -1.191   0.793  24.250  0.00  0.00    +0.113 C 
ATOM     13  C   UNL     1      -0.560   0.934  23.738  0.00  0.00    +0.049 C 
ATOM     14  C   UNL     1      -0.091   0.255  23.721  0.00  0.00    +0.139 C 
ATOM     15  N   UNL     1      -0.433  -0.304  24.222  0.00  0.00    -0.264 NA
ATOM     16  C   UNL     1      -0.146  -1.063  24.369  0.00  0.00    +0.090 C 
ATOM     17  C   UNL     1      -1.113   0.029  24.549  0.00  0.00    +0.094 C 
ENDROOT
BRANCH  14  18
ATOM     18  C   UNL     1       0.598   0.154  23.280  0.00  0.00    +0.251 A 
ATOM     19  N   UNL     1       1.366   0.314  23.536  0.00  0.00    -0.190 NA
ATOM     20  C   UNL     1       1.884   0.134  22.918  0.00  0.00    +0.203 A 
ATOM     21  N   UNL     1       1.436  -0.137  22.281  0.00  0.00    -0.056 NA
ATOM     22  O   UNL     1       0.641  -0.125  22.504  0.00  0.00    -0.336 OA
BRANCH  20  23
ATOM     23  C   UNL     1       2.705   0.211  22.936  0.00  0.00    +0.039 A 
ATOM     24  C   UNL     1       3.176  -0.434  23.142  0.00  0.00    +0.004 A 
ATOM     25  C   UNL     1       3.997  -0.356  23.159  0.00  0.00    +0.011 A 
ATOM     26  C   UNL     1       4.347   0.367  22.971  0.00  0.00    +0.058 A 
ATOM     27 CL   UNL     1       5.168   0.445  22.988  0.00  0.00    -0.082 Cl
ATOM     28  C   UNL     1       3.876   1.012  22.765  0.00  0.00    +0.011 A 
ATOM     29  C   UNL     1       3.055   0.934  22.747  0.00  0.00    +0.004 A 
ENDBRANCH  20  23
ENDBRANCH  14  18
BRANCH  12  11
ATOM      9  C   UNL     1      -2.517   1.281  24.035  0.00  0.00    +0.265 C 
ATOM     10  O   UNL     1      -2.634   0.705  23.457  0.00  0.00    -0.268 OA
ATOM     11  N   UNL     1      -1.795   1.325  24.432  0.00  0.00    -0.202 NA
BRANCH   9   6
ATOM      3  C   UNL     1      -4.329   2.877  24.579  0.00  0.00    +0.139 A 
ATOM      4  C   UNL     1      -3.678   3.127  24.141  0.00  0.00    +0.037 A 
ATOM      5  C   UNL     1      -3.073   2.595  23.959  0.00  0.00    +0.008 A 
ATOM      6  C   UNL     1      -3.121   1.813  24.217  0.00  0.00    +0.055 A 
ATOM      7  C   UNL     1      -3.773   1.563  24.655  0.00  0.00    +0.008 A 
ATOM      8  C   UNL     1      -4.378   2.095  24.837  0.00  0.00    +0.037 A 
BRANCH   3   2
ATOM      1  C   UNL     1      -5.065   3.631  25.544  0.00  0.00    +0.252 C 
ATOM      2  O   UNL     1      -4.933   3.409  24.761  0.00  0.00    -0.471 OA
ENDBRANCH   3   2
ENDBRANCH   9   6
ENDBRANCH  12  11
TORSDOF 5
ENDMDL
MODEL 5
REMARK VINA RESULT:      -9.6      2.996      6.652
REMARK  Name = 
REMARK  5 active torsions:
REMARK  status: ('A' for Active; 'I' for Inactive)
REMARK    1  A    between atoms: O_2  and  C_3
REMARK    2  A    between atoms: C_6  and  C_9
REMARK    3  A    between atoms: N_11  and  C_12
REMARK    4  A    between atoms: C_14  and  C_18
REMARK    5  A    between atoms: C_20  and  C_23
REMARK                            x       y       z     vdW  Elec       q    Type
REMARK                         _______ _______ _______ _____ _____    ______ ____
ROOT
ATOM     12  C   UNL     1      -0.490   1.455  24.696  0.00  0.00    +0.113 C 
ATOM     13  C   UNL     1      -1.015   0.859  24.920  0.00  0.00    +0.049 C 
ATOM     14  C   UNL     1      -0.742   0.148  24.600  0.00  0.00    +0.139 C 
ATOM     15  N   UNL     1      -0.050   0.306  24.180  0.00  0.00    -0.264 NA
ATOM     16  C   UNL     1       0.406  -0.246  23.771  0.00  0.00    +0.090 C 
ATOM     17  C   UNL     1       0.106   1.114  24.240  0.00  0.00    +0.094 C 
ENDROOT
BRANCH  14  18
ATOM     18  C   UNL     1      -1.100  -0.590  24.686  0.00  0.00    +0.251 A 
ATOM     19  N   UNL     1      -1.848  -0.802  24.410  0.00  0.00    -0.190 NA
ATOM     20  C   UNL     1      -1.982  -1.590  24.616  0.00  0.00    +0.203 A 
ATOM     21  N   UNL     1      -1.317  -1.865  25.020  0.00  0.00    -0.056 NA
ATOM     22  O   UNL     1      -0.772  -1.247  25.063  0.00  0.00    -0.336 OA
BRANCH  20  23
ATOM     23  C   UNL     1      -2.663  -2.026  24.449  0.00  0.00    +0.039 A 
ATOM     24  C   UNL     1      -2.663  -2.845  24.549  0.00  0.00    +0.004 A 
ATOM     25  C   UNL     1      -3.342  -3.280  24.381  0.00  0.00    +0.011 A 
ATOM     26  C   UNL     1      -4.023  -2.898  24.114  0.00  0.00    +0.058 A 
ATOM     27 CL   UNL     1      -4.702  -3.333  23.946  0.00  0.00    -0.082 Cl
ATOM     28  C   UNL     1      -4.023  -2.079  24.014  0.00  0.00    +0.011 A 
ATOM     29  C   UNL     1      -3.342  -1.643  24.181  0.00  0.00    +0.004 A 
ENDBRANCH  20  23
ENDBRANCH  14  18
BRANCH  12  11
ATOM      9  C   UNL     1      -1.081   2.740  24.493  0.00  0.00    +0.265 C 
ATOM     10  O   UNL     1      -1.550   2.428  23.890  0.00  0.00    -0.268 OA
ATOM     11  N   UNL     1      -0.551   2.253  24.896  0.00  0.00    -0.202 NA
BRANCH   9   6
ATOM      3  C   UNL     1      -1.265   5.135  25.091  0.00  0.00    +0.139 A 
ATOM      4  C   UNL     1      -0.636   4.873  24.627  0.00  0.00    +0.037 A 
ATOM      5  C   UNL     1      -0.574   4.074  24.428  0.00  0.00    +0.008 A 
ATOM      6  C   UNL     1      -1.143   3.538  24.692  0.00  0.00    +0.055 A 
ATOM      7  C   UNL     1      -1.772   3.800  25.156  0.00  0.00    +0.008 A 
ATOM      8  C   UNL     1      -1.833   4.599  25.356  0.00  0.00    +0.037 A 
BRANCH   3   2
ATOM      1  C   UNL     1      -1.944   6.387  24.988  0.00  0.00    +0.252 C 
ATOM      2  O   UNL     1      -1.326   5.933  25.291  0.00  0.00    -0.471 OA
ENDBRANCH   3   2
ENDBRANCH   9   6
ENDBRANCH  12  11
TORSDOF 5
ENDMDL
MODEL 6
REMARK VINA RESULT:      -9.5      2.271      2.950
REMARK  Name = 
REMARK  5 active torsions:
REMARK  status: ('A' for Active; 'I' for Inactive)
REMARK    1  A    between atoms: O_2  and  C_3
REMARK    2  A    between atoms: C_6  and  C_9
REMARK    3  A    between atoms: N_11  and  C_12
REMARK    4  A    between atoms: C_14  and  C_18
REMARK    5  A    between atoms: C_20  and  C_23
REMARK                            x       y       z     vdW  Elec       q    Type
REMARK                         _______ _______ _______ _____ _____    ______ ____
ROOT
ATOM     12  C   UNL     1      -0.995   0.057  24.265  0.00  0.00    +0.113 C 
ATOM     13  C   UNL     1      -1.166   0.777  24.629  0.00  0.00    +0.049 C 
ATOM     14  C   UNL     1      -0.485   1.243  24.604  0.00  0.00    +0.139 C 
ATOM     15  N   UNL     1       0.106   0.810  24.224  0.00  0.00    -0.264 NA
ATOM     16  C   UNL     1       0.877   1.065  24.079  0.00  0.00    +0.090 C 
ATOM     17  C   UNL     1      -0.210   0.077  24.015  0.00  0.00    +0.094 C 
ENDROOT
BRANCH  14  18
ATOM     18  C   UNL     1      -0.409   2.007  24.905  0.00  0.00    +0.251 A 
ATOM     19  N   UNL     1      -0.888   2.652  24.718  0.00  0.00    -0.190 NA
ATOM     20  C   UNL     1      -0.615   3.304  25.144  0.00  0.00    +0.203 A 
ATOM     21  N   UNL     1       0.032   3.062  25.595  0.00  0.00    -0.056 NA
ATOM     22  O   UNL     1       0.160   2.260  25.447  0.00  0.00    -0.336 OA
BRANCH  20  23
ATOM     23  C   UNL     1      -0.934   4.065  25.124  0.00  0.00    +0.039 A 
ATOM     24  C   UNL     1      -1.679   4.209  25.447  0.00  0.00    +0.004 A 
ATOM     25  C   UNL     1      -1.997   4.969  25.426  0.00  0.00    +0.011 A 
ATOM     26  C   UNL     1      -1.571   5.586  25.082  0.00  0.00    +0.058 A 
ATOM     27 CL   UNL     1      -1.889   6.347  25.061  0.00  0.00    -0.082 Cl
ATOM     28  C   UNL     1      -0.826   5.442  24.758  0.00  0.00    +0.011 A 
ATOM     29  C   UNL     1      -0.507   4.681  24.779  0.00  0.00    +0.004 A 
ENDBRANCH  20  23
ENDBRANCH  14  18
BRANCH  12  11
ATOM      9  C   UNL     1      -1.843  -0.945  24.829  0.00  0.00    +0.265 C 
ATOM     10  O   UNL     1      -1.644  -0.687  25.586  0.00  0.00    -0.268 OA
ATOM     11  N   UNL     1      -1.519  -0.573  24.168  0.00  0.00    -0.202 NA
BRANCH   9   6
ATOM      3  C   UNL     1      -3.414  -2.836  24.538  0.00  0.00    +0.139 A 
ATOM      4  C   UNL     1      -2.604  -2.955  24.442  0.00  0.00    +0.037 A 
ATOM      5  C   UNL     1      -2.080  -2.324  24.539  0.00  0.00    +0.008 A 
ATOM      6  C   UNL     1      -2.367  -1.575  24.732  0.00  0.00    +0.055 A 
ATOM      7  C   UNL     1      -3.177  -1.457  24.828  0.00  0.00    +0.008 A 
ATOM      8  C   UNL     1      -3.701  -2.087  24.731  0.00  0.00    +0.037 A 
BRANCH   3   2
ATOM      1  C   UNL     1      -4.369  -3.540  23.743  0.00  0.00    +0.252 C 
ATOM      2  O   UNL     1      -3.938  -3.466  24.441  0.00  0.00    -0.471 OA
ENDBRANCH   3   2
ENDBRANCH   9   6
ENDBRANCH  12  11
TORSDOF 5
ENDMDL
MODEL 7
REMARK VINA RESULT:      -9.2      4.666      6.553
REMARK  Name = 
REMARK  5 active torsions:
REMARK  status: ('A' for Active; 'I' for Inactive)
REMARK    1  A    between atoms: O_2  and  C_3
REMARK    2  A    between atoms: C_6  and  C_9
REMARK    3  A    between atoms: N_11  and  C_12
REMARK    4  A    between atoms: C_14  and  C_18
REMARK    5  A    between atoms: C_20  and  C_23
REMARK                            x       y       z     vdW  Elec       q    Type
REMARK                         _______ _______ _______ _____ _____    ______ ____
ROOT
ATOM     12  C   UNL     1       0.542   0.954  23.926  0.00  0.00    +0.113 C 
ATOM     13  C   UNL     1       0.064   0.371  24.260  0.00  0.00    +0.049 C 
ATOM     14  C   UNL     1      -0.712   0.652  24.266  0.00  0.00    +0.139 C 
ATOM     15  N   UNL     1      -0.713   1.408  23.936  0.00  0.00    -0.264 NA
ATOM     16  C   UNL     1      -1.372   1.892  23.834  0.00  0.00    +0.090 C 
ATOM     17  C   UNL     1       0.063   1.594  23.726  0.00  0.00    +0.094 C 
ENDROOT
BRANCH  14  18
ATOM     18  C   UNL     1      -1.372   0.247  24.552  0.00  0.00    +0.251 A 
ATOM     19  N   UNL     1      -1.794  -0.337  24.151  0.00  0.00    -0.190 NA
ATOM     20  C   UNL     1      -2.408  -0.590  24.642  0.00  0.00    +0.203 A 
ATOM     21  N   UNL     1      -2.365  -0.162  25.345  0.00  0.00    -0.056 NA
ATOM     22  O   UNL     1      -1.724   0.355  25.291  0.00  0.00    -0.336 OA
BRANCH  20  23
ATOM     23  C   UNL     1      -2.967  -1.169  24.460  0.00  0.00    +0.039 A 
ATOM     24  C   UNL     1      -3.677  -0.957  24.097  0.00  0.00    +0.004 A 
ATOM     25  C   UNL     1      -4.236  -1.536  23.915  0.00  0.00    +0.011 A 
ATOM     26  C   UNL     1      -4.085  -2.327  24.096  0.00  0.00    +0.058 A 
ATOM     27 CL   UNL     1      -4.643  -2.905  23.914  0.00  0.00    -0.082 Cl
ATOM     28  C   UNL     1      -3.375  -2.538  24.459  0.00  0.00    +0.011 A 
ATOM     29  C   UNL     1      -2.816  -1.959  24.641  0.00  0.00    +0.004 A 
ENDBRANCH  20  23
ENDBRANCH  14  18
BRANCH  12  11
ATOM      9  C   UNL     1       1.660   0.496  23.163  0.00  0.00    +0.265 C 
ATOM     10  O   UNL     1       1.146   0.137  22.627  0.00  0.00    -0.268 OA
ATOM     11  N   UNL     1       1.358   0.905  23.812  0.00  0.00    -0.202 NA
BRANCH   9   6
ATOM      3  C   UNL     1       4.107   0.349  22.821  0.00  0.00    +0.139 A 
ATOM      4  C   UNL     1       3.723   1.074  22.745  0.00  0.00    +0.037 A 
ATOM      5  C   UNL     1       2.907   1.123  22.859  0.00  0.00    +0.008 A 
ATOM      6  C   UNL     1       2.476   0.447  23.049  0.00  0.00    +0.055 A 
ATOM      7  C   UNL     1       2.859  -0.279  23.125  0.00  0.00    +0.008 A 
ATOM      8  C   UNL     1       3.676  -0.328  23.011  0.00  0.00    +0.037 A 
BRANCH   3   2
ATOM      1  C   UNL     1       5.418   0.130  23.345  0.00  0.00    +0.252 C 
ATOM      2  O   UNL     1       4.923   0.299  22.708  0.00  0.00    -0.471 OA
ENDBRANCH   3   2
ENDBRANCH   9   6
ENDBRANCH  12  11
TORSDOF 5
ENDMDL
MODEL 8
REMARK VINA RESULT:      -7.6     14.093     14.966
REMARK  Name = 
REMARK  5 active torsions:
REMARK  status: ('A' for Active; 'I' for Inactive)
REMARK    1  A    between atoms: O_2  and  C_3
REMARK    2  A    between atoms: C_6  and  C_9
REMARK    3  A    between atoms: N_11  and  C_12
REMARK    4  A    between atoms: C_14  and  C_18
REMARK    5  A    between atoms: C_20  and  C_23
REMARK                            x       y       z     vdW  Elec       q    Type
REMARK                         _______ _______ _______ _____ _____    ______ ____
ROOT
ATOM     12  C   UNL     1      -5.566 -10.629  17.284  0.00  0.00    +0.113 C 
ATOM     13  C   UNL     1      -6.295 -10.391  16.980  0.00  0.00    +0.049 C 
ATOM     14  C   UNL     1      -6.818 -10.302  17.612  0.00  0.00    +0.139 C 
ATOM     15  N   UNL     1      -6.412 -10.486  18.307  0.00  0.00    -0.264 NA
ATOM     16  C   UNL     1      -6.724 -10.470  19.070  0.00  0.00    +0.090 C 
ATOM     17  C   UNL     1      -5.638 -10.688  18.103  0.00  0.00    +0.094 C 
ENDROOT
BRANCH  14  18
ATOM     18  C   UNL     1      -7.608 -10.071  17.559  0.00  0.00    +0.251 A 
ATOM     19  N   UNL     1      -7.883  -9.342  17.289  0.00  0.00    -0.190 NA
ATOM     20  C   UNL     1      -8.707  -9.349  17.330  0.00  0.00    +0.203 A 
ATOM     21  N   UNL     1      -8.942 -10.083  17.626  0.00  0.00    -0.056 NA
ATOM     22  O   UNL     1      -8.262 -10.529  17.768  0.00  0.00    -0.336 OA
BRANCH  20  23
ATOM     23  C   UNL     1      -9.209  -8.731  17.113  0.00  0.00    +0.039 A 
ATOM     24  C   UNL     1      -9.681  -8.364  17.682  0.00  0.00    +0.004 A 
ATOM     25  C   UNL     1     -10.182  -7.746  17.465  0.00  0.00    +0.011 A 
ATOM     26  C   UNL     1     -10.213  -7.495  16.680  0.00  0.00    +0.058 A 
ATOM     27 CL   UNL     1     -10.714  -6.878  16.463  0.00  0.00    -0.082 Cl
ATOM     28  C   UNL     1      -9.741  -7.863  16.111  0.00  0.00    +0.011 A 
ATOM     29  C   UNL     1      -9.239  -8.481  16.328  0.00  0.00    +0.004 A 
ENDBRANCH  20  23
ENDBRANCH  14  18
BRANCH  12  11
ATOM      9  C   UNL     1      -4.445 -10.156  16.535  0.00  0.00    +0.265 C 
ATOM     10  O   UNL     1      -4.688  -9.379  16.664  0.00  0.00    -0.268 OA
ATOM     11  N   UNL     1      -4.885 -10.781  16.845  0.00  0.00    -0.202 NA
BRANCH   9   6
ATOM      3  C   UNL     1      -2.401 -10.614  15.217  0.00  0.00    +0.139 A 
ATOM      4  C   UNL     1      -2.358 -10.562  16.038  0.00  0.00    +0.037 A 
ATOM      5  C   UNL     1      -3.041 -10.410  16.478  0.00  0.00    +0.008 A 
ATOM      6  C   UNL     1      -3.764 -10.309  16.095  0.00  0.00    +0.055 A 
ATOM      7  C   UNL     1      -3.806 -10.360  15.274  0.00  0.00    +0.008 A 
ATOM      8  C   UNL     1      -3.124 -10.513  14.834  0.00  0.00    +0.037 A 
BRANCH   3   2
ATOM      1  C   UNL     1      -1.608 -10.398  14.049  0.00  0.00    +0.252 C 
ATOM      2  O   UNL     1      -1.719 -10.766  14.778  0.00  0.00    -0.471 OA
ENDBRANCH   3   2
ENDBRANCH   9   6
ENDBRANCH  12  11
TORSDOF 5
ENDMDL
MODEL 9
REMARK VINA RESULT:      -7.5     18.030     18.860
REMARK  Name = 
REMARK  5 active torsions:
REMARK  status: ('A' for Active; 'I' for Inactive)
REMARK    1  A    between atoms: O_2  and  C_3
REMARK    2  A    between atoms: C_6  and  C_9
REMARK    3  A    between atoms: N_11  and  C_12
REMARK    4  A    between atoms: C_14  and  C_18
REMARK    5  A    between atoms: C_20  and  C_23
REMARK                            x       y       z     vdW  Elec       q    Type
REMARK                         _______ _______ _______ _____ _____    ______ ____
ROOT
ATOM     12  C   UNL     1      -6.493  -9.393  10.015  0.00  0.00    +0.113 C 
ATOM     13  C   UNL     1      -6.772  -8.848   9.462  0.00  0.00    +0.049 C 
ATOM     14  C   UNL     1      -7.592  -8.801   9.543  0.00  0.00    +0.139 C 
ATOM     15  N   UNL     1      -7.819  -9.317  10.145  0.00  0.00    -0.264 NA
ATOM     16  C   UNL     1      -8.589  -9.446  10.410  0.00  0.00    +0.090 C 
ATOM     17  C   UNL     1      -7.138  -9.683  10.437  0.00  0.00    +0.094 C 
ENDROOT
BRANCH  14  18
ATOM     18  C   UNL     1      -8.096  -8.323   9.099  0.00  0.00    +0.251 A 
ATOM     19  N   UNL     1      -8.363  -7.571   9.311  0.00  0.00    -0.190 NA
ATOM     20  C   UNL     1      -8.855  -7.296   8.708  0.00  0.00    +0.203 A 
ATOM     21  N   UNL     1      -8.891  -7.876   8.124  0.00  0.00    -0.056 NA
ATOM     22  O   UNL     1      -8.423  -8.511   8.365  0.00  0.00    -0.336 OA
BRANCH  20  23
ATOM     23  C   UNL     1      -9.242  -6.567   8.693  0.00  0.00    +0.039 A 
ATOM     24  C   UNL     1      -8.824  -5.882   8.497  0.00  0.00    +0.004 A 
ATOM     25  C   UNL     1      -9.211  -5.154   8.482  0.00  0.00    +0.011 A 
ATOM     26  C   UNL     1     -10.015  -5.110   8.662  0.00  0.00    +0.058 A 
ATOM     27 CL   UNL     1     -10.402  -4.382   8.646  0.00  0.00    -0.082 Cl
ATOM     28  C   UNL     1     -10.432  -5.794   8.857  0.00  0.00    +0.011 A 
ATOM     29  C   UNL     1     -10.045  -6.523   8.873  0.00  0.00    +0.004 A 
ENDBRANCH  20  23
ENDBRANCH  14  18
BRANCH  12  11
ATOM      9  C   UNL     1      -5.215  -9.153  10.607  0.00  0.00    +0.265 C 
ATOM     10  O   UNL     1      -5.514  -8.480  10.978  0.00  0.00    -0.268 OA
ATOM     11  N   UNL     1      -5.705  -9.610  10.125  0.00  0.00    -0.202 NA
BRANCH   9   6
ATOM      3  C   UNL     1      -2.850  -9.803  10.939  0.00  0.00    +0.139 A 
ATOM      4  C   UNL     1      -3.440 -10.150  11.397  0.00  0.00    +0.037 A 
ATOM      5  C   UNL     1      -4.230  -9.933  11.287  0.00  0.00    +0.008 A 
ATOM      6  C   UNL     1      -4.426  -9.370  10.717  0.00  0.00    +0.055 A 
ATOM      7  C   UNL     1      -3.835  -9.024  10.259  0.00  0.00    +0.008 A 
ATOM      8  C   UNL     1      -3.046  -9.240  10.369  0.00  0.00    +0.037 A 
BRANCH   3   2
ATOM      1  C   UNL     1      -1.730 -10.000  11.804  0.00  0.00    +0.252 C 
ATOM      2  O   UNL     1      -2.061 -10.020  11.049  0.00  0.00    -0.471 OA
ENDBRANCH   3   2
ENDBRANCH   9   6
ENDBRANCH  12  11
TORSDOF 5
ENDMDL
MODEL 10
REMARK VINA RESULT:      -7.3     16.220     18.063
REMARK  Name = 
REMARK  5 active torsions:
REMARK  status: ('A' for Active; 'I' for Inactive)
REMARK    1  A    between atoms: O_2  and  C_3
REMARK    2  A    between atoms: C_6  and  C_9
REMARK    3  A    between atoms: N_11  and  C_12
REMARK    4  A    between atoms: C_14  and  C_18
REMARK    5  A    between atoms: C_20  and  C_23
REMARK                            x       y       z     vdW  Elec       q    Type
REMARK                         _______ _______ _______ _____ _____    ______ ____
ROOT
ATOM     12  C   UNL     1      -4.145  -9.424  10.376  0.00  0.00    +0.113 C 
ATOM     13  C   UNL     1      -3.963  -9.810  11.082  0.00  0.00    +0.049 C 
ATOM     14  C   UNL     1      -3.147  -9.762  11.194  0.00  0.00    +0.139 C 
ATOM     15  N   UNL     1      -2.826  -9.346  10.558  0.00  0.00    -0.264 NA
ATOM     16  C   UNL     1      -2.028  -9.170  10.446  0.00  0.00    +0.090 C 
ATOM     17  C   UNL     1      -3.444  -9.138  10.052  0.00  0.00    +0.094 C 
ENDROOT
BRANCH  14  18
ATOM     18  C   UNL     1      -2.726 -10.074  11.831  0.00  0.00    +0.251 A 
ATOM     19  N   UNL     1      -2.944 -10.028  12.626  0.00  0.00    -0.190 NA
ATOM     20  C   UNL     1      -2.365 -10.413  13.071  0.00  0.00    +0.203 A 
ATOM     21  N   UNL     1      -1.790 -10.696  12.553  0.00  0.00    -0.056 NA
ATOM     22  O   UNL     1      -2.013 -10.487  11.786  0.00  0.00    -0.336 OA
BRANCH  20  23
ATOM     23  C   UNL     1      -2.363 -10.499  13.892  0.00  0.00    +0.039 A 
ATOM     24  C   UNL     1      -1.662 -10.396  14.316  0.00  0.00    +0.004 A 
ATOM     25  C   UNL     1      -1.660 -10.482  15.135  0.00  0.00    +0.011 A 
ATOM     26  C   UNL     1      -2.358 -10.671  15.533  0.00  0.00    +0.058 A 
ATOM     27 CL   UNL     1      -2.355 -10.757  16.353  0.00  0.00    -0.082 Cl
ATOM     28  C   UNL     1      -3.058 -10.774  15.110  0.00  0.00    +0.011 A 
ATOM     29  C   UNL     1      -3.061 -10.688  14.289  0.00  0.00    +0.004 A 
ENDBRANCH  20  23
ENDBRANCH  14  18
BRANCH  12  11
ATOM      9  C   UNL     1      -5.315  -8.635  10.149  0.00  0.00    +0.265 C 
ATOM     10  O   UNL     1      -4.976  -8.013  10.573  0.00  0.00    -0.268 OA
ATOM     11  N   UNL     1      -4.899  -9.340  10.051  0.00  0.00    -0.202 NA
BRANCH   9   6
ATOM      3  C   UNL     1      -7.576  -8.383   9.174  0.00  0.00    +0.139 A 
ATOM      4  C   UNL     1      -6.924  -8.051   8.794  0.00  0.00    +0.037 A 
ATOM      5  C   UNL     1      -6.169  -8.136   9.119  0.00  0.00    +0.008 A 
ATOM      6  C   UNL     1      -6.068  -8.551   9.824  0.00  0.00    +0.055 A 
ATOM      7  C   UNL     1      -6.720  -8.882  10.205  0.00  0.00    +0.008 A 
ATOM      8  C   UNL     1      -7.475  -8.798   9.879  0.00  0.00    +0.037 A 
BRANCH   3   2
ATOM      1  C   UNL     1      -8.532  -8.712   8.166  0.00  0.00    +0.252 C 
ATOM      2  O   UNL     1      -8.329  -8.299   8.849  0.00  0.00    -0.471 OA
ENDBRANCH   3   2
ENDBRANCH   9   6
ENDBRANCH  12  11
TORSDOF 5
ENDMDL
