MODEL 1
REMARK VINA RESULT:     -14.2      0.000      0.000
REMARK  Name = 
REMARK  4 active torsions:
REMARK  status: ('A' for Active; 'I' for Inactive)
REMARK    1  A    between atoms: C_2  and  O_5
REMARK    2  A    between atoms: O_5  and  C_6
REMARK    3  A    between atoms: C_9  and  C_12
REMARK    4  A    between atoms: C_20  and  C_22
REMARK                            x       y       z     vdW  Elec       q    Type
REMARK                         _______ _______ _______ _____ _____    ______ ____
ROOT
ATOM     12  C   UNL     1      -3.483   0.853  24.530  0.00  0.00    +0.012 A 
ATOM     13  C   UNL     1      -2.739   1.114  24.774  0.00  0.00    +0.041 A 
ATOM     14  C   UNL     1      -1.932   0.791  25.072  0.00  0.00    +0.058 C 
ATOM     15  C   UNL     1      -1.601   0.190  25.220  0.00  0.00    +0.011 C 
ATOM     16  C   UNL     1      -1.436   0.988  25.233  0.00  0.00    +0.043 C 
ATOM     17  C   UNL     1      -1.052   1.894  25.316  0.00  0.00    +0.096 C 
ATOM     18  N   UNL     1      -1.706   2.348  25.064  0.00  0.00    -0.274 N 
ATOM     19  C   UNL     1      -1.546   1.660  25.158  0.00  0.00    +0.100 C 
ATOM     20  C   UNL     1      -2.152   3.015  24.872  0.00  0.00    +0.268 C 
ATOM     21  O   UNL     1      -2.929   2.930  24.607  0.00  0.00    -0.268 OA
ATOM     28  C   UNL     1      -2.276   1.335  24.922  0.00  0.00    +0.110 C 
ATOM     29  N   UNL     1      -2.569   1.921  24.788  0.00  0.00    -0.299 N 
ATOM     30  C   UNL     1      -3.143   2.468  24.559  0.00  0.00    +0.261 A 
ATOM     31  O   UNL     1      -3.216   3.286  24.488  0.00  0.00    -0.267 OA
ATOM     32  C   UNL     1      -3.886   2.207  24.315  0.00  0.00    +0.061 A 
ATOM     33  C   UNL     1      -4.056   1.400  24.301  0.00  0.00    +0.006 A 
ENDROOT
BRANCH  12   9
ATOM      6  C   UNL     1      -3.993  -1.569  24.487  0.00  0.00    +0.147 A 
ATOM      7  C   UNL     1      -3.746  -1.187  23.799  0.00  0.00    +0.037 A 
ATOM      8  C   UNL     1      -3.576  -0.380  23.813  0.00  0.00    +0.003 A 
ATOM      9  C   UNL     1      -3.653   0.046  24.516  0.00  0.00    +0.001 A 
ATOM     10  C   UNL     1      -3.900  -0.336  25.204  0.00  0.00    +0.003 A 
ATOM     11  C   UNL     1      -4.070  -1.143  25.190  0.00  0.00    +0.037 A 
BRANCH   6   5
ATOM      5  O   UNL     1      -4.163  -2.375  24.473  0.00  0.00    -0.404 OA
BRANCH   5   2
ATOM      1  F   UNL     1      -2.955  -3.478  24.693  0.00  0.00    -0.133 F 
ATOM      2  C   UNL     1      -3.559  -2.927  24.582  0.00  0.00    +0.575 C 
ATOM      3  F   UNL     1      -3.674  -2.889  25.399  0.00  0.00    -0.133 F 
ATOM      4  F   UNL     1      -3.444  -2.964  23.767  0.00  0.00    -0.133 F 
ENDBRANCH   5   2
ENDBRANCH   6   5
ENDBRANCH  12   9
BRANCH  20  22
ATOM     22  C   UNL     1      -1.821   3.767  24.945  0.00  0.00    +0.154 A 
ATOM     23  C   UNL     1      -2.106   4.290  25.517  0.00  0.00    +0.123 A 
ATOM     24  N   UNL     1      -1.774   5.042  25.590  0.00  0.00    -0.239 NA
ATOM     25  C   UNL     1      -1.158   5.271  25.091  0.00  0.00    +0.120 A 
ATOM     26  C   UNL     1      -0.873   4.749  24.520  0.00  0.00    +0.120 A 
ATOM     27  N   UNL     1      -1.205   3.997  24.447  0.00  0.00    -0.236 NA
ENDBRANCH  20  22
TORSDOF 4
ENDMDL
MODEL 2
REMARK VINA RESULT:     -13.9      2.993      5.164
REMARK  Name = 
REMARK  4 active torsions:
REMARK  status: ('A' for Active; 'I' for Inactive)
REMARK    1  A    between atoms: C_2  and  O_5
REMARK    2  A    between atoms: O_5  and  C_6
REMARK    3  A    between atoms: C_9  and  C_12
REMARK    4  A    between atoms: C_20  and  C_22
REMARK                            x       y       z     vdW  Elec       q    Type
REMARK                         _______ _______ _______ _____ _____    ______ ____
ROOT
ATOM     12  C   UNL     1      -3.286   2.109  25.020  0.00  0.00    +0.012 A 
ATOM     13  C   UNL     1      -2.810   1.450  24.880  0.00  0.00    +0.041 A 
ATOM     14  C   UNL     1      -1.926   1.217  24.780  0.00  0.00    +0.058 C 
ATOM     15  C   UNL     1      -1.281   1.493  24.780  0.00  0.00    +0.011 C 
ATOM     16  C   UNL     1      -1.622   0.759  24.685  0.00  0.00    +0.043 C 
ATOM     17  C   UNL     1      -1.842  -0.194  24.545  0.00  0.00    +0.096 C 
ATOM     18  N   UNL     1      -2.674  -0.157  24.609  0.00  0.00    -0.274 N 
ATOM     19  C   UNL     1      -2.122   0.293  24.644  0.00  0.00    +0.100 C 
ATOM     20  C   UNL     1      -3.457  -0.416  24.622  0.00  0.00    +0.268 C 
ATOM     21  O   UNL     1      -4.069   0.123  24.752  0.00  0.00    -0.268 OA
ATOM     28  C   UNL     1      -2.548   0.994  24.787  0.00  0.00    +0.110 C 
ATOM     29  N   UNL     1      -3.152   0.706  24.783  0.00  0.00    -0.299 N 
ATOM     30  C   UNL     1      -3.971   0.620  24.826  0.00  0.00    +0.261 A 
ATOM     31  O   UNL     1      -4.528   0.014  24.766  0.00  0.00    -0.267 OA
ATOM     32  C   UNL     1      -4.448   1.278  24.966  0.00  0.00    +0.061 A 
ATOM     33  C   UNL     1      -4.106   2.023  25.063  0.00  0.00    +0.006 A 
ENDROOT
BRANCH  12   9
ATOM      6  C   UNL     1      -2.259   4.342  25.311  0.00  0.00    +0.147 A 
ATOM      7  C   UNL     1      -2.358   3.846  25.962  0.00  0.00    +0.037 A 
ATOM      8  C   UNL     1      -2.701   3.101  25.865  0.00  0.00    +0.003 A 
ATOM      9  C   UNL     1      -2.944   2.853  25.117  0.00  0.00    +0.001 A 
ATOM     10  C   UNL     1      -2.844   3.349  24.466  0.00  0.00    +0.003 A 
ATOM     11  C   UNL     1      -2.501   4.094  24.563  0.00  0.00    +0.037 A 
BRANCH   6   5
ATOM      5  O   UNL     1      -1.916   5.085  25.408  0.00  0.00    -0.404 OA
BRANCH   5   2
ATOM      1  F   UNL     1      -0.483   5.438  24.670  0.00  0.00    -0.133 F 
ATOM      2  C   UNL     1      -1.199   5.262  25.039  0.00  0.00    +0.575 C 
ATOM      3  F   UNL     1      -1.592   5.774  24.524  0.00  0.00    -0.133 F 
ATOM      4  F   UNL     1      -0.808   4.750  25.554  0.00  0.00    -0.133 F 
ENDBRANCH   5   2
ENDBRANCH   6   5
ENDBRANCH  12   9
BRANCH  20  22
ATOM     22  C   UNL     1      -3.629  -1.214  24.504  0.00  0.00    +0.154 A 
ATOM     23  C   UNL     1      -3.966  -1.464  23.794  0.00  0.00    +0.123 A 
ATOM     24  N   UNL     1      -4.138  -2.262  23.676  0.00  0.00    -0.239 NA
ATOM     25  C   UNL     1      -3.972  -2.811  24.270  0.00  0.00    +0.120 A 
ATOM     26  C   UNL     1      -3.635  -2.562  24.979  0.00  0.00    +0.120 A 
ATOM     27  N   UNL     1      -3.463  -1.764  25.097  0.00  0.00    -0.236 NA
ENDBRANCH  20  22
TORSDOF 4
ENDMDL
MODEL 3
REMARK VINA RESULT:     -11.4      2.749      3.697
REMARK  Name = 
REMARK  4 active torsions:
REMARK  status: ('A' for Active; 'I' for Inactive)
REMARK    1  A    between atoms: C_2  and  O_5
REMARK    2  A    between atoms: O_5  and  C_6
REMARK    3  A    between atoms: C_9  and  C_12
REMARK    4  A    between atoms: C_20  and  C_22
REMARK                            x       y       z     vdW  Elec       q    Type
REMARK                         _______ _______ _______ _____ _____    ______ ____
ROOT
ATOM     12  C   UNL     1      -3.062   1.972  24.192  0.00  0.00    +0.012 A 
ATOM     13  C   UNL     1      -2.590   1.354  24.468  0.00  0.00    +0.041 A 
ATOM     14  C   UNL     1      -2.592   0.679  25.092  0.00  0.00    +0.058 C 
ATOM     15  C   UNL     1      -2.989   0.399  25.598  0.00  0.00    +0.011 C 
ATOM     16  C   UNL     1      -2.258   0.267  25.264  0.00  0.00    +0.043 C 
ATOM     17  C   UNL     1      -1.361  -0.047  24.994  0.00  0.00    +0.096 C 
ATOM     18  N   UNL     1      -1.197   0.502  24.386  0.00  0.00    -0.274 N 
ATOM     19  C   UNL     1      -1.726   0.364  24.843  0.00  0.00    +0.100 C 
ATOM     20  C   UNL     1      -0.782   0.878  23.780  0.00  0.00    +0.268 C 
ATOM     21  O   UNL     1      -1.116   1.525  23.391  0.00  0.00    -0.268 OA
ATOM     28  C   UNL     1      -2.247   0.969  24.609  0.00  0.00    +0.110 C 
ATOM     29  N   UNL     1      -1.849   1.218  24.132  0.00  0.00    -0.299 N 
ATOM     30  C   UNL     1      -1.580   1.700  23.519  0.00  0.00    +0.261 A 
ATOM     31  O   UNL     1      -0.911   1.766  23.040  0.00  0.00    -0.267 OA
ATOM     32  C   UNL     1      -2.051   2.318  23.242  0.00  0.00    +0.061 A 
ATOM     33  C   UNL     1      -2.792   2.454  23.579  0.00  0.00    +0.006 A 
ENDROOT
BRANCH  12   9
ATOM      6  C   UNL     1      -5.285   2.380  25.201  0.00  0.00    +0.147 A 
ATOM      7  C   UNL     1      -5.200   1.818  24.603  0.00  0.00    +0.037 A 
ATOM      8  C   UNL     1      -4.459   1.682  24.267  0.00  0.00    +0.003 A 
ATOM      9  C   UNL     1      -3.803   2.108  24.528  0.00  0.00    +0.001 A 
ATOM     10  C   UNL     1      -3.887   2.669  25.126  0.00  0.00    +0.003 A 
ATOM     11  C   UNL     1      -4.628   2.805  25.463  0.00  0.00    +0.037 A 
BRANCH   6   5
ATOM      5  O   UNL     1      -6.025   2.516  25.538  0.00  0.00    -0.404 OA
BRANCH   5   2
ATOM      1  F   UNL     1      -6.555   1.567  26.779  0.00  0.00    -0.133 F 
ATOM      2  C   UNL     1      -6.290   2.041  26.158  0.00  0.00    +0.575 C 
ATOM      3  F   UNL     1      -5.925   2.546  26.699  0.00  0.00    -0.133 F 
ATOM      4  F   UNL     1      -6.655   1.536  25.617  0.00  0.00    -0.133 F 
ENDBRANCH   5   2
ENDBRANCH   6   5
ENDBRANCH  12   9
BRANCH  20  22
ATOM     22  C   UNL     1      -0.034   0.608  23.563  0.00  0.00    +0.154 A 
ATOM     23  C   UNL     1       0.640   1.006  23.821  0.00  0.00    +0.123 A 
ATOM     24  N   UNL     1       1.389   0.736  23.604  0.00  0.00    -0.239 NA
ATOM     25  C   UNL     1       1.463   0.066  23.128  0.00  0.00    +0.120 A 
ATOM     26  C   UNL     1       0.789  -0.334  22.870  0.00  0.00    +0.120 A 
ATOM     27  N   UNL     1       0.040  -0.063  23.087  0.00  0.00    -0.236 NA
ENDBRANCH  20  22
TORSDOF 4
ENDMDL
