MODEL 1
REMARK VINA RESULT:     -10.1      0.000      0.000
REMARK  Name = 
REMARK  3 active torsions:
REMARK  status: ('A' for Active; 'I' for Inactive)
REMARK    1  A    between atoms: C_2  and  N_4
REMARK    2  A    between atoms: N_13  and  C_14
REMARK    3  A    between atoms: C_14  and  C_15
REMARK                            x       y       z     vdW  Elec       q    Type
REMARK                         _______ _______ _______ _____ _____    ______ ____
ROOT
ATOM      4  N   UNL     1      -4.062  -1.447  24.643  0.00  0.00    -0.190 NA
ATOM      5  C   UNL     1      -3.554  -0.816  24.490  0.00  0.00    +0.323 C 
ATOM      6  O   UNL     1      -2.780  -0.960  24.242  0.00  0.00    -0.251 OA
ATOM      7  N   UNL     1      -3.819  -0.040  24.585  0.00  0.00    -0.259 N 
ATOM      8  C   UNL     1      -4.593   0.104  24.833  0.00  0.00    +0.117 C 
ATOM      9  C   UNL     1      -4.858   0.879  24.927  0.00  0.00    +0.117 C 
ATOM     10  N   UNL     1      -4.350   1.511  24.774  0.00  0.00    -0.261 N 
ATOM     11  C   UNL     1      -3.576   1.367  24.526  0.00  0.00    +0.117 C 
ATOM     12  C   UNL     1      -3.204   2.095  24.418  0.00  0.00    +0.117 C 
ATOM     13  N   UNL     1      -3.747   2.689  24.598  0.00  0.00    -0.257 N 
ATOM     21  C   UNL     1      -4.454   2.328  24.819  0.00  0.00    +0.308 C 
ATOM     22  O   UNL     1      -5.147   2.716  25.044  0.00  0.00    -0.252 OA
ATOM     23  C   UNL     1      -3.311   0.591  24.432  0.00  0.00    +0.117 C 
ENDROOT
BRANCH   4   2
ATOM      1  C   UNL     1      -3.973  -2.636  23.857  0.00  0.00    +0.023 C 
ATOM      2  C   UNL     1      -3.797  -2.223  24.548  0.00  0.00    +0.097 C 
ATOM      3  C   UNL     1      -3.356  -2.584  25.145  0.00  0.00    +0.023 C 
ENDBRANCH   4   2
BRANCH  13  14
ATOM     14  C   UNL     1      -3.606   3.501  24.565  0.00  0.00    +0.141 C 
BRANCH  14  15
ATOM     15  C   UNL     1      -2.907   3.812  24.873  0.00  0.00    +0.079 A 
ATOM     16  N   UNL     1      -2.226   3.837  24.409  0.00  0.00    -0.246 NA
ATOM     17  C   UNL     1      -1.527   4.149  24.718  0.00  0.00    +0.099 A 
ATOM     18  C   UNL     1      -1.510   4.436  25.491  0.00  0.00    +0.021 A 
ATOM     19  C   UNL     1      -2.192   4.411  25.955  0.00  0.00    +0.003 A 
ATOM     20  C   UNL     1      -2.890   4.100  25.647  0.00  0.00    +0.016 A 
ENDBRANCH  14  15
ENDBRANCH  13  14
TORSDOF 3
ENDMDL
MODEL 2
REMARK VINA RESULT:     -10.0      1.121      4.760
REMARK  Name = 
REMARK  3 active torsions:
REMARK  status: ('A' for Active; 'I' for Inactive)
REMARK    1  A    between atoms: C_2  and  N_4
REMARK    2  A    between atoms: N_13  and  C_14
REMARK    3  A    between atoms: C_14  and  C_15
REMARK                            x       y       z     vdW  Elec       q    Type
REMARK                         _______ _______ _______ _____ _____    ______ ____
ROOT
ATOM      4  N   UNL     1      -2.002   4.089  25.132  0.00  0.00    -0.190 NA
ATOM      5  C   UNL     1      -1.971   3.316  24.845  0.00  0.00    +0.323 C 
ATOM      6  O   UNL     1      -1.273   3.026  24.515  0.00  0.00    -0.251 OA
ATOM      7  N   UNL     1      -2.639   2.833  24.890  0.00  0.00    -0.259 N 
ATOM      8  C   UNL     1      -3.337   3.123  25.220  0.00  0.00    +0.117 C 
ATOM      9  C   UNL     1      -4.004   2.640  25.265  0.00  0.00    +0.117 C 
ATOM     10  N   UNL     1      -3.974   1.867  24.978  0.00  0.00    -0.261 N 
ATOM     11  C   UNL     1      -3.276   1.577  24.648  0.00  0.00    +0.117 C 
ATOM     12  C   UNL     1      -3.410   0.798  24.412  0.00  0.00    +0.117 C 
ATOM     13  N   UNL     1      -4.190   0.606  24.598  0.00  0.00    -0.257 N 
ATOM     21  C   UNL     1      -4.538   1.267  24.947  0.00  0.00    +0.308 C 
ATOM     22  O   UNL     1      -5.316   1.319  25.219  0.00  0.00    -0.252 OA
ATOM     23  C   UNL     1      -2.608   2.060  24.603  0.00  0.00    +0.117 C 
ENDROOT
BRANCH   4   2
ATOM      1  C   UNL     1      -1.421   5.385  24.982  0.00  0.00    +0.023 C 
ATOM      2  C   UNL     1      -1.334   4.572  25.088  0.00  0.00    +0.097 C 
ATOM      3  C   UNL     1      -0.581   4.241  25.149  0.00  0.00    +0.023 C 
ENDBRANCH   4   2
BRANCH  13  14
ATOM     14  C   UNL     1      -4.558  -0.119  24.458  0.00  0.00    +0.141 C 
BRANCH  14  15
ATOM     15  C   UNL     1      -4.155  -0.823  24.609  0.00  0.00    +0.079 A 
ATOM     16  N   UNL     1      -3.915  -1.004  25.377  0.00  0.00    -0.246 NA
ATOM     17  C   UNL     1      -3.511  -1.708  25.527  0.00  0.00    +0.099 A 
ATOM     18  C   UNL     1      -3.348  -2.230  24.910  0.00  0.00    +0.021 A 
ATOM     19  C   UNL     1      -3.589  -2.049  24.142  0.00  0.00    +0.003 A 
ATOM     20  C   UNL     1      -3.992  -1.345  23.991  0.00  0.00    +0.016 A 
ENDBRANCH  14  15
ENDBRANCH  13  14
TORSDOF 3
ENDMDL
MODEL 3
REMARK VINA RESULT:      -9.8      1.797      2.504
REMARK  Name = 
REMARK  3 active torsions:
REMARK  status: ('A' for Active; 'I' for Inactive)
REMARK    1  A    between atoms: C_2  and  N_4
REMARK    2  A    between atoms: N_13  and  C_14
REMARK    3  A    between atoms: C_14  and  C_15
REMARK                            x       y       z     vdW  Elec       q    Type
REMARK                         _______ _______ _______ _____ _____    ______ ____
ROOT
ATOM      4  N   UNL     1      -2.852  -1.426  24.393  0.00  0.00    -0.190 NA
ATOM      5  C   UNL     1      -2.907  -0.704  24.789  0.00  0.00    +0.323 C 
ATOM      6  O   UNL     1      -3.602  -0.504  25.187  0.00  0.00    -0.251 OA
ATOM      7  N   UNL     1      -2.267  -0.183  24.787  0.00  0.00    -0.259 N 
ATOM      8  C   UNL     1      -1.573  -0.383  24.389  0.00  0.00    +0.117 C 
ATOM      9  C   UNL     1      -0.934   0.138  24.387  0.00  0.00    +0.117 C 
ATOM     10  N   UNL     1      -0.988   0.860  24.783  0.00  0.00    -0.261 N 
ATOM     11  C   UNL     1      -1.682   1.060  25.181  0.00  0.00    +0.117 C 
ATOM     12  C   UNL     1      -1.576   1.804  25.521  0.00  0.00    +0.117 C 
ATOM     13  N   UNL     1      -0.816   2.064  25.332  0.00  0.00    -0.257 N 
ATOM     21  C   UNL     1      -0.453   1.480  24.877  0.00  0.00    +0.308 C 
ATOM     22  O   UNL     1       0.311   1.511  24.568  0.00  0.00    -0.252 OA
ATOM     23  C   UNL     1      -2.322   0.538  25.183  0.00  0.00    +0.117 C 
ENDROOT
BRANCH   4   2
ATOM      1  C   UNL     1      -3.494  -2.595  24.906  0.00  0.00    +0.023 C 
ATOM      2  C   UNL     1      -3.492  -1.947  24.395  0.00  0.00    +0.097 C 
ATOM      3  C   UNL     1      -4.130  -1.820  23.887  0.00  0.00    +0.023 C 
ENDBRANCH   4   2
BRANCH  13  14
ATOM     14  C   UNL     1      -0.478   2.781  25.560  0.00  0.00    +0.141 C 
BRANCH  14  15
ATOM     15  C   UNL     1      -0.888   3.487  25.439  0.00  0.00    +0.079 A 
ATOM     16  N   UNL     1      -1.557   3.659  25.891  0.00  0.00    -0.246 NA
ATOM     17  C   UNL     1      -1.966   4.365  25.769  0.00  0.00    +0.099 A 
ATOM     18  C   UNL     1      -1.706   4.899  25.197  0.00  0.00    +0.021 A 
ATOM     19  C   UNL     1      -1.037   4.728  24.746  0.00  0.00    +0.003 A 
ATOM     20  C   UNL     1      -0.627   4.022  24.867  0.00  0.00    +0.016 A 
ENDBRANCH  14  15
ENDBRANCH  13  14
TORSDOF 3
ENDMDL
MODEL 4
REMARK VINA RESULT:      -9.5      1.714      5.257
REMARK  Name = 
REMARK  3 active torsions:
REMARK  status: ('A' for Active; 'I' for Inactive)
REMARK    1  A    between atoms: C_2  and  N_4
REMARK    2  A    between atoms: N_13  and  C_14
REMARK    3  A    between atoms: C_14  and  C_15
REMARK                            x       y       z     vdW  Elec       q    Type
REMARK                         _______ _______ _______ _____ _____    ______ ____
ROOT
ATOM      4  N   UNL     1      -1.482   3.478  25.489  0.00  0.00    -0.190 NA
ATOM      5  C   UNL     1      -1.904   2.903  25.075  0.00  0.00    +0.323 C 
ATOM      6  O   UNL     1      -2.557   3.118  24.619  0.00  0.00    -0.251 OA
ATOM      7  N   UNL     1      -1.671   2.112  25.117  0.00  0.00    -0.259 N 
ATOM      8  C   UNL     1      -1.018   1.897  25.573  0.00  0.00    +0.117 C 
ATOM      9  C   UNL     1      -0.787   1.107  25.614  0.00  0.00    +0.117 C 
ATOM     10  N   UNL     1      -1.208   0.530  25.201  0.00  0.00    -0.261 N 
ATOM     11  C   UNL     1      -1.861   0.745  24.745  0.00  0.00    +0.117 C 
ATOM     12  C   UNL     1      -2.167   0.062  24.400  0.00  0.00    +0.117 C 
ATOM     13  N   UNL     1      -1.703  -0.576  24.642  0.00  0.00    -0.257 N 
ATOM     21  C   UNL     1      -1.111  -0.286  25.137  0.00  0.00    +0.308 C 
ATOM     22  O   UNL     1      -0.523  -0.734  25.504  0.00  0.00    -0.252 OA
ATOM     23  C   UNL     1      -2.093   1.536  24.703  0.00  0.00    +0.117 C 
ENDROOT
BRANCH   4   2
ATOM      1  C   UNL     1      -2.406   4.516  25.823  0.00  0.00    +0.023 C 
ATOM      2  C   UNL     1      -1.714   4.270  25.447  0.00  0.00    +0.097 C 
ATOM      3  C   UNL     1      -1.254   4.813  25.029  0.00  0.00    +0.023 C 
ENDBRANCH   4   2
BRANCH  13  14
ATOM     14  C   UNL     1      -1.813  -1.365  24.427  0.00  0.00    +0.141 C 
BRANCH  14  15
ATOM     15  C   UNL     1      -2.565  -1.702  24.462  0.00  0.00    +0.079 A 
ATOM     16  N   UNL     1      -3.112  -1.555  23.863  0.00  0.00    -0.246 NA
ATOM     17  C   UNL     1      -3.864  -1.893  23.899  0.00  0.00    +0.099 A 
ATOM     18  C   UNL     1      -4.069  -2.377  24.534  0.00  0.00    +0.021 A 
ATOM     19  C   UNL     1      -3.522  -2.524  25.134  0.00  0.00    +0.003 A 
ATOM     20  C   UNL     1      -2.770  -2.187  25.099  0.00  0.00    +0.016 A 
ENDBRANCH  14  15
ENDBRANCH  13  14
TORSDOF 3
ENDMDL
