MODEL 1
REMARK VINA RESULT:      -8.7      0.000      0.000
REMARK  Name = 
REMARK  6 active torsions:
REMARK  status: ('A' for Active; 'I' for Inactive)
REMARK    1  A    between atoms: C_6  and  C_7
REMARK    2  A    between atoms: C_7  and  N_8
REMARK    3  A    between atoms: N_8  and  C_9
REMARK    4  A    between atoms: C_12  and  C_13
REMARK    5  A    between atoms: C_13  and  N_14
REMARK    6  A    between atoms: N_17  and  C_18
REMARK                            x       y       z     vdW  Elec       q    Type
REMARK                         _______ _______ _______ _____ _____    ______ ____
ROOT
ATOM      9  C   UNL     1      -4.298   0.260  24.584  0.00  0.00    +0.136 C 
ATOM     10  C   UNL     1      -4.688   0.543  25.253  0.00  0.00    +0.162 C 
ATOM     11  O   UNL     1      -4.529   1.350  25.319  0.00  0.00    -0.350 OA
ATOM     12  C   UNL     1      -4.041   1.566  24.690  0.00  0.00    +0.169 C 
ATOM     24  C   UNL     1      -3.897   0.892  24.235  0.00  0.00    +0.199 C 
ATOM     25  O   UNL     1      -3.435   0.858  23.553  0.00  0.00    -0.219 OA
ENDROOT
BRANCH   9   8
ATOM      8  N   UNL     1      -4.305  -0.518  24.309  0.00  0.00    -0.206 NA
BRANCH   8   7
ATOM      7  C   UNL     1      -4.004  -1.124  24.782  0.00  0.00    +0.152 C 
BRANCH   7   6
ATOM      1  C   UNL     1      -2.992  -2.446  25.454  0.00  0.00    +0.132 C 
ATOM      2  N   UNL     1      -3.479  -2.498  24.791  0.00  0.00    -0.311 N 
ATOM      3  C   UNL     1      -3.588  -3.166  24.320  0.00  0.00    +0.098 A 
ATOM      4  C   UNL     1      -4.119  -2.973  23.720  0.00  0.00    +0.119 A 
ATOM      5  N   UNL     1      -4.340  -2.184  23.819  0.00  0.00    -0.228 NA
ATOM      6  C   UNL     1      -3.945  -1.891  24.481  0.00  0.00    +0.138 A 
ENDBRANCH   7   6
ENDBRANCH   8   7
ENDBRANCH   9   8
BRANCH  12  13
ATOM     13  C   UNL     1      -3.747   2.323  24.542  0.00  0.00    +0.149 C 
BRANCH  13  14
ATOM     14  N   UNL     1      -3.312   2.717  25.122  0.00  0.00    -0.184 NA
ATOM     15  C   UNL     1      -2.782   3.311  24.907  0.00  0.00    +0.344 C 
ATOM     16  O   UNL     1      -2.686   3.510  24.113  0.00  0.00    -0.249 OA
ATOM     17  N   UNL     1      -2.347   3.705  25.487  0.00  0.00    -0.161 NA
BRANCH  17  18
ATOM     18  C   UNL     1      -1.817   4.299  25.272  0.00  0.00    +0.075 A 
ATOM     19  C   UNL     1      -1.050   4.102  25.037  0.00  0.00    +0.017 A 
ATOM     20  C   UNL     1      -0.520   4.695  24.821  0.00  0.00    +0.001 A 
ATOM     21  C   UNL     1      -0.754   5.485  24.840  0.00  0.00    +0.000 A 
ATOM     22  C   UNL     1      -1.520   5.683  25.075  0.00  0.00    +0.001 A 
ATOM     23  C   UNL     1      -2.051   5.089  25.290  0.00  0.00    +0.017 A 
ENDBRANCH  17  18
ENDBRANCH  13  14
ENDBRANCH  12  13
TORSDOF 6
ENDMDL
MODEL 2
REMARK VINA RESULT:      -8.5      1.846      6.238
REMARK  Name = 
REMARK  6 active torsions:
REMARK  status: ('A' for Active; 'I' for Inactive)
REMARK    1  A    between atoms: C_6  and  C_7
REMARK    2  A    between atoms: C_7  and  N_8
REMARK    3  A    between atoms: N_8  and  C_9
REMARK    4  A    between atoms: C_12  and  C_13
REMARK    5  A    between atoms: C_13  and  N_14
REMARK    6  A    between atoms: N_17  and  C_18
REMARK                            x       y       z     vdW  Elec       q    Type
REMARK                         _______ _______ _______ _____ _____    ______ ____
ROOT
ATOM      9  C   UNL     1      -0.701   2.168  25.312  0.00  0.00    +0.136 C 
ATOM     10  C   UNL     1      -0.478   1.834  26.032  0.00  0.00    +0.162 C 
ATOM     11  O   UNL     1      -0.641   1.026  25.999  0.00  0.00    -0.350 OA
ATOM     12  C   UNL     1      -0.964   0.860  25.259  0.00  0.00    +0.169 C 
ATOM     24  C   UNL     1      -1.002   1.567  24.833  0.00  0.00    +0.199 C 
ATOM     25  O   UNL     1      -1.290   1.655  24.065  0.00  0.00    -0.219 OA
ENDROOT
BRANCH   9   8
ATOM      8  N   UNL     1      -0.636   2.964  25.105  0.00  0.00    -0.206 NA
BRANCH   8   7
ATOM      7  C   UNL     1      -1.047   3.536  25.535  0.00  0.00    +0.152 C 
BRANCH   7   6
ATOM      1  C   UNL     1      -2.445   4.651  25.702  0.00  0.00    +0.132 C 
ATOM      2  N   UNL     1      -1.727   4.825  25.336  0.00  0.00    -0.311 N 
ATOM      3  C   UNL     1      -1.525   5.542  24.981  0.00  0.00    +0.098 A 
ATOM      4  C   UNL     1      -0.758   5.473  24.686  0.00  0.00    +0.119 A 
ATOM      5  N   UNL     1      -0.485   4.714  24.857  0.00  0.00    -0.228 NA
ATOM      6  C   UNL     1      -1.084   4.313  25.259  0.00  0.00    +0.138 A 
ENDBRANCH   7   6
ENDBRANCH   8   7
ENDBRANCH   9   8
BRANCH  12  13
ATOM     13  C   UNL     1      -1.208   0.119  24.990  0.00  0.00    +0.149 C 
BRANCH  13  14
ATOM     14  N   UNL     1      -1.878  -0.237  25.314  0.00  0.00    -0.184 NA
ATOM     15  C   UNL     1      -2.269  -0.832  24.898  0.00  0.00    +0.344 C 
ATOM     16  O   UNL     1      -1.991  -1.071  24.160  0.00  0.00    -0.249 OA
ATOM     17  N   UNL     1      -2.940  -1.188  25.222  0.00  0.00    -0.161 NA
BRANCH  17  18
ATOM     18  C   UNL     1      -3.332  -1.783  24.806  0.00  0.00    +0.075 A 
ATOM     19  C   UNL     1      -3.921  -1.587  24.262  0.00  0.00    +0.017 A 
ATOM     20  C   UNL     1      -4.313  -2.182  23.846  0.00  0.00    +0.001 A 
ATOM     21  C   UNL     1      -4.116  -2.972  23.973  0.00  0.00    +0.000 A 
ATOM     22  C   UNL     1      -3.527  -3.169  24.516  0.00  0.00    +0.001 A 
ATOM     23  C   UNL     1      -3.135  -2.573  24.932  0.00  0.00    +0.017 A 
ENDBRANCH  17  18
ENDBRANCH  13  14
ENDBRANCH  12  13
TORSDOF 6
ENDMDL
MODEL 3
REMARK VINA RESULT:      -8.2      0.856      5.883
REMARK  Name = 
REMARK  6 active torsions:
REMARK  status: ('A' for Active; 'I' for Inactive)
REMARK    1  A    between atoms: C_6  and  C_7
REMARK    2  A    between atoms: C_7  and  N_8
REMARK    3  A    between atoms: N_8  and  C_9
REMARK    4  A    between atoms: C_12  and  C_13
REMARK    5  A    between atoms: C_13  and  N_14
REMARK    6  A    between atoms: N_17  and  C_18
REMARK                            x       y       z     vdW  Elec       q    Type
REMARK                         _______ _______ _______ _____ _____    ______ ____
ROOT
ATOM      9  C   UNL     1      -3.397   3.159  24.884  0.00  0.00    +0.136 C 
ATOM     10  C   UNL     1      -3.911   3.003  25.510  0.00  0.00    +0.162 C 
ATOM     11  O   UNL     1      -4.275   2.277  25.366  0.00  0.00    -0.350 OA
ATOM     12  C   UNL     1      -3.987   1.984  24.651  0.00  0.00    +0.169 C 
ATOM     24  C   UNL     1      -3.444   2.529  24.352  0.00  0.00    +0.199 C 
ATOM     25  O   UNL     1      -3.022   2.456  23.647  0.00  0.00    -0.219 OA
ENDROOT
BRANCH   9   8
ATOM      8  N   UNL     1      -2.920   3.826  24.802  0.00  0.00    -0.206 NA
BRANCH   8   7
ATOM      7  C   UNL     1      -2.282   3.942  25.313  0.00  0.00    +0.152 C 
BRANCH   7   6
ATOM      1  C   UNL     1      -0.496   3.754  25.322  0.00  0.00    +0.132 C 
ATOM      2  N   UNL     1      -0.910   4.449  25.162  0.00  0.00    -0.311 N 
ATOM      3  C   UNL     1      -0.576   5.181  24.978  0.00  0.00    +0.098 A 
ATOM      4  C   UNL     1      -1.190   5.719  24.860  0.00  0.00    +0.119 A 
ATOM      5  N   UNL     1      -1.904   5.321  24.971  0.00  0.00    -0.228 NA
ATOM      6  C   UNL     1      -1.731   4.536  25.158  0.00  0.00    +0.138 A 
ENDBRANCH   7   6
ENDBRANCH   8   7
ENDBRANCH   9   8
BRANCH  12  13
ATOM     13  C   UNL     1      -4.204   1.271  24.296  0.00  0.00    +0.149 C 
BRANCH  13  14
ATOM     14  N   UNL     1      -4.340   0.604  24.761  0.00  0.00    -0.184 NA
ATOM     15  C   UNL     1      -4.106  -0.140  24.492  0.00  0.00    +0.344 C 
ATOM     16  O   UNL     1      -3.738  -0.217  23.760  0.00  0.00    -0.249 OA
ATOM     17  N   UNL     1      -4.243  -0.808  24.958  0.00  0.00    -0.161 NA
BRANCH  17  18
ATOM     18  C   UNL     1      -4.009  -1.552  24.689  0.00  0.00    +0.075 A 
ATOM     19  C   UNL     1      -3.393  -1.953  25.067  0.00  0.00    +0.017 A 
ATOM     20  C   UNL     1      -3.160  -2.697  24.798  0.00  0.00    +0.001 A 
ATOM     21  C   UNL     1      -3.541  -3.040  24.153  0.00  0.00    +0.000 A 
ATOM     22  C   UNL     1      -4.156  -2.641  23.775  0.00  0.00    +0.001 A 
ATOM     23  C   UNL     1      -4.390  -1.896  24.044  0.00  0.00    +0.017 A 
ENDBRANCH  17  18
ENDBRANCH  13  14
ENDBRANCH  12  13
TORSDOF 6
ENDMDL
MODEL 4
REMARK VINA RESULT:      -8.0      3.814      5.140
REMARK  Name = 
REMARK  6 active torsions:
REMARK  status: ('A' for Active; 'I' for Inactive)
REMARK    1  A    between atoms: C_6  and  C_7
REMARK    2  A    between atoms: C_7  and  N_8
REMARK    3  A    between atoms: N_8  and  C_9
REMARK    4  A    between atoms: C_12  and  C_13
REMARK    5  A    between atoms: C_13  and  N_14
REMARK    6  A    between atoms: N_17  and  C_18
REMARK                            x       y       z     vdW  Elec       q    Type
REMARK                         _______ _______ _______ _____ _____    ______ ____
ROOT
ATOM      9  C   UNL     1       0.261   0.832  23.883  0.00  0.00    +0.136 C 
ATOM     10  C   UNL     1      -0.172   0.131  23.866  0.00  0.00    +0.162 C 
ATOM     11  O   UNL     1      -0.927   0.290  24.158  0.00  0.00    -0.350 OA
ATOM     12  C   UNL     1      -0.961   1.090  24.355  0.00  0.00    +0.169 C 
ATOM     24  C   UNL     1      -0.226   1.426  24.185  0.00  0.00    +0.199 C 
ATOM     25  O   UNL     1      -0.017   2.216  24.298  0.00  0.00    -0.219 OA
ENDROOT
BRANCH   9   8
ATOM      8  N   UNL     1       1.044   0.926  23.640  0.00  0.00    -0.206 NA
BRANCH   8   7
ATOM      7  C   UNL     1       1.388   0.370  23.136  0.00  0.00    +0.152 C 
BRANCH   7   6
ATOM      1  C   UNL     1       2.132  -0.357  21.672  0.00  0.00    +0.132 C 
ATOM      2  N   UNL     1       2.513   0.128  22.221  0.00  0.00    -0.311 N 
ATOM      3  C   UNL     1       3.303   0.364  22.193  0.00  0.00    +0.098 A 
ATOM      4  C   UNL     1       3.449   0.844  22.848  0.00  0.00    +0.119 A 
ATOM      5  N   UNL     1       2.751   0.905  23.281  0.00  0.00    -0.228 NA
ATOM      6  C   UNL     1       2.172   0.463  22.893  0.00  0.00    +0.138 A 
ENDBRANCH   7   6
ENDBRANCH   8   7
ENDBRANCH   9   8
BRANCH  12  13
ATOM     13  C   UNL     1      -1.614   1.485  24.668  0.00  0.00    +0.149 C 
BRANCH  13  14
ATOM     14  N   UNL     1      -2.362   1.369  24.340  0.00  0.00    -0.184 NA
ATOM     15  C   UNL     1      -3.027   1.693  24.705  0.00  0.00    +0.344 C 
ATOM     16  O   UNL     1      -2.944   2.133  25.397  0.00  0.00    -0.249 OA
ATOM     17  N   UNL     1      -3.775   1.576  24.377  0.00  0.00    -0.161 NA
BRANCH  17  18
ATOM     18  C   UNL     1      -4.440   1.901  24.742  0.00  0.00    +0.075 A 
ATOM     19  C   UNL     1      -4.939   1.421  25.192  0.00  0.00    +0.017 A 
ATOM     20  C   UNL     1      -5.603   1.745  25.557  0.00  0.00    +0.001 A 
ATOM     21  C   UNL     1      -5.770   2.548  25.473  0.00  0.00    +0.000 A 
ATOM     22  C   UNL     1      -5.272   3.028  25.024  0.00  0.00    +0.001 A 
ATOM     23  C   UNL     1      -4.607   2.703  24.658  0.00  0.00    +0.017 A 
ENDBRANCH  17  18
ENDBRANCH  13  14
ENDBRANCH  12  13
TORSDOF 6
ENDMDL
MODEL 5
REMARK VINA RESULT:      -7.7      1.727      2.114
REMARK  Name = 
REMARK  6 active torsions:
REMARK  status: ('A' for Active; 'I' for Inactive)
REMARK    1  A    between atoms: C_6  and  C_7
REMARK    2  A    between atoms: C_7  and  N_8
REMARK    3  A    between atoms: N_8  and  C_9
REMARK    4  A    between atoms: C_12  and  C_13
REMARK    5  A    between atoms: C_13  and  N_14
REMARK    6  A    between atoms: N_17  and  C_18
REMARK                            x       y       z     vdW  Elec       q    Type
REMARK                         _______ _______ _______ _____ _____    ______ ____
ROOT
ATOM      9  C   UNL     1      -1.584  -0.605  25.045  0.00  0.00    +0.136 C 
ATOM     10  C   UNL     1      -1.383  -0.489  25.837  0.00  0.00    +0.162 C 
ATOM     11  O   UNL     1      -1.011   0.245  25.901  0.00  0.00    -0.350 OA
ATOM     12  C   UNL     1      -0.983   0.583  25.150  0.00  0.00    +0.169 C 
ATOM     24  C   UNL     1      -1.337   0.059  24.620  0.00  0.00    +0.199 C 
ATOM     25  O   UNL     1      -1.428   0.177  23.808  0.00  0.00    -0.219 OA
ENDROOT
BRANCH   9   8
ATOM      8  N   UNL     1      -1.965  -1.266  24.732  0.00  0.00    -0.206 NA
BRANCH   8   7
ATOM      7  C   UNL     1      -2.765  -1.392  24.889  0.00  0.00    +0.152 C 
BRANCH   7   6
ATOM      1  C   UNL     1      -4.380  -1.424  24.104  0.00  0.00    +0.132 C 
ATOM      2  N   UNL     1      -3.886  -2.074  24.226  0.00  0.00    -0.311 N 
ATOM      3  C   UNL     1      -4.048  -2.854  24.008  0.00  0.00    +0.098 A 
ATOM      4  C   UNL     1      -3.407  -3.320  24.234  0.00  0.00    +0.119 A 
ATOM      5  N   UNL     1      -2.848  -2.830  24.591  0.00  0.00    -0.228 NA
ATOM      6  C   UNL     1      -3.144  -2.060  24.586  0.00  0.00    +0.138 A 
ENDBRANCH   7   6
ENDBRANCH   8   7
ENDBRANCH   9   8
BRANCH  12  13
ATOM     13  C   UNL     1      -0.658   1.318  24.960  0.00  0.00    +0.149 C 
BRANCH  13  14
ATOM     14  N   UNL     1      -0.739   1.951  25.483  0.00  0.00    -0.184 NA
ATOM     15  C   UNL     1      -0.884   2.709  25.192  0.00  0.00    +0.344 C 
ATOM     16  O   UNL     1      -0.949   2.834  24.381  0.00  0.00    -0.249 OA
ATOM     17  N   UNL     1      -0.964   3.343  25.716  0.00  0.00    -0.161 NA
BRANCH  17  18
ATOM     18  C   UNL     1      -1.110   4.101  25.425  0.00  0.00    +0.075 A 
ATOM     19  C   UNL     1      -1.848   4.452  25.540  0.00  0.00    +0.017 A 
ATOM     20  C   UNL     1      -1.993   5.210  25.249  0.00  0.00    +0.001 A 
ATOM     21  C   UNL     1      -1.402   5.617  24.844  0.00  0.00    +0.000 A 
ATOM     22  C   UNL     1      -0.664   5.267  24.728  0.00  0.00    +0.001 A 
ATOM     23  C   UNL     1      -0.518   4.508  25.019  0.00  0.00    +0.017 A 
ENDBRANCH  17  18
ENDBRANCH  13  14
ENDBRANCH  12  13
TORSDOF 6
ENDMDL
MODEL 6
REMARK VINA RESULT:      -7.5      4.454      5.857
REMARK  Name = 
REMARK  6 active torsions:
REMARK  status: ('A' for Active; 'I' for Inactive)
REMARK    1  A    between atoms: C_6  and  C_7
REMARK    2  A    between atoms: C_7  and  N_8
REMARK    3  A    between atoms: N_8  and  C_9
REMARK    4  A    between atoms: C_12  and  C_13
REMARK    5  A    between atoms: C_13  and  N_14
REMARK    6  A    between atoms: N_17  and  C_18
REMARK                            x       y       z     vdW  Elec       q    Type
REMARK                         _______ _______ _______ _____ _____    ______ ____
ROOT
ATOM      9  C   UNL     1       1.211   0.593  23.280  0.00  0.00    +0.136 C 
ATOM     10  C   UNL     1       0.790  -0.016  22.915  0.00  0.00    +0.162 C 
ATOM     11  O   UNL     1       0.011   0.015  23.186  0.00  0.00    -0.350 OA
ATOM     12  C   UNL     1      -0.050   0.641  23.718  0.00  0.00    +0.169 C 
ATOM     24  C   UNL     1       0.692   0.999  23.777  0.00  0.00    +0.199 C 
ATOM     25  O   UNL     1       0.880   1.649  24.249  0.00  0.00    -0.219 OA
ENDROOT
BRANCH   9   8
ATOM      8  N   UNL     1       2.009   0.765  23.170  0.00  0.00    -0.206 NA
BRANCH   8   7
ATOM      7  C   UNL     1       2.548   0.154  23.037  0.00  0.00    +0.152 C 
BRANCH   7   6
ATOM      1  C   UNL     1       3.884  -0.966  23.467  0.00  0.00    +0.132 C 
ATOM      2  N   UNL     1       3.969  -0.196  23.184  0.00  0.00    -0.311 N 
ATOM      3  C   UNL     1       4.683   0.195  23.048  0.00  0.00    +0.098 A 
ATOM      4  C   UNL     1       4.510   0.951  22.767  0.00  0.00    +0.119 A 
ATOM      5  N   UNL     1       3.690   1.028  22.728  0.00  0.00    -0.228 NA
ATOM      6  C   UNL     1       3.355   0.320  22.986  0.00  0.00    +0.138 A 
ENDBRANCH   7   6
ENDBRANCH   8   7
ENDBRANCH   9   8
BRANCH  12  13
ATOM     13  C   UNL     1      -0.733   0.871  24.121  0.00  0.00    +0.149 C 
BRANCH  13  14
ATOM     14  N   UNL     1      -1.474   0.641  23.840  0.00  0.00    -0.184 NA
ATOM     15  C   UNL     1      -2.157   0.906  24.218  0.00  0.00    +0.344 C 
ATOM     16  O   UNL     1      -2.100   1.400  24.875  0.00  0.00    -0.249 OA
ATOM     17  N   UNL     1      -2.899   0.676  23.938  0.00  0.00    -0.161 NA
BRANCH  17  18
ATOM     18  C   UNL     1      -3.582   0.942  24.316  0.00  0.00    +0.075 A 
ATOM     19  C   UNL     1      -3.975   0.449  24.850  0.00  0.00    +0.017 A 
ATOM     20  C   UNL     1      -4.659   0.715  25.228  0.00  0.00    +0.001 A 
ATOM     21  C   UNL     1      -4.949   1.470  25.073  0.00  0.00    +0.000 A 
ATOM     22  C   UNL     1      -4.557   1.962  24.540  0.00  0.00    +0.001 A 
ATOM     23  C   UNL     1      -3.873   1.697  24.161  0.00  0.00    +0.017 A 
ENDBRANCH  17  18
ENDBRANCH  13  14
ENDBRANCH  12  13
TORSDOF 6
ENDMDL
MODEL 7
REMARK VINA RESULT:      -6.9      4.149      5.087
REMARK  Name = 
REMARK  6 active torsions:
REMARK  status: ('A' for Active; 'I' for Inactive)
REMARK    1  A    between atoms: C_6  and  C_7
REMARK    2  A    between atoms: C_7  and  N_8
REMARK    3  A    between atoms: N_8  and  C_9
REMARK    4  A    between atoms: C_12  and  C_13
REMARK    5  A    between atoms: C_13  and  N_14
REMARK    6  A    between atoms: N_17  and  C_18
REMARK                            x       y       z     vdW  Elec       q    Type
REMARK                         _______ _______ _______ _____ _____    ______ ____
ROOT
ATOM      9  C   UNL     1      -1.715   1.191  24.030  0.00  0.00    +0.136 C 
ATOM     10  C   UNL     1      -1.578   0.379  23.975  0.00  0.00    +0.162 C 
ATOM     11  O   UNL     1      -0.768   0.263  23.871  0.00  0.00    -0.350 OA
ATOM     12  C   UNL     1      -0.404   1.003  23.862  0.00  0.00    +0.169 C 
ATOM     24  C   UNL     1      -0.988   1.577  23.960  0.00  0.00    +0.199 C 
ATOM     25  O   UNL     1      -0.867   2.393  23.985  0.00  0.00    -0.219 OA
ENDROOT
BRANCH   9   8
ATOM      8  N   UNL     1      -2.447   1.555  24.136  0.00  0.00    -0.206 NA
BRANCH   8   7
ATOM      7  C   UNL     1      -3.083   1.120  24.434  0.00  0.00    +0.152 C 
BRANCH   7   6
ATOM      1  C   UNL     1      -4.527   0.376  25.200  0.00  0.00    +0.132 C 
ATOM      2  N   UNL     1      -4.480   1.141  24.894  0.00  0.00    -0.311 N 
ATOM      3  C   UNL     1      -5.088   1.698  24.886  0.00  0.00    +0.098 A 
ATOM      4  C   UNL     1      -4.801   2.384  24.529  0.00  0.00    +0.119 A 
ATOM      5  N   UNL     1      -4.015   2.252  24.317  0.00  0.00    -0.228 NA
ATOM      6  C   UNL     1      -3.817   1.484  24.542  0.00  0.00    +0.138 A 
ENDBRANCH   7   6
ENDBRANCH   8   7
ENDBRANCH   9   8
BRANCH  12  13
ATOM     13  C   UNL     1       0.405   1.144  23.771  0.00  0.00    +0.149 C 
BRANCH  13  14
ATOM     14  N   UNL     1       0.865   0.628  23.321  0.00  0.00    -0.184 NA
ATOM     15  C   UNL     1       1.687   0.697  23.329  0.00  0.00    +0.344 C 
ATOM     16  O   UNL     1       2.048   1.280  23.786  0.00  0.00    -0.249 OA
ATOM     17  N   UNL     1       2.148   0.180  22.879  0.00  0.00    -0.161 NA
BRANCH  17  18
ATOM     18  C   UNL     1       2.970   0.249  22.887  0.00  0.00    +0.075 A 
ATOM     19  C   UNL     1       3.426  -0.316  23.280  0.00  0.00    +0.017 A 
ATOM     20  C   UNL     1       4.248  -0.248  23.288  0.00  0.00    +0.001 A 
ATOM     21  C   UNL     1       4.614   0.383  22.904  0.00  0.00    +0.000 A 
ATOM     22  C   UNL     1       4.158   0.948  22.512  0.00  0.00    +0.001 A 
ATOM     23  C   UNL     1       3.335   0.880  22.503  0.00  0.00    +0.017 A 
ENDBRANCH  17  18
ENDBRANCH  13  14
ENDBRANCH  12  13
TORSDOF 6
ENDMDL
MODEL 8
REMARK VINA RESULT:      -6.2      4.751      5.418
REMARK  Name = 
REMARK  6 active torsions:
REMARK  status: ('A' for Active; 'I' for Inactive)
REMARK    1  A    between atoms: C_6  and  C_7
REMARK    2  A    between atoms: C_7  and  N_8
REMARK    3  A    between atoms: N_8  and  C_9
REMARK    4  A    between atoms: C_12  and  C_13
REMARK    5  A    between atoms: C_13  and  N_14
REMARK    6  A    between atoms: N_17  and  C_18
REMARK                            x       y       z     vdW  Elec       q    Type
REMARK                         _______ _______ _______ _____ _____    ______ ____
ROOT
ATOM      9  C   UNL     1      -0.836   0.248  24.103  0.00  0.00    +0.136 C 
ATOM     10  C   UNL     1      -0.676   1.037  23.925  0.00  0.00    +0.162 C 
ATOM     11  O   UNL     1       0.066   1.071  23.565  0.00  0.00    -0.350 OA
ATOM     12  C   UNL     1       0.364   0.304  23.521  0.00  0.00    +0.169 C 
ATOM     24  C   UNL     1      -0.193  -0.206  23.854  0.00  0.00    +0.199 C 
ATOM     25  O   UNL     1      -0.119  -1.025  23.924  0.00  0.00    -0.219 OA
ENDROOT
BRANCH   9   8
ATOM      8  N   UNL     1      -1.518  -0.040  24.467  0.00  0.00    -0.206 NA
BRANCH   8   7
ATOM      7  C   UNL     1      -2.209   0.412  24.462  0.00  0.00    +0.152 C 
BRANCH   7   6
ATOM      1  C   UNL     1      -3.859   1.089  24.253  0.00  0.00    +0.132 C 
ATOM      2  N   UNL     1      -3.661   0.421  24.695  0.00  0.00    -0.311 N 
ATOM      3  C   UNL     1      -4.186  -0.053  25.118  0.00  0.00    +0.098 A 
ATOM      4  C   UNL     1      -3.753  -0.657  25.475  0.00  0.00    +0.119 A 
ATOM      5  N   UNL     1      -2.960  -0.557  25.274  0.00  0.00    -0.228 NA
ATOM      6  C   UNL     1      -2.903   0.110  24.791  0.00  0.00    +0.138 A 
ENDBRANCH   7   6
ENDBRANCH   8   7
ENDBRANCH   9   8
BRANCH  12  13
ATOM     13  C   UNL     1       1.093   0.084  23.201  0.00  0.00    +0.149 C 
BRANCH  13  14
ATOM     14  N   UNL     1       1.711   0.630  23.170  0.00  0.00    -0.184 NA
ATOM     15  C   UNL     1       2.491   0.365  23.127  0.00  0.00    +0.344 C 
ATOM     16  O   UNL     1       2.653  -0.443  23.113  0.00  0.00    -0.249 OA
ATOM     17  N   UNL     1       3.110   0.911  23.097  0.00  0.00    -0.161 NA
BRANCH  17  18
ATOM     18  C   UNL     1       3.890   0.646  23.053  0.00  0.00    +0.075 A 
ATOM     19  C   UNL     1       4.341   0.576  23.741  0.00  0.00    +0.017 A 
ATOM     20  C   UNL     1       5.121   0.312  23.698  0.00  0.00    +0.001 A 
ATOM     21  C   UNL     1       5.450   0.118  22.968  0.00  0.00    +0.000 A 
ATOM     22  C   UNL     1       5.001   0.188  22.280  0.00  0.00    +0.001 A 
ATOM     23  C   UNL     1       4.220   0.452  22.323  0.00  0.00    +0.017 A 
ENDBRANCH  17  18
ENDBRANCH  13  14
ENDBRANCH  12  13
TORSDOF 6
ENDMDL
MODEL 9
REMARK VINA RESULT:      -6.1     14.358     16.581
REMARK  Name = 
REMARK  6 active torsions:
REMARK  status: ('A' for Active; 'I' for Inactive)
REMARK    1  A    between atoms: C_6  and  C_7
REMARK    2  A    between atoms: C_7  and  N_8
REMARK    3  A    between atoms: N_8  and  C_9
REMARK    4  A    between atoms: C_12  and  C_13
REMARK    5  A    between atoms: C_13  and  N_14
REMARK    6  A    between atoms: N_17  and  C_18
REMARK                            x       y       z     vdW  Elec       q    Type
REMARK                         _______ _______ _______ _____ _____    ______ ____
ROOT
ATOM      9  C   UNL     1      -5.254  -9.863  12.291  0.00  0.00    +0.136 C 
ATOM     10  C   UNL     1      -4.640 -10.198  12.729  0.00  0.00    +0.162 C 
ATOM     11  O   UNL     1      -4.921 -10.345  13.491  0.00  0.00    -0.350 OA
ATOM     12  C   UNL     1      -5.708 -10.102  13.524  0.00  0.00    +0.169 C 
ATOM     24  C   UNL     1      -5.915  -9.804  12.783  0.00  0.00    +0.199 C 
ATOM     25  O   UNL     1      -6.652  -9.501  12.570  0.00  0.00    -0.219 OA
ENDROOT
BRANCH   9   8
ATOM      8  N   UNL     1      -5.216  -9.629  11.502  0.00  0.00    -0.206 NA
BRANCH   8   7
ATOM      7  C   UNL     1      -4.483  -9.558  11.128  0.00  0.00    +0.152 C 
BRANCH   7   6
ATOM      1  C   UNL     1      -2.985  -9.204  10.204  0.00  0.00    +0.132 C 
ATOM      2  N   UNL     1      -3.755  -9.170   9.911  0.00  0.00    -0.311 N 
ATOM      3  C   UNL     1      -3.973  -8.968   9.141  0.00  0.00    +0.098 A 
ATOM      4  C   UNL     1      -4.795  -9.006   9.090  0.00  0.00    +0.119 A 
ATOM      5  N   UNL     1      -5.087  -9.231   9.828  0.00  0.00    -0.228 NA
ATOM      6  C   UNL     1      -4.444  -9.333  10.335  0.00  0.00    +0.138 A 
ENDBRANCH   7   6
ENDBRANCH   8   7
ENDBRANCH   9   8
BRANCH  12  13
ATOM     13  C   UNL     1      -6.203 -10.148  14.183  0.00  0.00    +0.149 C 
BRANCH  13  14
ATOM     14  N   UNL     1      -5.945  -9.862  14.913  0.00  0.00    -0.184 NA
ATOM     15  C   UNL     1      -6.382 -10.021  15.594  0.00  0.00    +0.344 C 
ATOM     16  O   UNL     1      -7.074 -10.465  15.547  0.00  0.00    -0.249 OA
ATOM     17  N   UNL     1      -6.124  -9.734  16.325  0.00  0.00    -0.161 NA
BRANCH  17  18
ATOM     18  C   UNL     1      -6.560  -9.893  17.006  0.00  0.00    +0.075 A 
ATOM     19  C   UNL     1      -6.328 -10.504  17.511  0.00  0.00    +0.017 A 
ATOM     20  C   UNL     1      -6.764 -10.662  18.193  0.00  0.00    +0.001 A 
ATOM     21  C   UNL     1      -7.431 -10.212  18.370  0.00  0.00    +0.000 A 
ATOM     22  C   UNL     1      -7.664  -9.602  17.866  0.00  0.00    +0.001 A 
ATOM     23  C   UNL     1      -7.227  -9.443  17.184  0.00  0.00    +0.017 A 
ENDBRANCH  17  18
ENDBRANCH  13  14
ENDBRANCH  12  13
TORSDOF 6
ENDMDL
MODEL 10
REMARK VINA RESULT:      -5.9     14.427     16.105
REMARK  Name = 
REMARK  6 active torsions:
REMARK  status: ('A' for Active; 'I' for Inactive)
REMARK    1  A    between atoms: C_6  and  C_7
REMARK    2  A    between atoms: C_7  and  N_8
REMARK    3  A    between atoms: N_8  and  C_9
REMARK    4  A    between atoms: C_12  and  C_13
REMARK    5  A    between atoms: C_13  and  N_14
REMARK    6  A    between atoms: N_17  and  C_18
REMARK                            x       y       z     vdW  Elec       q    Type
REMARK                         _______ _______ _______ _____ _____    ______ ____
ROOT
ATOM      9  C   UNL     1      -5.200 -10.346  13.773  0.00  0.00    +0.136 C 
ATOM     10  C   UNL     1      -5.893 -10.348  13.326  0.00  0.00    +0.162 C 
ATOM     11  O   UNL     1      -6.526 -10.210  13.837  0.00  0.00    -0.350 OA
ATOM     12  C   UNL     1      -6.225 -10.123  14.600  0.00  0.00    +0.169 C 
ATOM     24  C   UNL     1      -5.404 -10.207  14.561  0.00  0.00    +0.199 C 
ATOM     25  O   UNL     1      -4.882 -10.161  15.198  0.00  0.00    -0.219 OA
ENDROOT
BRANCH   9   8
ATOM      8  N   UNL     1      -4.436 -10.463  13.486  0.00  0.00    -0.206 NA
BRANCH   8   7
ATOM      7  C   UNL     1      -4.279 -10.364  12.681  0.00  0.00    +0.152 C 
BRANCH   7   6
ATOM      1  C   UNL     1      -3.707  -9.954  11.029  0.00  0.00    +0.132 C 
ATOM      2  N   UNL     1      -3.250 -10.278  11.635  0.00  0.00    -0.311 N 
ATOM      3  C   UNL     1      -2.449 -10.471  11.588  0.00  0.00    +0.098 A 
ATOM      4  C   UNL     1      -2.217 -10.778  12.317  0.00  0.00    +0.119 A 
ATOM      5  N   UNL     1      -2.874 -10.775  12.816  0.00  0.00    -0.228 NA
ATOM      6  C   UNL     1      -3.512 -10.466  12.394  0.00  0.00    +0.138 A 
ENDBRANCH   7   6
ENDBRANCH   8   7
ENDBRANCH   9   8
BRANCH  12  13
ATOM     13  C   UNL     1      -6.666  -9.977  15.282  0.00  0.00    +0.149 C 
BRANCH  13  14
ATOM     14  N   UNL     1      -7.486  -9.910  15.236  0.00  0.00    -0.184 NA
ATOM     15  C   UNL     1      -7.909  -9.589  15.867  0.00  0.00    +0.344 C 
ATOM     16  O   UNL     1      -7.513  -9.336  16.543  0.00  0.00    -0.249 OA
ATOM     17  N   UNL     1      -8.731  -9.522  15.821  0.00  0.00    -0.161 NA
BRANCH  17  18
ATOM     18  C   UNL     1      -9.154  -9.201  16.452  0.00  0.00    +0.075 A 
ATOM     19  C   UNL     1      -9.291  -8.387  16.485  0.00  0.00    +0.017 A 
ATOM     20  C   UNL     1      -9.713  -8.066  17.116  0.00  0.00    +0.001 A 
ATOM     21  C   UNL     1     -10.000  -8.557  17.713  0.00  0.00    +0.000 A 
ATOM     22  C   UNL     1      -9.864  -9.370  17.681  0.00  0.00    +0.001 A 
ATOM     23  C   UNL     1      -9.440  -9.692  17.049  0.00  0.00    +0.017 A 
ENDBRANCH  17  18
ENDBRANCH  13  14
ENDBRANCH  12  13
TORSDOF 6
ENDMDL
