MODEL 1
REMARK VINA RESULT:      -9.2      0.000      0.000
REMARK  Name = 
REMARK  7 active torsions:
REMARK  status: ('A' for Active; 'I' for Inactive)
REMARK    1  A    between atoms: N_2  and  C_3
REMARK    2  A    between atoms: C_3  and  C_4
REMARK    3  A    between atoms: C_3  and  C_7
REMARK    4  A    between atoms: N_9  and  C_10
REMARK    5  A    between atoms: C_12  and  C_18
REMARK    6  A    between atoms: N_20  and  C_21
REMARK    7  A    between atoms: C_21  and  C_22
REMARK                            x       y       z     vdW  Elec       q    Type
REMARK                         _______ _______ _______ _____ _____    ______ ____
ROOT
ATOM     10  C   UNL     1      -4.631   1.547  24.982  0.00  0.00    +0.150 C 
ATOM     11  C   UNL     1      -4.056   2.048  24.669  0.00  0.00    -0.002 C 
ATOM     12  C   UNL     1      -4.082   2.858  24.830  0.00  0.00    +0.033 C 
ATOM     13  C   UNL     1      -4.683   3.165  25.303  0.00  0.00    +0.066 C 
ATOM     14  C   UNL     1      -5.259   2.663  25.616  0.00  0.00    +0.189 C 
ATOM     15  O   UNL     1      -5.861   2.970  26.090  0.00  0.00    -0.220 OA
ATOM     16  C   UNL     1      -5.232   1.854  25.455  0.00  0.00    +0.206 C 
ATOM     17  O   UNL     1      -5.808   1.352  25.769  0.00  0.00    -0.218 OA
ENDROOT
BRANCH  10   9
ATOM      7  C   UNL     1      -3.918   0.309  24.978  0.00  0.00    +0.258 C 
ATOM      8  O   UNL     1      -3.258   0.688  25.295  0.00  0.00    -0.272 OA
ATOM      9  N   UNL     1      -4.605   0.738  24.822  0.00  0.00    -0.199 NA
BRANCH   7   3
ATOM      3  C   UNL     1      -3.891  -0.500  24.818  0.00  0.00    +0.150 C 
BRANCH   3   4
ATOM      4  C   UNL     1      -3.351  -0.982  25.213  0.00  0.00    +0.025 C 
ATOM      5  C   UNL     1      -2.599  -1.104  24.896  0.00  0.00    +0.002 C 
ATOM      6  C   UNL     1      -3.563  -1.341  25.925  0.00  0.00    +0.002 C 
ENDBRANCH   3   4
BRANCH   3   2
ATOM      1  C   UNL     1      -4.204  -1.528  23.876  0.00  0.00    +0.108 C 
ATOM      2  N   UNL     1      -4.406  -0.827  24.262  0.00  0.00    -0.209 NA
ENDBRANCH   3   2
ENDBRANCH   7   3
ENDBRANCH  10   9
BRANCH  12  18
ATOM     18  C   UNL     1      -3.507   3.359  24.517  0.00  0.00    +0.261 C 
ATOM     19  O   UNL     1      -3.559   3.608  23.732  0.00  0.00    -0.269 OA
ATOM     20  N   UNL     1      -2.879   3.610  24.989  0.00  0.00    -0.192 NA
BRANCH  20  21
ATOM     21  C   UNL     1      -2.303   4.112  24.676  0.00  0.00    +0.203 C 
BRANCH  21  22
ATOM     22  C   UNL     1      -1.684   4.378  25.153  0.00  0.00    +0.283 C 
ATOM     23  N   UNL     1      -1.056   3.875  25.333  0.00  0.00    -0.086 NA
ATOM     24  O   UNL     1      -1.695   5.147  25.450  0.00  0.00    -0.270 OA
ENDBRANCH  21  22
ENDBRANCH  20  21
ENDBRANCH  12  18
TORSDOF 7
ENDMDL
MODEL 2
REMARK VINA RESULT:      -8.9      1.502      4.309
REMARK  Name = 
REMARK  7 active torsions:
REMARK  status: ('A' for Active; 'I' for Inactive)
REMARK    1  A    between atoms: N_2  and  C_3
REMARK    2  A    between atoms: C_3  and  C_4
REMARK    3  A    between atoms: C_3  and  C_7
REMARK    4  A    between atoms: N_9  and  C_10
REMARK    5  A    between atoms: C_12  and  C_18
REMARK    6  A    between atoms: N_20  and  C_21
REMARK    7  A    between atoms: C_21  and  C_22
REMARK                            x       y       z     vdW  Elec       q    Type
REMARK                         _______ _______ _______ _____ _____    ______ ____
ROOT
ATOM     10  C   UNL     1      -3.410   1.799  24.511  0.00  0.00    +0.150 C 
ATOM     11  C   UNL     1      -3.359   1.006  24.729  0.00  0.00    -0.002 C 
ATOM     12  C   UNL     1      -4.046   0.580  24.900  0.00  0.00    +0.033 C 
ATOM     13  C   UNL     1      -4.781   0.949  24.854  0.00  0.00    +0.066 C 
ATOM     14  C   UNL     1      -4.831   1.744  24.636  0.00  0.00    +0.189 C 
ATOM     15  O   UNL     1      -5.568   2.113  24.589  0.00  0.00    -0.220 OA
ATOM     16  C   UNL     1      -4.145   2.168  24.465  0.00  0.00    +0.206 C 
ATOM     17  O   UNL     1      -4.195   2.963  24.247  0.00  0.00    -0.218 OA
ENDROOT
BRANCH  10   9
ATOM      7  C   UNL     1      -2.133   2.302  24.911  0.00  0.00    +0.258 C 
ATOM      8  O   UNL     1      -2.229   1.955  25.653  0.00  0.00    -0.272 OA
ATOM      9  N   UNL     1      -2.723   2.225  24.340  0.00  0.00    -0.199 NA
BRANCH   7   3
ATOM      3  C   UNL     1      -1.446   2.727  24.740  0.00  0.00    +0.150 C 
BRANCH   3   4
ATOM      4  C   UNL     1      -1.164   3.288  25.275  0.00  0.00    +0.025 C 
ATOM      5  C   UNL     1      -1.254   4.091  25.115  0.00  0.00    +0.002 C 
ATOM      6  C   UNL     1      -0.791   3.043  25.970  0.00  0.00    +0.002 C 
ENDBRANCH   3   4
BRANCH   3   2
ATOM      1  C   UNL     1      -0.263   2.319  24.050  0.00  0.00    +0.108 C 
ATOM      2  N   UNL     1      -1.043   2.590  24.033  0.00  0.00    -0.209 NA
ENDBRANCH   3   2
ENDBRANCH   7   3
ENDBRANCH  10   9
BRANCH  12  18
ATOM     18  C   UNL     1      -3.995  -0.214  25.118  0.00  0.00    +0.261 C 
ATOM     19  O   UNL     1      -4.027  -0.426  25.914  0.00  0.00    -0.269 OA
ATOM     20  N   UNL     1      -3.912  -0.794  24.538  0.00  0.00    -0.192 NA
BRANCH  20  21
ATOM     21  C   UNL     1      -3.861  -1.589  24.756  0.00  0.00    +0.203 C 
BRANCH  21  22
ATOM     22  C   UNL     1      -3.798  -2.173  24.175  0.00  0.00    +0.283 C 
ATOM     23  N   UNL     1      -3.127  -2.651  24.142  0.00  0.00    -0.086 NA
ATOM     24  O   UNL     1      -4.406  -2.277  23.628  0.00  0.00    -0.270 OA
ENDBRANCH  21  22
ENDBRANCH  20  21
ENDBRANCH  12  18
TORSDOF 7
ENDMDL
MODEL 3
REMARK VINA RESULT:      -8.6      1.660      2.901
REMARK  Name = 
REMARK  7 active torsions:
REMARK  status: ('A' for Active; 'I' for Inactive)
REMARK    1  A    between atoms: N_2  and  C_3
REMARK    2  A    between atoms: C_3  and  C_4
REMARK    3  A    between atoms: C_3  and  C_7
REMARK    4  A    between atoms: N_9  and  C_10
REMARK    5  A    between atoms: C_12  and  C_18
REMARK    6  A    between atoms: N_20  and  C_21
REMARK    7  A    between atoms: C_21  and  C_22
REMARK                            x       y       z     vdW  Elec       q    Type
REMARK                         _______ _______ _______ _____ _____    ______ ____
ROOT
ATOM     10  C   UNL     1      -2.225   0.655  24.698  0.00  0.00    +0.150 C 
ATOM     11  C   UNL     1      -2.894   1.102  24.515  0.00  0.00    -0.002 C 
ATOM     12  C   UNL     1      -2.928   1.899  24.727  0.00  0.00    +0.033 C 
ATOM     13  C   UNL     1      -2.293   2.248  25.121  0.00  0.00    +0.066 C 
ATOM     14  C   UNL     1      -1.624   1.800  25.304  0.00  0.00    +0.189 C 
ATOM     15  O   UNL     1      -0.989   2.150  25.698  0.00  0.00    -0.220 OA
ATOM     16  C   UNL     1      -1.590   1.004  25.091  0.00  0.00    +0.206 C 
ATOM     17  O   UNL     1      -0.921   0.557  25.274  0.00  0.00    -0.218 OA
ENDROOT
BRANCH  10   9
ATOM      7  C   UNL     1      -2.710  -0.682  24.830  0.00  0.00    +0.258 C 
ATOM      8  O   UNL     1      -3.262  -0.427  25.385  0.00  0.00    -0.272 OA
ATOM      9  N   UNL     1      -2.191  -0.142  24.485  0.00  0.00    -0.199 NA
BRANCH   7   3
ATOM      3  C   UNL     1      -2.676  -1.480  24.617  0.00  0.00    +0.150 C 
BRANCH   3   4
ATOM      4  C   UNL     1      -3.328  -1.969  24.747  0.00  0.00    +0.025 C 
ATOM      5  C   UNL     1      -3.440  -2.319  25.484  0.00  0.00    +0.002 C 
ATOM      6  C   UNL     1      -3.866  -2.108  24.137  0.00  0.00    +0.002 C 
ENDBRANCH   3   4
BRANCH   3   2
ATOM      1  C   UNL     1      -1.756  -2.559  24.445  0.00  0.00    +0.108 C 
ATOM      2  N   UNL     1      -1.991  -1.786  24.276  0.00  0.00    -0.209 NA
ENDBRANCH   3   2
ENDBRANCH   7   3
ENDBRANCH  10   9
BRANCH  12  18
ATOM     18  C   UNL     1      -3.597   2.345  24.545  0.00  0.00    +0.261 C 
ATOM     19  O   UNL     1      -3.702   2.639  23.781  0.00  0.00    -0.269 OA
ATOM     20  N   UNL     1      -4.161   2.498  25.127  0.00  0.00    -0.192 NA
BRANCH  20  21
ATOM     21  C   UNL     1      -4.831   2.945  24.945  0.00  0.00    +0.203 C 
BRANCH  21  22
ATOM     22  C   UNL     1      -5.380   3.123  25.535  0.00  0.00    +0.283 C 
ATOM     23  N   UNL     1      -5.508   3.908  25.755  0.00  0.00    -0.086 NA
ATOM     24  O   UNL     1      -5.801   2.518  25.902  0.00  0.00    -0.270 OA
ENDBRANCH  21  22
ENDBRANCH  20  21
ENDBRANCH  12  18
TORSDOF 7
ENDMDL
MODEL 4
REMARK VINA RESULT:      -8.6      2.134      3.353
REMARK  Name = 
REMARK  7 active torsions:
REMARK  status: ('A' for Active; 'I' for Inactive)
REMARK    1  A    between atoms: N_2  and  C_3
REMARK    2  A    between atoms: C_3  and  C_4
REMARK    3  A    between atoms: C_3  and  C_7
REMARK    4  A    between atoms: N_9  and  C_10
REMARK    5  A    between atoms: C_12  and  C_18
REMARK    6  A    between atoms: N_20  and  C_21
REMARK    7  A    between atoms: C_21  and  C_22
REMARK                            x       y       z     vdW  Elec       q    Type
REMARK                         _______ _______ _______ _____ _____    ______ ____
ROOT
ATOM     10  C   UNL     1      -1.175   0.415  24.819  0.00  0.00    +0.150 C 
ATOM     11  C   UNL     1      -1.228   1.125  25.235  0.00  0.00    -0.002 C 
ATOM     12  C   UNL     1      -0.677   1.725  25.099  0.00  0.00    +0.033 C 
ATOM     13  C   UNL     1      -0.074   1.614  24.549  0.00  0.00    +0.066 C 
ATOM     14  C   UNL     1      -0.021   0.903  24.132  0.00  0.00    +0.189 C 
ATOM     15  O   UNL     1       0.583   0.791  23.581  0.00  0.00    -0.220 OA
ATOM     16  C   UNL     1      -0.572   0.304  24.269  0.00  0.00    +0.206 C 
ATOM     17  O   UNL     1      -0.519  -0.407  23.853  0.00  0.00    -0.218 OA
ENDROOT
BRANCH  10   9
ATOM      7  C   UNL     1      -2.528  -0.044  24.823  0.00  0.00    +0.258 C 
ATOM      8  O   UNL     1      -2.779   0.693  24.555  0.00  0.00    -0.272 OA
ATOM      9  N   UNL     1      -1.726  -0.185  24.955  0.00  0.00    -0.199 NA
BRANCH   7   3
ATOM      3  C   UNL     1      -3.079  -0.644  24.959  0.00  0.00    +0.150 C 
BRANCH   3   4
ATOM      4  C   UNL     1      -3.780  -0.667  24.524  0.00  0.00    +0.025 C 
ATOM      5  C   UNL     1      -3.880  -1.233  23.933  0.00  0.00    +0.002 C 
ATOM      6  C   UNL     1      -4.379  -0.122  24.681  0.00  0.00    +0.002 C 
ENDBRANCH   3   4
BRANCH   3   2
ATOM      1  C   UNL     1      -3.501  -1.399  26.096  0.00  0.00    +0.108 C 
ATOM      2  N   UNL     1      -2.928  -1.220  25.529  0.00  0.00    -0.209 NA
ENDBRANCH   3   2
ENDBRANCH   7   3
ENDBRANCH  10   9
BRANCH  12  18
ATOM     18  C   UNL     1      -0.731   2.436  25.515  0.00  0.00    +0.261 C 
ATOM     19  O   UNL     1      -0.443   2.485  26.286  0.00  0.00    -0.269 OA
ATOM     20  N   UNL     1      -1.073   3.096  25.158  0.00  0.00    -0.192 NA
BRANCH  20  21
ATOM     21  C   UNL     1      -1.127   3.807  25.574  0.00  0.00    +0.203 C 
BRANCH  21  22
ATOM     22  C   UNL     1      -1.482   4.465  25.223  0.00  0.00    +0.283 C 
ATOM     23  N   UNL     1      -1.017   5.094  24.962  0.00  0.00    -0.086 NA
ATOM     24  O   UNL     1      -2.301   4.492  25.133  0.00  0.00    -0.270 OA
ENDBRANCH  21  22
ENDBRANCH  20  21
ENDBRANCH  12  18
TORSDOF 7
ENDMDL
MODEL 5
REMARK VINA RESULT:      -8.5      1.970      5.036
REMARK  Name = 
REMARK  7 active torsions:
REMARK  status: ('A' for Active; 'I' for Inactive)
REMARK    1  A    between atoms: N_2  and  C_3
REMARK    2  A    between atoms: C_3  and  C_4
REMARK    3  A    between atoms: C_3  and  C_7
REMARK    4  A    between atoms: N_9  and  C_10
REMARK    5  A    between atoms: C_12  and  C_18
REMARK    6  A    between atoms: N_20  and  C_21
REMARK    7  A    between atoms: C_21  and  C_22
REMARK                            x       y       z     vdW  Elec       q    Type
REMARK                         _______ _______ _______ _____ _____    ______ ____
ROOT
ATOM     10  C   UNL     1      -1.718   1.419  24.347  0.00  0.00    +0.150 C 
ATOM     11  C   UNL     1      -2.188   0.818  24.661  0.00  0.00    -0.002 C 
ATOM     12  C   UNL     1      -1.885   0.054  24.736  0.00  0.00    +0.033 C 
ATOM     13  C   UNL     1      -1.113  -0.109  24.497  0.00  0.00    +0.066 C 
ATOM     14  C   UNL     1      -0.643   0.493  24.182  0.00  0.00    +0.189 C 
ATOM     15  O   UNL     1       0.130   0.331  23.943  0.00  0.00    -0.220 OA
ATOM     16  C   UNL     1      -0.947   1.256  24.108  0.00  0.00    +0.206 C 
ATOM     17  O   UNL     1      -0.477   1.858  23.793  0.00  0.00    -0.218 OA
ENDROOT
BRANCH  10   9
ATOM      7  C   UNL     1      -2.250   2.603  24.944  0.00  0.00    +0.258 C 
ATOM      8  O   UNL     1      -2.175   2.261  25.689  0.00  0.00    -0.272 OA
ATOM      9  N   UNL     1      -2.022   2.183  24.272  0.00  0.00    -0.199 NA
BRANCH   7   3
ATOM      3  C   UNL     1      -2.553   3.367  24.869  0.00  0.00    +0.150 C 
BRANCH   3   4
ATOM      4  C   UNL     1      -2.332   3.954  25.405  0.00  0.00    +0.025 C 
ATOM      5  C   UNL     1      -2.704   4.003  26.139  0.00  0.00    +0.002 C 
ATOM      6  C   UNL     1      -1.738   4.491  25.206  0.00  0.00    +0.002 C 
ENDBRANCH   3   4
BRANCH   3   2
ATOM      1  C   UNL     1      -3.847   3.789  24.432  0.00  0.00    +0.108 C 
ATOM      2  N   UNL     1      -3.078   3.544  24.257  0.00  0.00    -0.209 NA
ENDBRANCH   3   2
ENDBRANCH   7   3
ENDBRANCH  10   9
BRANCH  12  18
ATOM     18  C   UNL     1      -2.355  -0.547  25.050  0.00  0.00    +0.261 C 
ATOM     19  O   UNL     1      -2.303  -0.736  25.852  0.00  0.00    -0.269 OA
ATOM     20  N   UNL     1      -2.877  -0.959  24.562  0.00  0.00    -0.192 NA
BRANCH  20  21
ATOM     21  C   UNL     1      -3.348  -1.560  24.877  0.00  0.00    +0.203 C 
BRANCH  21  22
ATOM     22  C   UNL     1      -3.822  -2.016  24.378  0.00  0.00    +0.283 C 
ATOM     23  N   UNL     1      -3.671  -2.822  24.289  0.00  0.00    -0.086 NA
ATOM     24  O   UNL     1      -4.446  -1.666  23.969  0.00  0.00    -0.270 OA
ENDBRANCH  21  22
ENDBRANCH  20  21
ENDBRANCH  12  18
TORSDOF 7
ENDMDL
MODEL 6
REMARK VINA RESULT:      -8.4      2.273      4.440
REMARK  Name = 
REMARK  7 active torsions:
REMARK  status: ('A' for Active; 'I' for Inactive)
REMARK    1  A    between atoms: N_2  and  C_3
REMARK    2  A    between atoms: C_3  and  C_4
REMARK    3  A    between atoms: C_3  and  C_7
REMARK    4  A    between atoms: N_9  and  C_10
REMARK    5  A    between atoms: C_12  and  C_18
REMARK    6  A    between atoms: N_20  and  C_21
REMARK    7  A    between atoms: C_21  and  C_22
REMARK                            x       y       z     vdW  Elec       q    Type
REMARK                         _______ _______ _______ _____ _____    ______ ____
ROOT
ATOM     10  C   UNL     1      -1.676   2.455  25.081  0.00  0.00    +0.150 C 
ATOM     11  C   UNL     1      -1.471   1.748  24.709  0.00  0.00    -0.002 C 
ATOM     12  C   UNL     1      -0.787   1.345  24.937  0.00  0.00    +0.033 C 
ATOM     13  C   UNL     1      -0.309   1.650  25.535  0.00  0.00    +0.066 C 
ATOM     14  C   UNL     1      -0.514   2.358  25.907  0.00  0.00    +0.189 C 
ATOM     15  O   UNL     1      -0.036   2.662  26.507  0.00  0.00    -0.220 OA
ATOM     16  C   UNL     1      -1.198   2.759  25.680  0.00  0.00    +0.206 C 
ATOM     17  O   UNL     1      -1.403   3.467  26.052  0.00  0.00    -0.218 OA
ENDROOT
BRANCH  10   9
ATOM      7  C   UNL     1      -3.088   2.470  24.866  0.00  0.00    +0.258 C 
ATOM      8  O   UNL     1      -3.133   1.683  25.106  0.00  0.00    -0.272 OA
ATOM      9  N   UNL     1      -2.360   2.857  24.854  0.00  0.00    -0.199 NA
BRANCH   7   3
ATOM      3  C   UNL     1      -3.772   2.873  24.639  0.00  0.00    +0.150 C 
BRANCH   3   4
ATOM      4  C   UNL     1      -4.477   2.755  25.051  0.00  0.00    +0.025 C 
ATOM      5  C   UNL     1      -4.748   3.328  25.578  0.00  0.00    +0.002 C 
ATOM      6  C   UNL     1      -4.910   2.062  24.936  0.00  0.00    +0.002 C 
ENDBRANCH   3   4
BRANCH   3   2
ATOM      1  C   UNL     1      -4.133   3.196  23.294  0.00  0.00    +0.108 C 
ATOM      2  N   UNL     1      -3.751   3.393  23.999  0.00  0.00    -0.209 NA
ENDBRANCH   3   2
ENDBRANCH   7   3
ENDBRANCH  10   9
BRANCH  12  18
ATOM     18  C   UNL     1      -0.582   0.638  24.564  0.00  0.00    +0.261 C 
ATOM     19  O   UNL     1      -0.188   0.652  23.839  0.00  0.00    -0.269 OA
ATOM     20  N   UNL     1      -0.771  -0.083  24.918  0.00  0.00    -0.192 NA
BRANCH  20  21
ATOM     21  C   UNL     1      -0.566  -0.790  24.545  0.00  0.00    +0.203 C 
BRANCH  21  22
ATOM     22  C   UNL     1      -0.784  -1.512  24.882  0.00  0.00    +0.283 C 
ATOM     23  N   UNL     1      -1.437  -1.923  24.589  0.00  0.00    -0.086 NA
ATOM     24  O   UNL     1      -0.351  -1.821  25.511  0.00  0.00    -0.270 OA
ENDBRANCH  21  22
ENDBRANCH  20  21
ENDBRANCH  12  18
TORSDOF 7
ENDMDL
MODEL 7
REMARK VINA RESULT:      -8.4      2.060      3.927
REMARK  Name = 
REMARK  7 active torsions:
REMARK  status: ('A' for Active; 'I' for Inactive)
REMARK    1  A    between atoms: N_2  and  C_3
REMARK    2  A    between atoms: C_3  and  C_4
REMARK    3  A    between atoms: C_3  and  C_7
REMARK    4  A    between atoms: N_9  and  C_10
REMARK    5  A    between atoms: C_12  and  C_18
REMARK    6  A    between atoms: N_20  and  C_21
REMARK    7  A    between atoms: C_21  and  C_22
REMARK                            x       y       z     vdW  Elec       q    Type
REMARK                         _______ _______ _______ _____ _____    ______ ____
ROOT
ATOM     10  C   UNL     1      -3.666   0.029  24.362  0.00  0.00    +0.150 C 
ATOM     11  C   UNL     1      -2.862   0.117  24.522  0.00  0.00    -0.002 C 
ATOM     12  C   UNL     1      -2.399  -0.546  24.688  0.00  0.00    +0.033 C 
ATOM     13  C   UNL     1      -2.741  -1.296  24.694  0.00  0.00    +0.066 C 
ATOM     14  C   UNL     1      -3.546  -1.384  24.533  0.00  0.00    +0.189 C 
ATOM     15  O   UNL     1      -3.888  -2.135  24.539  0.00  0.00    -0.220 OA
ATOM     16  C   UNL     1      -4.008  -0.721  24.368  0.00  0.00    +0.206 C 
ATOM     17  O   UNL     1      -4.813  -0.809  24.207  0.00  0.00    -0.218 OA
ENDROOT
BRANCH  10   9
ATOM      7  C   UNL     1      -4.179   1.306  24.745  0.00  0.00    +0.258 C 
ATOM      8  O   UNL     1      -3.768   1.258  25.457  0.00  0.00    -0.272 OA
ATOM      9  N   UNL     1      -4.129   0.692  24.196  0.00  0.00    -0.199 NA
BRANCH   7   3
ATOM      3  C   UNL     1      -4.642   1.970  24.579  0.00  0.00    +0.150 C 
BRANCH   3   4
ATOM      4  C   UNL     1      -5.244   2.193  25.097  0.00  0.00    +0.025 C 
ATOM      5  C   UNL     1      -6.024   1.976  24.941  0.00  0.00    +0.002 C 
ATOM      6  C   UNL     1      -5.064   2.633  25.772  0.00  0.00    +0.002 C 
ENDBRANCH   3   4
BRANCH   3   2
ATOM      1  C   UNL     1      -4.140   3.149  23.947  0.00  0.00    +0.108 C 
ATOM      2  N   UNL     1      -4.502   2.409  23.895  0.00  0.00    -0.209 NA
ENDBRANCH   3   2
ENDBRANCH   7   3
ENDBRANCH  10   9
BRANCH  12  18
ATOM     18  C   UNL     1      -1.595  -0.458  24.848  0.00  0.00    +0.261 C 
ATOM     19  O   UNL     1      -1.306  -0.601  25.608  0.00  0.00    -0.269 OA
ATOM     20  N   UNL     1      -1.079  -0.226  24.248  0.00  0.00    -0.192 NA
BRANCH  20  21
ATOM     21  C   UNL     1      -0.274  -0.137  24.407  0.00  0.00    +0.203 C 
BRANCH  21  22
ATOM     22  C   UNL     1       0.232   0.157  23.825  0.00  0.00    +0.283 C 
ATOM     23  N   UNL     1       0.574  -0.357  23.278  0.00  0.00    -0.086 NA
ATOM     24  O   UNL     1       0.396   0.964  23.791  0.00  0.00    -0.270 OA
ENDBRANCH  21  22
ENDBRANCH  20  21
ENDBRANCH  12  18
TORSDOF 7
ENDMDL
