MODEL 1
REMARK VINA RESULT:      -9.4      0.000      0.000
REMARK  Name = 
REMARK  10 active torsions:
REMARK  status: ('A' for Active; 'I' for Inactive)
REMARK    1  A    between atoms: O_2  and  C_3
REMARK    2  A    between atoms: C_3  and  C_4
REMARK    3  A    between atoms: C_4  and  N_5
REMARK    4  A    between atoms: N_8  and  C_9
REMARK    5  A    between atoms: C_9  and  C_10
REMARK    6  A    between atoms: C_14  and  C_15
REMARK    7  A    between atoms: C_15  and  C_16
REMARK    8  A    between atoms: C_19  and  C_21
REMARK    9  A    between atoms: C_24  and  N_27
REMARK   10  A    between atoms: C_31  and  C_32
REMARK                            x       y       z     vdW  Elec       q    Type
REMARK                         _______ _______ _______ _____ _____    ______ ____
ROOT
ATOM     10  C   UNL     1      -2.469   3.618  24.849  0.00  0.00    +0.037 C 
ATOM     11  C   UNL     1      -2.620   3.276  24.114  0.00  0.00    -0.034 C 
ATOM     12  C   UNL     1      -3.365   2.960  23.952  0.00  0.00    -0.048 C 
ATOM     13  C   UNL     1      -3.516   2.616  23.216  0.00  0.00    +0.026 C 
ATOM     14  C   UNL     1      -3.958   2.986  24.524  0.00  0.00    +0.027 C 
ATOM     30  C   UNL     1      -3.807   3.329  25.259  0.00  0.00    +0.005 C 
ATOM     31  C   UNL     1      -3.062   3.645  25.423  0.00  0.00    +0.006 C 
ENDROOT
BRANCH  31  32
ATOM     32  C   UNL     1      -2.912   3.987  26.157  0.00  0.00    +0.000 C 
ATOM     33  C   UNL     1      -2.843   4.807  26.224  0.00  0.00    +0.000 C 
ATOM     34  C   UNL     1      -2.829   3.511  26.825  0.00  0.00    +0.000 C 
ENDBRANCH  31  32
BRANCH  10   9
ATOM      9  C   UNL     1      -1.724   3.934  25.013  0.00  0.00    +0.076 C 
BRANCH   9   8
ATOM      5  N   UNL     1       0.316   2.674  24.397  0.00  0.00    -0.268 NA
ATOM      6  C   UNL     1       0.059   3.301  23.925  0.00  0.00    +0.090 C 
ATOM      7  C   UNL     1      -0.620   3.720  24.130  0.00  0.00    +0.090 C 
ATOM      8  N   UNL     1      -1.044   3.514  24.807  0.00  0.00    -0.270 NA
ATOM     35  C   UNL     1      -0.788   2.888  25.280  0.00  0.00    +0.090 C 
ATOM     36  C   UNL     1      -0.108   2.468  25.074  0.00  0.00    +0.090 C 
BRANCH   5   4
ATOM      4  C   UNL     1       0.995   2.254  24.192  0.00  0.00    +0.105 C 
BRANCH   4   3
ATOM      3  C   UNL     1       0.931   1.512  23.838  0.00  0.00    +0.160 C 
BRANCH   3   2
ATOM      1  C   UNL     1       1.531   0.428  23.126  0.00  0.00    +0.174 C 
ATOM      2  O   UNL     1       1.603   1.134  23.548  0.00  0.00    -0.350 OA
ENDBRANCH   3   2
ENDBRANCH   4   3
ENDBRANCH   5   4
ENDBRANCH   9   8
ENDBRANCH  10   9
BRANCH  14  15
ATOM     15  C   UNL     1      -4.702   2.670  24.362  0.00  0.00    +0.091 C 
BRANCH  15  16
ATOM     16  C   UNL     1      -4.873   1.890  24.571  0.00  0.00    +0.227 A 
ATOM     17  N   UNL     1      -5.580   1.621  24.900  0.00  0.00    -0.111 NA
ATOM     18  N   UNL     1      -5.512   0.807  25.020  0.00  0.00    -0.107 NA
ATOM     19  C   UNL     1      -4.762   0.574  24.765  0.00  0.00    +0.250 A 
ATOM     20  O   UNL     1      -4.367   1.244  24.488  0.00  0.00    -0.420 OA
BRANCH  19  21
ATOM     21  C   UNL     1      -4.461  -0.194  24.785  0.00  0.00    +0.055 A 
ATOM     22  C   UNL     1      -4.010  -0.443  25.429  0.00  0.00    +0.006 A 
ATOM     23  C   UNL     1      -3.708  -1.211  25.448  0.00  0.00    +0.015 A 
ATOM     24  C   UNL     1      -3.859  -1.729  24.823  0.00  0.00    +0.048 A 
ATOM     25  C   UNL     1      -4.310  -1.479  24.180  0.00  0.00    +0.015 A 
ATOM     26  C   UNL     1      -4.611  -0.711  24.160  0.00  0.00    +0.006 A 
BRANCH  24  27
ATOM     27  N   UNL     1      -3.557  -2.497  24.843  0.00  0.00    -0.304 N 
ATOM     28  C   UNL     1      -3.567  -2.962  24.161  0.00  0.00    +0.112 C 
ATOM     29  C   UNL     1      -3.246  -2.800  25.543  0.00  0.00    +0.112 C 
ENDBRANCH  24  27
ENDBRANCH  19  21
ENDBRANCH  15  16
ENDBRANCH  14  15
TORSDOF 10
ENDMDL
MODEL 2
REMARK VINA RESULT:      -8.9      2.033      4.231
REMARK  Name = 
REMARK  10 active torsions:
REMARK  status: ('A' for Active; 'I' for Inactive)
REMARK    1  A    between atoms: O_2  and  C_3
REMARK    2  A    between atoms: C_3  and  C_4
REMARK    3  A    between atoms: C_4  and  N_5
REMARK    4  A    between atoms: N_8  and  C_9
REMARK    5  A    between atoms: C_9  and  C_10
REMARK    6  A    between atoms: C_14  and  C_15
REMARK    7  A    between atoms: C_15  and  C_16
REMARK    8  A    between atoms: C_19  and  C_21
REMARK    9  A    between atoms: C_24  and  N_27
REMARK   10  A    between atoms: C_31  and  C_32
REMARK                            x       y       z     vdW  Elec       q    Type
REMARK                         _______ _______ _______ _____ _____    ______ ____
ROOT
ATOM     10  C   UNL     1       0.130   0.414  23.844  0.00  0.00    +0.037 C 
ATOM     11  C   UNL     1       0.444   1.176  23.803  0.00  0.00    -0.034 C 
ATOM     12  C   UNL     1       0.092   1.790  24.227  0.00  0.00    -0.048 C 
ATOM     13  C   UNL     1       0.407   2.553  24.185  0.00  0.00    +0.026 C 
ATOM     14  C   UNL     1      -0.573   1.644  24.690  0.00  0.00    +0.027 C 
ATOM     30  C   UNL     1      -0.888   0.882  24.731  0.00  0.00    +0.005 C 
ATOM     31  C   UNL     1      -0.537   0.267  24.309  0.00  0.00    +0.006 C 
ENDROOT
BRANCH  31  32
ATOM     32  C   UNL     1      -0.851  -0.494  24.350  0.00  0.00    +0.000 C 
ATOM     33  C   UNL     1      -1.386  -0.751  23.776  0.00  0.00    +0.000 C 
ATOM     34  C   UNL     1      -0.631  -0.999  24.964  0.00  0.00    +0.000 C 
ENDBRANCH  31  32
BRANCH  10   9
ATOM      9  C   UNL     1       0.481  -0.201  23.421  0.00  0.00    +0.076 C 
BRANCH   9   8
ATOM      5  N   UNL     1       2.821   0.013  22.643  0.00  0.00    -0.268 NA
ATOM      6  C   UNL     1       2.664  -0.194  23.426  0.00  0.00    +0.090 C 
ATOM      7  C   UNL     1       1.885  -0.265  23.686  0.00  0.00    +0.090 C 
ATOM      8  N   UNL     1       1.262  -0.130  23.162  0.00  0.00    -0.270 NA
ATOM     35  C   UNL     1       1.418   0.076  22.379  0.00  0.00    +0.090 C 
ATOM     36  C   UNL     1       2.199   0.148  22.119  0.00  0.00    +0.090 C 
BRANCH   5   4
ATOM      4  C   UNL     1       3.601   0.084  22.384  0.00  0.00    +0.105 C 
BRANCH   4   3
ATOM      3  C   UNL     1       4.189   0.333  22.906  0.00  0.00    +0.160 C 
BRANCH   3   2
ATOM      1  C   UNL     1       5.563   0.214  23.280  0.00  0.00    +0.174 C 
ATOM      2  O   UNL     1       4.983   0.268  22.695  0.00  0.00    -0.350 OA
ENDBRANCH   3   2
ENDBRANCH   4   3
ENDBRANCH   5   4
ENDBRANCH   9   8
ENDBRANCH  10   9
BRANCH  14  15
ATOM     15  C   UNL     1      -0.925   2.258  25.113  0.00  0.00    +0.091 C 
BRANCH  15  16
ATOM     16  C   UNL     1      -1.693   2.499  24.929  0.00  0.00    +0.227 A 
ATOM     17  N   UNL     1      -1.899   3.111  24.418  0.00  0.00    -0.111 NA
ATOM     18  N   UNL     1      -2.723   3.160  24.398  0.00  0.00    -0.107 NA
ATOM     19  C   UNL     1      -3.025   2.577  24.897  0.00  0.00    +0.250 A 
ATOM     20  O   UNL     1      -2.388   2.168  25.227  0.00  0.00    -0.420 OA
BRANCH  19  21
ATOM     21  C   UNL     1      -3.824   2.429  25.043  0.00  0.00    +0.055 A 
ATOM     22  C   UNL     1      -4.292   3.007  25.400  0.00  0.00    +0.006 A 
ATOM     23  C   UNL     1      -5.091   2.859  25.545  0.00  0.00    +0.015 A 
ATOM     24  C   UNL     1      -5.421   2.133  25.332  0.00  0.00    +0.048 A 
ATOM     25  C   UNL     1      -4.953   1.556  24.975  0.00  0.00    +0.015 A 
ATOM     26  C   UNL     1      -4.154   1.704  24.830  0.00  0.00    +0.006 A 
BRANCH  24  27
ATOM     27  N   UNL     1      -6.220   1.985  25.478  0.00  0.00    -0.304 N 
ATOM     28  C   UNL     1      -6.498   1.945  26.254  0.00  0.00    +0.112 C 
ATOM     29  C   UNL     1      -6.740   1.878  24.847  0.00  0.00    +0.112 C 
ENDBRANCH  24  27
ENDBRANCH  19  21
ENDBRANCH  15  16
ENDBRANCH  14  15
TORSDOF 10
ENDMDL
MODEL 3
REMARK VINA RESULT:      -8.8      2.148      6.011
REMARK  Name = 
REMARK  10 active torsions:
REMARK  status: ('A' for Active; 'I' for Inactive)
REMARK    1  A    between atoms: O_2  and  C_3
REMARK    2  A    between atoms: C_3  and  C_4
REMARK    3  A    between atoms: C_4  and  N_5
REMARK    4  A    between atoms: N_8  and  C_9
REMARK    5  A    between atoms: C_9  and  C_10
REMARK    6  A    between atoms: C_14  and  C_15
REMARK    7  A    between atoms: C_15  and  C_16
REMARK    8  A    between atoms: C_19  and  C_21
REMARK    9  A    between atoms: C_24  and  N_27
REMARK   10  A    between atoms: C_31  and  C_32
REMARK                            x       y       z     vdW  Elec       q    Type
REMARK                         _______ _______ _______ _____ _____    ______ ____
ROOT
ATOM     10  C   UNL     1      -1.283   2.109  24.345  0.00  0.00    +0.037 C 
ATOM     11  C   UNL     1      -1.713   1.469  24.050  0.00  0.00    -0.034 C 
ATOM     12  C   UNL     1      -1.328   0.764  23.864  0.00  0.00    -0.048 C 
ATOM     13  C   UNL     1      -1.758   0.124  23.569  0.00  0.00    +0.026 C 
ATOM     14  C   UNL     1      -0.513   0.698  23.972  0.00  0.00    +0.027 C 
ATOM     30  C   UNL     1      -0.083   1.337  24.267  0.00  0.00    +0.005 C 
ATOM     31  C   UNL     1      -0.467   2.043  24.454  0.00  0.00    +0.006 C 
ENDROOT
BRANCH  31  32
ATOM     32  C   UNL     1      -0.037   2.681  24.748  0.00  0.00    +0.000 C 
ATOM     33  C   UNL     1       0.162   2.711  25.549  0.00  0.00    +0.000 C 
ATOM     34  C   UNL     1       0.194   3.291  24.244  0.00  0.00    +0.000 C 
ENDBRANCH  31  32
BRANCH  10   9
ATOM      9  C   UNL     1      -1.667   2.814  24.532  0.00  0.00    +0.076 C 
BRANCH   9   8
ATOM      5  N   UNL     1      -4.130   2.852  24.781  0.00  0.00    -0.268 NA
ATOM      6  C   UNL     1      -3.652   2.682  25.432  0.00  0.00    +0.090 C 
ATOM      7  C   UNL     1      -2.831   2.670  25.349  0.00  0.00    +0.090 C 
ATOM      8  N   UNL     1      -2.489   2.827  24.615  0.00  0.00    -0.270 NA
ATOM     35  C   UNL     1      -2.966   2.996  23.964  0.00  0.00    +0.090 C 
ATOM     36  C   UNL     1      -3.787   3.009  24.047  0.00  0.00    +0.090 C 
BRANCH   5   4
ATOM      4  C   UNL     1      -4.950   2.864  24.864  0.00  0.00    +0.105 C 
BRANCH   4   3
ATOM      3  C   UNL     1      -5.369   2.157  24.935  0.00  0.00    +0.160 C 
BRANCH   3   2
ATOM      1  C   UNL     1      -6.627   1.478  24.906  0.00  0.00    +0.174 C 
ATOM      2  O   UNL     1      -6.190   2.169  25.017  0.00  0.00    -0.350 OA
ENDBRANCH   3   2
ENDBRANCH   4   3
ENDBRANCH   5   4
ENDBRANCH   9   8
ENDBRANCH  10   9
BRANCH  14  15
ATOM     15  C   UNL     1      -0.128  -0.007  23.786  0.00  0.00    +0.091 C 
BRANCH  15  16
ATOM     16  C   UNL     1       0.567   0.007  23.341  0.00  0.00    +0.227 A 
ATOM     17  N   UNL     1       0.615  -0.006  22.518  0.00  0.00    -0.111 NA
ATOM     18  N   UNL     1       1.413   0.016  22.309  0.00  0.00    -0.107 NA
ATOM     19  C   UNL     1       1.858   0.044  23.004  0.00  0.00    +0.250 A 
ATOM     20  O   UNL     1       1.334   0.038  23.642  0.00  0.00    -0.420 OA
BRANCH  19  21
ATOM     21  C   UNL     1       2.682   0.072  23.052  0.00  0.00    +0.055 A 
ATOM     22  C   UNL     1       3.101  -0.584  23.325  0.00  0.00    +0.006 A 
ATOM     23  C   UNL     1       3.924  -0.556  23.373  0.00  0.00    +0.015 A 
ATOM     24  C   UNL     1       4.327   0.129  23.147  0.00  0.00    +0.048 A 
ATOM     25  C   UNL     1       3.907   0.783  22.875  0.00  0.00    +0.015 A 
ATOM     26  C   UNL     1       3.084   0.755  22.827  0.00  0.00    +0.006 A 
BRANCH  24  27
ATOM     27  N   UNL     1       5.151   0.156  23.195  0.00  0.00    -0.304 N 
ATOM     28  C   UNL     1       5.515   0.452  23.874  0.00  0.00    +0.112 C 
ATOM     29  C   UNL     1       5.610  -0.111  22.565  0.00  0.00    +0.112 C 
ENDBRANCH  24  27
ENDBRANCH  19  21
ENDBRANCH  15  16
ENDBRANCH  14  15
TORSDOF 10
ENDMDL
MODEL 4
REMARK VINA RESULT:      -8.7      1.746      3.931
REMARK  Name = 
REMARK  10 active torsions:
REMARK  status: ('A' for Active; 'I' for Inactive)
REMARK    1  A    between atoms: O_2  and  C_3
REMARK    2  A    between atoms: C_3  and  C_4
REMARK    3  A    between atoms: C_4  and  N_5
REMARK    4  A    between atoms: N_8  and  C_9
REMARK    5  A    between atoms: C_9  and  C_10
REMARK    6  A    between atoms: C_14  and  C_15
REMARK    7  A    between atoms: C_15  and  C_16
REMARK    8  A    between atoms: C_19  and  C_21
REMARK    9  A    between atoms: C_24  and  N_27
REMARK   10  A    between atoms: C_31  and  C_32
REMARK                            x       y       z     vdW  Elec       q    Type
REMARK                         _______ _______ _______ _____ _____    ______ ____
ROOT
ATOM     10  C   UNL     1      -0.879   2.976  25.092  0.00  0.00    +0.037 C 
ATOM     11  C   UNL     1      -1.181   2.831  24.338  0.00  0.00    -0.034 C 
ATOM     12  C   UNL     1      -0.889   2.200  23.892  0.00  0.00    -0.048 C 
ATOM     13  C   UNL     1      -1.191   2.055  23.137  0.00  0.00    +0.026 C 
ATOM     14  C   UNL     1      -0.298   1.716  24.199  0.00  0.00    +0.027 C 
ATOM     30  C   UNL     1       0.003   1.861  24.954  0.00  0.00    +0.005 C 
ATOM     31  C   UNL     1      -0.287   2.490  25.400  0.00  0.00    +0.006 C 
ENDROOT
BRANCH  31  32
ATOM     32  C   UNL     1       0.014   2.635  26.153  0.00  0.00    +0.000 C 
ATOM     33  C   UNL     1       0.541   3.259  26.275  0.00  0.00    +0.000 C 
ATOM     34  C   UNL     1      -0.211   2.157  26.787  0.00  0.00    +0.000 C 
ENDBRANCH  31  32
BRANCH  10   9
ATOM      9  C   UNL     1      -1.170   3.606  25.538  0.00  0.00    +0.076 C 
BRANCH   9   8
ATOM      5  N   UNL     1      -3.604   4.053  25.608  0.00  0.00    -0.268 NA
ATOM      6  C   UNL     1      -3.263   3.533  26.152  0.00  0.00    +0.090 C 
ATOM      7  C   UNL     1      -2.453   3.384  26.129  0.00  0.00    +0.090 C 
ATOM      8  N   UNL     1      -1.982   3.755  25.562  0.00  0.00    -0.270 NA
ATOM     35  C   UNL     1      -2.321   4.274  25.018  0.00  0.00    +0.090 C 
ATOM     36  C   UNL     1      -3.132   4.423  25.041  0.00  0.00    +0.090 C 
BRANCH   5   4
ATOM      4  C   UNL     1      -4.414   4.201  25.631  0.00  0.00    +0.105 C 
BRANCH   4   3
ATOM      3  C   UNL     1      -4.950   3.605  25.437  0.00  0.00    +0.160 C 
BRANCH   3   2
ATOM      1  C   UNL     1      -6.213   2.986  25.689  0.00  0.00    +0.174 C 
ATOM      2  O   UNL     1      -5.735   3.659  25.682  0.00  0.00    -0.350 OA
ENDBRANCH   3   2
ENDBRANCH   4   3
ENDBRANCH   5   4
ENDBRANCH   9   8
ENDBRANCH  10   9
BRANCH  14  15
ATOM     15  C   UNL     1      -0.007   1.086  23.754  0.00  0.00    +0.091 C 
BRANCH  15  16
ATOM     16  C   UNL     1      -0.199   0.310  23.961  0.00  0.00    +0.227 A 
ATOM     17  N   UNL     1       0.337  -0.291  24.136  0.00  0.00    -0.111 NA
ATOM     18  N   UNL     1      -0.093  -0.973  24.313  0.00  0.00    -0.107 NA
ATOM     19  C   UNL     1      -0.896  -0.792  24.248  0.00  0.00    +0.250 A 
ATOM     20  O   UNL     1      -0.961   0.002  24.030  0.00  0.00    -0.420 OA
BRANCH  19  21
ATOM     21  C   UNL     1      -1.522  -1.313  24.378  0.00  0.00    +0.055 A 
ATOM     22  C   UNL     1      -2.234  -1.033  24.686  0.00  0.00    +0.006 A 
ATOM     23  C   UNL     1      -2.861  -1.554  24.816  0.00  0.00    +0.015 A 
ATOM     24  C   UNL     1      -2.774  -2.355  24.636  0.00  0.00    +0.048 A 
ATOM     25  C   UNL     1      -2.063  -2.635  24.328  0.00  0.00    +0.015 A 
ATOM     26  C   UNL     1      -1.436  -2.113  24.198  0.00  0.00    +0.006 A 
BRANCH  24  27
ATOM     27  N   UNL     1      -3.401  -2.877  24.766  0.00  0.00    -0.304 N 
ATOM     28  C   UNL     1      -4.004  -2.944  24.207  0.00  0.00    +0.112 C 
ATOM     29  C   UNL     1      -3.425  -3.330  25.455  0.00  0.00    +0.112 C 
ENDBRANCH  24  27
ENDBRANCH  19  21
ENDBRANCH  15  16
ENDBRANCH  14  15
TORSDOF 10
ENDMDL
MODEL 5
REMARK VINA RESULT:      -8.7      1.528      4.533
REMARK  Name = 
REMARK  10 active torsions:
REMARK  status: ('A' for Active; 'I' for Inactive)
REMARK    1  A    between atoms: O_2  and  C_3
REMARK    2  A    between atoms: C_3  and  C_4
REMARK    3  A    between atoms: C_4  and  N_5
REMARK    4  A    between atoms: N_8  and  C_9
REMARK    5  A    between atoms: C_9  and  C_10
REMARK    6  A    between atoms: C_14  and  C_15
REMARK    7  A    between atoms: C_15  and  C_16
REMARK    8  A    between atoms: C_19  and  C_21
REMARK    9  A    between atoms: C_24  and  N_27
REMARK   10  A    between atoms: C_31  and  C_32
REMARK                            x       y       z     vdW  Elec       q    Type
REMARK                         _______ _______ _______ _____ _____    ______ ____
ROOT
ATOM     10  C   UNL     1      -2.890  -1.002  24.712  0.00  0.00    +0.037 C 
ATOM     11  C   UNL     1      -2.968  -0.551  24.025  0.00  0.00    -0.034 C 
ATOM     12  C   UNL     1      -3.572   0.008  23.966  0.00  0.00    -0.048 C 
ATOM     13  C   UNL     1      -3.650   0.460  23.279  0.00  0.00    +0.026 C 
ATOM     14  C   UNL     1      -4.096   0.118  24.593  0.00  0.00    +0.027 C 
ATOM     30  C   UNL     1      -4.018  -0.333  25.279  0.00  0.00    +0.005 C 
ATOM     31  C   UNL     1      -3.415  -0.893  25.339  0.00  0.00    +0.006 C 
ENDROOT
BRANCH  31  32
ATOM     32  C   UNL     1      -3.337  -1.343  26.025  0.00  0.00    +0.000 C 
ATOM     33  C   UNL     1      -3.521  -2.148  26.014  0.00  0.00    +0.000 C 
ATOM     34  C   UNL     1      -3.076  -0.990  26.723  0.00  0.00    +0.000 C 
ENDBRANCH  31  32
BRANCH  10   9
ATOM      9  C   UNL     1      -2.288  -1.562  24.772  0.00  0.00    +0.076 C 
BRANCH   9   8
ATOM      5  N   UNL     1      -0.008  -1.014  23.977  0.00  0.00    -0.268 NA
ATOM      6  C   UNL     1      -0.297  -0.671  24.669  0.00  0.00    +0.090 C 
ATOM      7  C   UNL     1      -1.057  -0.854  24.934  0.00  0.00    +0.090 C 
ATOM      8  N   UNL     1      -1.527  -1.379  24.507  0.00  0.00    -0.270 NA
ATOM     35  C   UNL     1      -1.239  -1.723  23.814  0.00  0.00    +0.090 C 
ATOM     36  C   UNL     1      -0.478  -1.540  23.549  0.00  0.00    +0.090 C 
BRANCH   5   4
ATOM      4  C   UNL     1       0.751  -0.832  23.712  0.00  0.00    +0.105 C 
BRANCH   4   3
ATOM      3  C   UNL     1       0.856  -0.293  23.096  0.00  0.00    +0.160 C 
BRANCH   3   2
ATOM      1  C   UNL     1       2.012   0.028  22.319  0.00  0.00    +0.174 C 
ATOM      2  O   UNL     1       1.573   0.106  23.014  0.00  0.00    -0.350 OA
ENDBRANCH   3   2
ENDBRANCH   4   3
ENDBRANCH   5   4
ENDBRANCH   9   8
ENDBRANCH  10   9
BRANCH  14  15
ATOM     15  C   UNL     1      -4.699   0.677  24.533  0.00  0.00    +0.091 C 
BRANCH  15  16
ATOM     16  C   UNL     1      -4.577   1.446  24.810  0.00  0.00    +0.227 A 
ATOM     17  N   UNL     1      -5.120   1.900  25.232  0.00  0.00    -0.111 NA
ATOM     18  N   UNL     1      -4.770   2.629  25.396  0.00  0.00    -0.107 NA
ATOM     19  C   UNL     1      -4.010   2.625  25.075  0.00  0.00    +0.250 A 
ATOM     20  O   UNL     1      -3.890   1.893  24.712  0.00  0.00    -0.420 OA
BRANCH  19  21
ATOM     21  C   UNL     1      -3.464   3.243  25.110  0.00  0.00    +0.055 A 
ATOM     22  C   UNL     1      -3.434   3.801  24.503  0.00  0.00    +0.006 A 
ATOM     23  C   UNL     1      -2.889   4.420  24.538  0.00  0.00    +0.015 A 
ATOM     24  C   UNL     1      -2.375   4.480  25.181  0.00  0.00    +0.048 A 
ATOM     25  C   UNL     1      -2.405   3.922  25.787  0.00  0.00    +0.015 A 
ATOM     26  C   UNL     1      -2.951   3.303  25.752  0.00  0.00    +0.006 A 
BRANCH  24  27
ATOM     27  N   UNL     1      -1.830   5.098  25.216  0.00  0.00    -0.304 N 
ATOM     28  C   UNL     1      -1.025   4.946  25.110  0.00  0.00    +0.112 C 
ATOM     29  C   UNL     1      -2.089   5.868  25.357  0.00  0.00    +0.112 C 
ENDBRANCH  24  27
ENDBRANCH  19  21
ENDBRANCH  15  16
ENDBRANCH  14  15
TORSDOF 10
ENDMDL
MODEL 6
REMARK VINA RESULT:      -8.4      2.468      6.566
REMARK  Name = 
REMARK  10 active torsions:
REMARK  status: ('A' for Active; 'I' for Inactive)
REMARK    1  A    between atoms: O_2  and  C_3
REMARK    2  A    between atoms: C_3  and  C_4
REMARK    3  A    between atoms: C_4  and  N_5
REMARK    4  A    between atoms: N_8  and  C_9
REMARK    5  A    between atoms: C_9  and  C_10
REMARK    6  A    between atoms: C_14  and  C_15
REMARK    7  A    between atoms: C_15  and  C_16
REMARK    8  A    between atoms: C_19  and  C_21
REMARK    9  A    between atoms: C_24  and  N_27
REMARK   10  A    between atoms: C_31  and  C_32
REMARK                            x       y       z     vdW  Elec       q    Type
REMARK                         _______ _______ _______ _____ _____    ______ ____
ROOT
ATOM     10  C   UNL     1      -1.672  -0.258  24.339  0.00  0.00    +0.037 C 
ATOM     11  C   UNL     1      -1.801   0.474  23.980  0.00  0.00    -0.034 C 
ATOM     12  C   UNL     1      -1.162   0.913  23.699  0.00  0.00    -0.048 C 
ATOM     13  C   UNL     1      -1.291   1.646  23.340  0.00  0.00    +0.026 C 
ATOM     14  C   UNL     1      -0.394   0.622  23.776  0.00  0.00    +0.027 C 
ATOM     30  C   UNL     1      -0.265  -0.109  24.135  0.00  0.00    +0.005 C 
ATOM     31  C   UNL     1      -0.903  -0.550  24.416  0.00  0.00    +0.006 C 
ENDROOT
BRANCH  31  32
ATOM     32  C   UNL     1      -0.774  -1.281  24.774  0.00  0.00    +0.000 C 
ATOM     33  C   UNL     1      -0.855  -1.976  24.336  0.00  0.00    +0.000 C 
ATOM     34  C   UNL     1      -0.563  -1.319  25.571  0.00  0.00    +0.000 C 
ENDBRANCH  31  32
BRANCH  10   9
ATOM      9  C   UNL     1      -2.310  -0.699  24.620  0.00  0.00    +0.076 C 
BRANCH   9   8
ATOM      5  N   UNL     1      -4.510   0.386  24.951  0.00  0.00    -0.268 NA
ATOM      6  C   UNL     1      -3.937   0.425  25.543  0.00  0.00    +0.090 C 
ATOM      7  C   UNL     1      -3.205   0.064  25.434  0.00  0.00    +0.090 C 
ATOM      8  N   UNL     1      -3.044  -0.337  24.731  0.00  0.00    -0.270 NA
ATOM     35  C   UNL     1      -3.615  -0.376  24.137  0.00  0.00    +0.090 C 
ATOM     36  C   UNL     1      -4.349  -0.014  24.248  0.00  0.00    +0.090 C 
BRANCH   5   4
ATOM      4  C   UNL     1      -5.243   0.747  25.061  0.00  0.00    +0.105 C 
BRANCH   4   3
ATOM      3  C   UNL     1      -5.297   1.570  25.099  0.00  0.00    +0.160 C 
BRANCH   3   2
ATOM      1  C   UNL     1      -6.058   2.719  25.478  0.00  0.00    +0.174 C 
ATOM      2  O   UNL     1      -6.025   1.930  25.238  0.00  0.00    -0.350 OA
ENDBRANCH   3   2
ENDBRANCH   4   3
ENDBRANCH   5   4
ENDBRANCH   9   8
ENDBRANCH  10   9
BRANCH  14  15
ATOM     15  C   UNL     1       0.244   1.062  23.496  0.00  0.00    +0.091 C 
BRANCH  15  16
ATOM     16  C   UNL     1       0.909   0.677  23.193  0.00  0.00    +0.227 A 
ATOM     17  N   UNL     1       0.916   0.145  22.564  0.00  0.00    -0.111 NA
ATOM     18  N   UNL     1       1.694  -0.104  22.448  0.00  0.00    -0.107 NA
ATOM     19  C   UNL     1       2.168   0.275  23.007  0.00  0.00    +0.250 A 
ATOM     20  O   UNL     1       1.682   0.759  23.467  0.00  0.00    -0.420 OA
BRANCH  19  21
ATOM     21  C   UNL     1       2.985   0.187  23.090  0.00  0.00    +0.055 A 
ATOM     22  C   UNL     1       3.296  -0.525  23.365  0.00  0.00    +0.006 A 
ATOM     23  C   UNL     1       4.112  -0.613  23.449  0.00  0.00    +0.015 A 
ATOM     24  C   UNL     1       4.616   0.012  23.257  0.00  0.00    +0.048 A 
ATOM     25  C   UNL     1       4.304   0.724  22.982  0.00  0.00    +0.015 A 
ATOM     26  C   UNL     1       3.488   0.812  22.898  0.00  0.00    +0.006 A 
BRANCH  24  27
ATOM     27  N   UNL     1       5.433  -0.076  23.340  0.00  0.00    -0.304 N 
ATOM     28  C   UNL     1       5.904  -0.202  22.674  0.00  0.00    +0.112 C 
ATOM     29  C   UNL     1       5.777  -0.038  24.088  0.00  0.00    +0.112 C 
ENDBRANCH  24  27
ENDBRANCH  19  21
ENDBRANCH  15  16
ENDBRANCH  14  15
TORSDOF 10
ENDMDL
MODEL 7
REMARK VINA RESULT:      -8.3      2.092      3.979
REMARK  Name = 
REMARK  10 active torsions:
REMARK  status: ('A' for Active; 'I' for Inactive)
REMARK    1  A    between atoms: O_2  and  C_3
REMARK    2  A    between atoms: C_3  and  C_4
REMARK    3  A    between atoms: C_4  and  N_5
REMARK    4  A    between atoms: N_8  and  C_9
REMARK    5  A    between atoms: C_9  and  C_10
REMARK    6  A    between atoms: C_14  and  C_15
REMARK    7  A    between atoms: C_15  and  C_16
REMARK    8  A    between atoms: C_19  and  C_21
REMARK    9  A    between atoms: C_24  and  N_27
REMARK   10  A    between atoms: C_31  and  C_32
REMARK                            x       y       z     vdW  Elec       q    Type
REMARK                         _______ _______ _______ _____ _____    ______ ____
ROOT
ATOM     10  C   UNL     1       0.127   0.609  23.660  0.00  0.00    +0.037 C 
ATOM     11  C   UNL     1       0.203  -0.205  23.765  0.00  0.00    -0.034 C 
ATOM     12  C   UNL     1      -0.312  -0.606  24.270  0.00  0.00    -0.048 C 
ATOM     13  C   UNL     1      -0.236  -1.421  24.375  0.00  0.00    +0.026 C 
ATOM     14  C   UNL     1      -0.903  -0.192  24.670  0.00  0.00    +0.027 C 
ATOM     30  C   UNL     1      -0.979   0.623  24.565  0.00  0.00    +0.005 C 
ATOM     31  C   UNL     1      -0.464   1.024  24.061  0.00  0.00    +0.006 C 
ENDROOT
BRANCH  31  32
ATOM     32  C   UNL     1      -0.540   1.838  23.956  0.00  0.00    +0.000 C 
ATOM     33  C   UNL     1      -0.940   2.134  23.297  0.00  0.00    +0.000 C 
ATOM     34  C   UNL     1      -0.216   2.357  24.509  0.00  0.00    +0.000 C 
ENDBRANCH  31  32
BRANCH  10   9
ATOM      9  C   UNL     1       0.642   1.010  23.156  0.00  0.00    +0.076 C 
BRANCH   9   8
ATOM      5  N   UNL     1       2.943   0.164  22.809  0.00  0.00    -0.268 NA
ATOM      6  C   UNL     1       2.321  -0.131  22.355  0.00  0.00    +0.090 C 
ATOM      7  C   UNL     1       1.555   0.150  22.470  0.00  0.00    +0.090 C 
ATOM      8  N   UNL     1       1.409   0.728  23.040  0.00  0.00    -0.270 NA
ATOM     35  C   UNL     1       2.030   1.025  23.495  0.00  0.00    +0.090 C 
ATOM     36  C   UNL     1       2.797   0.742  23.380  0.00  0.00    +0.090 C 
BRANCH   5   4
ATOM      4  C   UNL     1       3.709  -0.117  22.694  0.00  0.00    +0.105 C 
BRANCH   4   3
ATOM      3  C   UNL     1       4.341   0.227  23.098  0.00  0.00    +0.160 C 
BRANCH   3   2
ATOM      1  C   UNL     1       5.698   0.054  23.511  0.00  0.00    +0.174 C 
ATOM      2  O   UNL     1       5.114  -0.006  22.931  0.00  0.00    -0.350 OA
ENDBRANCH   3   2
ENDBRANCH   4   3
ENDBRANCH   5   4
ENDBRANCH   9   8
ENDBRANCH  10   9
BRANCH  14  15
ATOM     15  C   UNL     1      -1.417  -0.592  25.175  0.00  0.00    +0.091 C 
BRANCH  15  16
ATOM     16  C   UNL     1      -2.234  -0.519  25.075  0.00  0.00    +0.227 A 
ATOM     17  N   UNL     1      -2.750  -1.121  24.852  0.00  0.00    -0.111 NA
ATOM     18  N   UNL     1      -3.512  -0.805  24.819  0.00  0.00    -0.107 NA
ATOM     19  C   UNL     1      -3.465  -0.007  25.022  0.00  0.00    +0.250 A 
ATOM     20  O   UNL     1      -2.675   0.170  25.180  0.00  0.00    -0.420 OA
BRANCH  19  21
ATOM     21  C   UNL     1      -4.098   0.522  25.060  0.00  0.00    +0.055 A 
ATOM     22  C   UNL     1      -4.731   0.370  25.566  0.00  0.00    +0.006 A 
ATOM     23  C   UNL     1      -5.364   0.899  25.605  0.00  0.00    +0.015 A 
ATOM     24  C   UNL     1      -5.363   1.578  25.136  0.00  0.00    +0.048 A 
ATOM     25  C   UNL     1      -4.730   1.729  24.630  0.00  0.00    +0.015 A 
ATOM     26  C   UNL     1      -4.096   1.200  24.592  0.00  0.00    +0.006 A 
BRANCH  24  27
ATOM     27  N   UNL     1      -5.996   2.107  25.174  0.00  0.00    -0.304 N 
ATOM     28  C   UNL     1      -5.900   2.839  25.542  0.00  0.00    +0.112 C 
ATOM     29  C   UNL     1      -6.723   1.903  24.844  0.00  0.00    +0.112 C 
ENDBRANCH  24  27
ENDBRANCH  19  21
ENDBRANCH  15  16
ENDBRANCH  14  15
TORSDOF 10
ENDMDL
MODEL 8
REMARK VINA RESULT:      -8.1      1.292      2.029
REMARK  Name = 
REMARK  10 active torsions:
REMARK  status: ('A' for Active; 'I' for Inactive)
REMARK    1  A    between atoms: O_2  and  C_3
REMARK    2  A    between atoms: C_3  and  C_4
REMARK    3  A    between atoms: C_4  and  N_5
REMARK    4  A    between atoms: N_8  and  C_9
REMARK    5  A    between atoms: C_9  and  C_10
REMARK    6  A    between atoms: C_14  and  C_15
REMARK    7  A    between atoms: C_15  and  C_16
REMARK    8  A    between atoms: C_19  and  C_21
REMARK    9  A    between atoms: C_24  and  N_27
REMARK   10  A    between atoms: C_31  and  C_32
REMARK                            x       y       z     vdW  Elec       q    Type
REMARK                         _______ _______ _______ _____ _____    ______ ____
ROOT
ATOM     10  C   UNL     1      -3.217   3.420  24.326  0.00  0.00    +0.037 C 
ATOM     11  C   UNL     1      -3.457   3.398  25.115  0.00  0.00    -0.034 C 
ATOM     12  C   UNL     1      -4.142   2.990  25.327  0.00  0.00    -0.048 C 
ATOM     13  C   UNL     1      -4.382   2.968  26.117  0.00  0.00    +0.026 C 
ATOM     14  C   UNL     1      -4.587   2.604  24.750  0.00  0.00    +0.027 C 
ATOM     30  C   UNL     1      -4.348   2.626  23.961  0.00  0.00    +0.005 C 
ATOM     31  C   UNL     1      -3.663   3.033  23.748  0.00  0.00    +0.006 C 
ENDROOT
BRANCH  31  32
ATOM     32  C   UNL     1      -3.424   3.055  22.960  0.00  0.00    +0.000 C 
ATOM     33  C   UNL     1      -3.630   3.697  22.484  0.00  0.00    +0.000 C 
ATOM     34  C   UNL     1      -2.979   2.435  22.646  0.00  0.00    +0.000 C 
ENDBRANCH  31  32
BRANCH  10   9
ATOM      9  C   UNL     1      -2.532   3.827  24.113  0.00  0.00    +0.076 C 
BRANCH   9   8
ATOM      5  N   UNL     1      -0.444   3.490  25.399  0.00  0.00    -0.268 NA
ATOM      6  C   UNL     1      -0.708   2.905  24.880  0.00  0.00    +0.090 C 
ATOM      7  C   UNL     1      -1.404   3.017  24.452  0.00  0.00    +0.090 C 
ATOM      8  N   UNL     1      -1.836   3.715  24.542  0.00  0.00    -0.270 NA
ATOM     35  C   UNL     1      -1.572   4.300  25.060  0.00  0.00    +0.090 C 
ATOM     36  C   UNL     1      -0.876   4.187  25.489  0.00  0.00    +0.090 C 
BRANCH   5   4
ATOM      4  C   UNL     1       0.252   3.378  25.827  0.00  0.00    +0.105 C 
BRANCH   4   3
ATOM      3  C   UNL     1       0.286   2.801  26.417  0.00  0.00    +0.160 C 
BRANCH   3   2
ATOM      1  C   UNL     1       0.894   2.455  27.663  0.00  0.00    +0.174 C 
ATOM      2  O   UNL     1       0.959   2.732  26.888  0.00  0.00    -0.350 OA
ENDBRANCH   3   2
ENDBRANCH   4   3
ENDBRANCH   5   4
ENDBRANCH   9   8
ENDBRANCH  10   9
BRANCH  14  15
ATOM     15  C   UNL     1      -5.272   2.196  24.962  0.00  0.00    +0.091 C 
BRANCH  15  16
ATOM     16  C   UNL     1      -5.295   1.372  24.909  0.00  0.00    +0.227 A 
ATOM     17  N   UNL     1      -5.975   0.907  24.900  0.00  0.00    -0.111 NA
ATOM     18  N   UNL     1      -5.742   0.117  24.841  0.00  0.00    -0.107 NA
ATOM     19  C   UNL     1      -4.918   0.096  24.814  0.00  0.00    +0.250 A 
ATOM     20  O   UNL     1      -4.641   0.872  24.856  0.00  0.00    -0.420 OA
BRANCH  19  21
ATOM     21  C   UNL     1      -4.452  -0.583  24.755  0.00  0.00    +0.055 A 
ATOM     22  C   UNL     1      -4.461  -1.030  24.062  0.00  0.00    +0.006 A 
ATOM     23  C   UNL     1      -3.995  -1.709  24.004  0.00  0.00    +0.015 A 
ATOM     24  C   UNL     1      -3.520  -1.939  24.639  0.00  0.00    +0.048 A 
ATOM     25  C   UNL     1      -3.512  -1.492  25.331  0.00  0.00    +0.015 A 
ATOM     26  C   UNL     1      -3.978  -0.813  25.390  0.00  0.00    +0.006 A 
BRANCH  24  27
ATOM     27  N   UNL     1      -3.054  -2.618  24.580  0.00  0.00    -0.304 N 
ATOM     28  C   UNL     1      -3.407  -3.364  24.603  0.00  0.00    +0.112 C 
ATOM     29  C   UNL     1      -2.237  -2.551  24.499  0.00  0.00    +0.112 C 
ENDBRANCH  24  27
ENDBRANCH  19  21
ENDBRANCH  15  16
ENDBRANCH  14  15
TORSDOF 10
ENDMDL
MODEL 9
REMARK VINA RESULT:      -8.0      1.878      3.923
REMARK  Name = 
REMARK  10 active torsions:
REMARK  status: ('A' for Active; 'I' for Inactive)
REMARK    1  A    between atoms: O_2  and  C_3
REMARK    2  A    between atoms: C_3  and  C_4
REMARK    3  A    between atoms: C_4  and  N_5
REMARK    4  A    between atoms: N_8  and  C_9
REMARK    5  A    between atoms: C_9  and  C_10
REMARK    6  A    between atoms: C_14  and  C_15
REMARK    7  A    between atoms: C_15  and  C_16
REMARK    8  A    between atoms: C_19  and  C_21
REMARK    9  A    between atoms: C_24  and  N_27
REMARK   10  A    between atoms: C_31  and  C_32
REMARK                            x       y       z     vdW  Elec       q    Type
REMARK                         _______ _______ _______ _____ _____    ______ ____
ROOT
ATOM     10  C   UNL     1      -0.399   1.694  24.803  0.00  0.00    +0.037 C 
ATOM     11  C   UNL     1      -0.760   1.688  24.061  0.00  0.00    -0.034 C 
ATOM     12  C   UNL     1      -1.194   2.343  23.809  0.00  0.00    -0.048 C 
ATOM     13  C   UNL     1      -1.555   2.337  23.066  0.00  0.00    +0.026 C 
ATOM     14  C   UNL     1      -1.268   3.003  24.298  0.00  0.00    +0.027 C 
ATOM     30  C   UNL     1      -0.907   3.008  25.040  0.00  0.00    +0.005 C 
ATOM     31  C   UNL     1      -0.473   2.355  25.293  0.00  0.00    +0.006 C 
ENDROOT
BRANCH  31  32
ATOM     32  C   UNL     1      -0.113   2.360  26.034  0.00  0.00    +0.000 C 
ATOM     33  C   UNL     1       0.697   2.510  26.099  0.00  0.00    +0.000 C 
ATOM     34  C   UNL     1      -0.560   2.216  26.712  0.00  0.00    +0.000 C 
ENDBRANCH  31  32
BRANCH  10   9
ATOM      9  C   UNL     1       0.035   1.040  25.056  0.00  0.00    +0.076 C 
BRANCH   9   8
ATOM      5  N   UNL     1      -0.849  -1.244  24.699  0.00  0.00    -0.268 NA
ATOM      6  C   UNL     1      -0.296  -0.929  24.174  0.00  0.00    +0.090 C 
ATOM      7  C   UNL     1      -0.002  -0.168  24.293  0.00  0.00    +0.090 C 
ATOM      8  N   UNL     1      -0.260   0.278  24.937  0.00  0.00    -0.270 NA
ATOM     35  C   UNL     1      -0.813  -0.036  25.462  0.00  0.00    +0.090 C 
ATOM     36  C   UNL     1      -1.108  -0.798  25.343  0.00  0.00    +0.090 C 
BRANCH   5   4
ATOM      4  C   UNL     1      -1.144  -2.005  24.580  0.00  0.00    +0.105 C 
BRANCH   4   3
ATOM      3  C   UNL     1      -1.959  -2.136  24.571  0.00  0.00    +0.160 C 
BRANCH   3   2
ATOM      1  C   UNL     1      -3.062  -3.021  24.365  0.00  0.00    +0.174 C 
ATOM      2  O   UNL     1      -2.260  -2.847  24.281  0.00  0.00    -0.350 OA
ENDBRANCH   3   2
ENDBRANCH   4   3
ENDBRANCH   5   4
ENDBRANCH   9   8
ENDBRANCH  10   9
BRANCH  14  15
ATOM     15  C   UNL     1      -1.702   3.657  24.046  0.00  0.00    +0.091 C 
BRANCH  15  16
ATOM     16  C   UNL     1      -2.471   3.774  24.324  0.00  0.00    +0.227 A 
ATOM     17  N   UNL     1      -2.825   4.502  24.475  0.00  0.00    -0.111 NA
ATOM     18  N   UNL     1      -3.593   4.362  24.744  0.00  0.00    -0.107 NA
ATOM     19  C   UNL     1      -3.712   3.545  24.757  0.00  0.00    +0.250 A 
ATOM     20  O   UNL     1      -3.018   3.182  24.497  0.00  0.00    -0.420 OA
BRANCH  19  21
ATOM     21  C   UNL     1      -4.404   3.160  24.990  0.00  0.00    +0.055 A 
ATOM     22  C   UNL     1      -4.733   2.577  24.508  0.00  0.00    +0.006 A 
ATOM     23  C   UNL     1      -5.425   2.192  24.741  0.00  0.00    +0.015 A 
ATOM     24  C   UNL     1      -5.787   2.392  25.456  0.00  0.00    +0.048 A 
ATOM     25  C   UNL     1      -5.458   2.974  25.936  0.00  0.00    +0.015 A 
ATOM     26  C   UNL     1      -4.766   3.359  25.704  0.00  0.00    +0.006 A 
BRANCH  24  27
ATOM     27  N   UNL     1      -6.480   2.007  25.688  0.00  0.00    -0.304 N 
ATOM     28  C   UNL     1      -6.996   1.707  25.119  0.00  0.00    +0.112 C 
ATOM     29  C   UNL     1      -6.655   1.922  26.490  0.00  0.00    +0.112 C 
ENDBRANCH  24  27
ENDBRANCH  19  21
ENDBRANCH  15  16
ENDBRANCH  14  15
TORSDOF 10
ENDMDL
MODEL 10
REMARK VINA RESULT:      -7.9      1.780      5.127
REMARK  Name = 
REMARK  10 active torsions:
REMARK  status: ('A' for Active; 'I' for Inactive)
REMARK    1  A    between atoms: O_2  and  C_3
REMARK    2  A    between atoms: C_3  and  C_4
REMARK    3  A    between atoms: C_4  and  N_5
REMARK    4  A    between atoms: N_8  and  C_9
REMARK    5  A    between atoms: C_9  and  C_10
REMARK    6  A    between atoms: C_14  and  C_15
REMARK    7  A    between atoms: C_15  and  C_16
REMARK    8  A    between atoms: C_19  and  C_21
REMARK    9  A    between atoms: C_24  and  N_27
REMARK   10  A    between atoms: C_31  and  C_32
REMARK                            x       y       z     vdW  Elec       q    Type
REMARK                         _______ _______ _______ _____ _____    ______ ____
ROOT
ATOM     10  C   UNL     1      -0.247   0.501  24.660  0.00  0.00    +0.037 C 
ATOM     11  C   UNL     1      -0.445   0.591  25.456  0.00  0.00    -0.034 C 
ATOM     12  C   UNL     1      -0.463   1.344  25.793  0.00  0.00    -0.048 C 
ATOM     13  C   UNL     1      -0.660   1.435  26.590  0.00  0.00    +0.026 C 
ATOM     14  C   UNL     1      -0.283   2.006  25.335  0.00  0.00    +0.027 C 
ATOM     30  C   UNL     1      -0.085   1.915  24.539  0.00  0.00    +0.005 C 
ATOM     31  C   UNL     1      -0.067   1.163  24.201  0.00  0.00    +0.006 C 
ENDROOT
BRANCH  31  32
ATOM     32  C   UNL     1       0.130   1.073  23.406  0.00  0.00    +0.000 C 
ATOM     33  C   UNL     1       0.885   0.814  23.195  0.00  0.00    +0.000 C 
ATOM     34  C   UNL     1      -0.426   1.240  22.821  0.00  0.00    +0.000 C 
ENDBRANCH  31  32
BRANCH  10   9
ATOM      9  C   UNL     1      -0.229  -0.252  24.322  0.00  0.00    +0.076 C 
BRANCH   9   8
ATOM      5  N   UNL     1      -2.022  -1.880  24.835  0.00  0.00    -0.268 NA
ATOM      6  C   UNL     1      -2.198  -1.191  24.417  0.00  0.00    +0.090 C 
ATOM      7  C   UNL     1      -1.601  -0.648  24.246  0.00  0.00    +0.090 C 
ATOM      8  N   UNL     1      -0.827  -0.795  24.493  0.00  0.00    -0.270 NA
ATOM     35  C   UNL     1      -0.651  -1.484  24.911  0.00  0.00    +0.090 C 
ATOM     36  C   UNL     1      -1.249  -2.027  25.082  0.00  0.00    +0.090 C 
BRANCH   5   4
ATOM      4  C   UNL     1      -2.619  -2.423  25.006  0.00  0.00    +0.105 C 
BRANCH   4   3
ATOM      3  C   UNL     1      -3.331  -2.398  24.590  0.00  0.00    +0.160 C 
BRANCH   3   2
ATOM      1  C   UNL     1      -4.375  -3.100  23.911  0.00  0.00    +0.174 C 
ATOM      2  O   UNL     1      -3.754  -3.093  24.454  0.00  0.00    -0.350 OA
ENDBRANCH   3   2
ENDBRANCH   4   3
ENDBRANCH   5   4
ENDBRANCH   9   8
ENDBRANCH  10   9
BRANCH  14  15
ATOM     15  C   UNL     1      -0.301   2.758  25.672  0.00  0.00    +0.091 C 
BRANCH  15  16
ATOM     16  C   UNL     1      -0.948   3.254  25.542  0.00  0.00    +0.227 A 
ATOM     17  N   UNL     1      -0.914   4.041  25.300  0.00  0.00    -0.111 NA
ATOM     18  N   UNL     1      -1.687   4.322  25.239  0.00  0.00    -0.107 NA
ATOM     19  C   UNL     1      -2.199   3.708  25.443  0.00  0.00    +0.250 A 
ATOM     20  O   UNL     1      -1.742   3.047  25.631  0.00  0.00    -0.420 OA
BRANCH  19  21
ATOM     21  C   UNL     1      -3.023   3.748  25.458  0.00  0.00    +0.055 A 
ATOM     22  C   UNL     1      -3.455   3.597  24.772  0.00  0.00    +0.006 A 
ATOM     23  C   UNL     1      -4.279   3.637  24.786  0.00  0.00    +0.015 A 
ATOM     24  C   UNL     1      -4.670   3.828  25.488  0.00  0.00    +0.048 A 
ATOM     25  C   UNL     1      -4.238   3.979  26.173  0.00  0.00    +0.015 A 
ATOM     26  C   UNL     1      -3.414   3.939  26.158  0.00  0.00    +0.006 A 
BRANCH  24  27
ATOM     27  N   UNL     1      -5.495   3.869  25.502  0.00  0.00    -0.304 N 
ATOM     28  C   UNL     1      -5.940   3.177  25.575  0.00  0.00    +0.112 C 
ATOM     29  C   UNL     1      -5.873   4.599  25.443  0.00  0.00    +0.112 C 
ENDBRANCH  24  27
ENDBRANCH  19  21
ENDBRANCH  15  16
ENDBRANCH  14  15
TORSDOF 10
ENDMDL
