MODEL 1
REMARK VINA RESULT:     -16.0      0.000      0.000
REMARK  Name = 
REMARK  3 active torsions:
REMARK  status: ('A' for Active; 'I' for Inactive)
REMARK    1  A    between atoms: O_2  and  C_3
REMARK    2  A    between atoms: C_6  and  C_9
REMARK    3  A    between atoms: C_19  and  C_21
REMARK                            x       y       z     vdW  Elec       q    Type
REMARK                         _______ _______ _______ _____ _____    ______ ____
ROOT
ATOM      9  C   UNL     1      -3.899  -0.029  24.516  0.00  0.00    +0.056 A 
ATOM     10  C   UNL     1      -4.608  -0.489  24.212  0.00  0.00    +0.006 A 
ATOM     11  C   UNL     1      -4.482  -1.302  24.154  0.00  0.00    +0.013 A 
ATOM     12  C   UNL     1      -3.752  -1.621  24.369  0.00  0.00    +0.041 A 
ATOM     13  C   UNL     1      -3.313  -2.427  24.421  0.00  0.00    +0.058 C 
ATOM     14  C   UNL     1      -3.406  -3.112  24.303  0.00  0.00    +0.011 C 
ATOM     15  C   UNL     1      -2.813  -2.622  24.571  0.00  0.00    +0.043 C 
ATOM     16  C   UNL     1      -1.986  -2.202  24.912  0.00  0.00    +0.096 C 
ATOM     17  N   UNL     1      -2.230  -1.404  24.926  0.00  0.00    -0.276 N 
ATOM     18  C   UNL     1      -2.507  -2.036  24.751  0.00  0.00    +0.099 C 
ATOM     19  C   UNL     1      -2.061  -0.576  25.089  0.00  0.00    +0.249 C 
ATOM     20  O   UNL     1      -1.254  -0.407  25.391  0.00  0.00    -0.270 OA
ATOM     27  C   UNL     1      -3.263  -1.776  24.520  0.00  0.00    +0.110 C 
ATOM     28  N   UNL     1      -3.149  -1.127  24.641  0.00  0.00    -0.299 N 
ATOM     29  C   UNL     1      -3.276  -0.314  24.698  0.00  0.00    +0.261 A 
ATOM     30  O   UNL     1      -2.473   0.229  25.046  0.00  0.00    -0.267 OA
ENDROOT
BRANCH   9   6
ATOM      3  C   UNL     1      -4.432   2.410  24.889  0.00  0.00    +0.139 A 
ATOM      4  C   UNL     1      -5.066   1.894  24.783  0.00  0.00    +0.037 A 
ATOM      5  C   UNL     1      -4.926   1.090  24.658  0.00  0.00    +0.003 A 
ATOM      6  C   UNL     1      -3.813   0.717  24.640  0.00  0.00    +0.005 A 
ATOM      7  C   UNL     1      -3.745   1.379  24.749  0.00  0.00    +0.003 A 
ATOM      8  C   UNL     1      -3.658   2.124  24.872  0.00  0.00    +0.037 A 
BRANCH   3   2
ATOM      1  C   UNL     1      -4.392   3.775  25.671  0.00  0.00    +0.252 C 
ATOM      2  O   UNL     1      -4.604   3.267  25.021  0.00  0.00    -0.471 OA
ENDBRANCH   3   2
ENDBRANCH   9   6
BRANCH  19  21
ATOM     21  C   UNL     1      -2.841  -0.112  24.875  0.00  0.00    +0.057 A 
ATOM     22  C   UNL     1      -2.844   0.224  24.122  0.00  0.00    +0.025 A 
ATOM     23  C   UNL     1      -3.503   0.651  23.864  0.00  0.00    +0.099 A 
ATOM     24  N   UNL     1      -4.156   0.740  24.359  0.00  0.00    -0.242 NA
ATOM     25  C   UNL     1      -4.152   0.404  25.113  0.00  0.00    +0.099 A 
ATOM     26  C   UNL     1      -3.494  -0.023  25.371  0.00  0.00    +0.025 A 
ENDBRANCH  19  21
TORSDOF 3
ENDMDL
MODEL 2
REMARK VINA RESULT:     -15.2      1.044      3.797
REMARK  Name = 
REMARK  3 active torsions:
REMARK  status: ('A' for Active; 'I' for Inactive)
REMARK    1  A    between atoms: O_2  and  C_3
REMARK    2  A    between atoms: C_6  and  C_9
REMARK    3  A    between atoms: C_19  and  C_21
REMARK                            x       y       z     vdW  Elec       q    Type
REMARK                         _______ _______ _______ _____ _____    ______ ____
ROOT
ATOM      9  C   UNL     1      -4.131   0.842  24.721  0.00  0.00    +0.056 A 
ATOM     10  C   UNL     1      -5.024   0.822  24.808  0.00  0.00    +0.006 A 
ATOM     11  C   UNL     1      -5.360   1.553  24.989  0.00  0.00    +0.013 A 
ATOM     12  C   UNL     1      -4.879   2.218  25.072  0.00  0.00    +0.041 A 
ATOM     13  C   UNL     1      -4.930   3.117  25.257  0.00  0.00    +0.058 C 
ATOM     14  C   UNL     1      -5.393   3.623  25.405  0.00  0.00    +0.011 C 
ATOM     15  C   UNL     1      -4.587   3.554  25.309  0.00  0.00    +0.043 C 
ATOM     16  C   UNL     1      -3.609   3.671  25.233  0.00  0.00    +0.096 C 
ATOM     17  N   UNL     1      -3.387   2.886  25.053  0.00  0.00    -0.276 N 
ATOM     18  C   UNL     1      -3.986   3.247  25.187  0.00  0.00    +0.099 C 
ATOM     19  C   UNL     1      -2.776   2.307  24.875  0.00  0.00    +0.249 C 
ATOM     20  O   UNL     1      -1.955   2.618  24.854  0.00  0.00    -0.270 OA
ATOM     27  C   UNL     1      -4.524   2.615  25.115  0.00  0.00    +0.110 C 
ATOM     28  N   UNL     1      -4.062   2.151  24.976  0.00  0.00    -0.299 N 
ATOM     29  C   UNL     1      -3.727   1.420  24.795  0.00  0.00    +0.261 A 
ATOM     30  O   UNL     1      -2.702   1.424  24.691  0.00  0.00    -0.267 OA
ENDROOT
BRANCH   9   6
ATOM      3  C   UNL     1      -3.168  -1.462  24.348  0.00  0.00    +0.139 A 
ATOM      4  C   UNL     1      -3.961  -1.412  24.570  0.00  0.00    +0.037 A 
ATOM      5  C   UNL     1      -4.306  -0.673  24.700  0.00  0.00    +0.003 A 
ATOM      6  C   UNL     1      -3.640   0.283  24.559  0.00  0.00    +0.005 A 
ATOM      7  C   UNL     1      -3.211  -0.217  24.417  0.00  0.00    +0.003 A 
ATOM      8  C   UNL     1      -2.720  -0.776  24.256  0.00  0.00    +0.037 A 
BRANCH   3   2
ATOM      1  C   UNL     1      -2.060  -2.574  24.443  0.00  0.00    +0.252 C 
ATOM      2  O   UNL     1      -2.819  -2.263  24.214  0.00  0.00    -0.471 OA
ENDBRANCH   3   2
ENDBRANCH   9   6
BRANCH  19  21
ATOM     21  C   UNL     1      -3.222   1.497  24.759  0.00  0.00    +0.057 A 
ATOM     22  C   UNL     1      -3.393   1.309  23.975  0.00  0.00    +0.025 A 
ATOM     23  C   UNL     1      -3.787   0.606  23.796  0.00  0.00    +0.099 A 
ATOM     24  N   UNL     1      -4.009   0.092  24.401  0.00  0.00    -0.242 NA
ATOM     25  C   UNL     1      -3.838   0.281  25.186  0.00  0.00    +0.099 A 
ATOM     26  C   UNL     1      -3.444   0.984  25.365  0.00  0.00    +0.025 A 
ENDBRANCH  19  21
TORSDOF 3
ENDMDL
MODEL 3
REMARK VINA RESULT:     -14.9      2.035      4.151
REMARK  Name = 
REMARK  3 active torsions:
REMARK  status: ('A' for Active; 'I' for Inactive)
REMARK    1  A    between atoms: O_2  and  C_3
REMARK    2  A    between atoms: C_6  and  C_9
REMARK    3  A    between atoms: C_19  and  C_21
REMARK                            x       y       z     vdW  Elec       q    Type
REMARK                         _______ _______ _______ _____ _____    ______ ____
ROOT
ATOM      9  C   UNL     1      -3.085   2.333  24.634  0.00  0.00    +0.056 A 
ATOM     10  C   UNL     1      -3.686   2.933  24.926  0.00  0.00    +0.006 A 
ATOM     11  C   UNL     1      -3.359   3.664  25.124  0.00  0.00    +0.013 A 
ATOM     12  C   UNL     1      -2.547   3.788  25.045  0.00  0.00    +0.041 A 
ATOM     13  C   UNL     1      -1.909   4.438  25.170  0.00  0.00    +0.058 C 
ATOM     14  C   UNL     1      -1.834   5.102  25.383  0.00  0.00    +0.011 C 
ATOM     15  C   UNL     1      -1.358   4.501  25.109  0.00  0.00    +0.043 C 
ATOM     16  C   UNL     1      -0.630   3.909  24.801  0.00  0.00    +0.096 C 
ATOM     17  N   UNL     1      -1.071   3.219  24.634  0.00  0.00    -0.276 N 
ATOM     18  C   UNL     1      -1.194   3.878  24.874  0.00  0.00    +0.099 C 
ATOM     19  C   UNL     1      -1.103   2.403  24.363  0.00  0.00    +0.249 C 
ATOM     20  O   UNL     1      -0.334   2.051  24.129  0.00  0.00    -0.270 OA
ATOM     27  C   UNL     1      -2.018   3.816  24.976  0.00  0.00    +0.110 C 
ATOM     28  N   UNL     1      -2.062   3.181  24.768  0.00  0.00    -0.299 N 
ATOM     29  C   UNL     1      -2.389   2.450  24.570  0.00  0.00    +0.261 A 
ATOM     30  O   UNL     1      -1.715   1.749  24.233  0.00  0.00    -0.267 OA
ENDROOT
BRANCH   9   6
ATOM      3  C   UNL     1      -4.114   0.056  24.269  0.00  0.00    +0.139 A 
ATOM      4  C   UNL     1      -4.552   0.608  24.697  0.00  0.00    +0.037 A 
ATOM      5  C   UNL     1      -4.244   1.362  24.834  0.00  0.00    +0.003 A 
ATOM      6  C   UNL     1      -3.181   1.613  24.405  0.00  0.00    +0.005 A 
ATOM      7  C   UNL     1      -3.273   0.976  24.206  0.00  0.00    +0.003 A 
ATOM      8  C   UNL     1      -3.369   0.257  23.977  0.00  0.00    +0.037 A 
BRANCH   3   2
ATOM      1  C   UNL     1      -4.092  -1.511  24.138  0.00  0.00    +0.252 C 
ATOM      2  O   UNL     1      -4.463  -0.744  24.134  0.00  0.00    -0.471 OA
ENDBRANCH   3   2
ENDBRANCH   9   6
BRANCH  19  21
ATOM     21  C   UNL     1      -2.001   2.156  24.413  0.00  0.00    +0.057 A 
ATOM     22  C   UNL     1      -2.418   2.233  23.706  0.00  0.00    +0.025 A 
ATOM     23  C   UNL     1      -3.218   2.033  23.675  0.00  0.00    +0.099 A 
ATOM     24  N   UNL     1      -3.600   1.755  24.351  0.00  0.00    -0.242 NA
ATOM     25  C   UNL     1      -3.182   1.677  25.058  0.00  0.00    +0.099 A 
ATOM     26  C   UNL     1      -2.382   1.878  25.089  0.00  0.00    +0.025 A 
ENDBRANCH  19  21
TORSDOF 3
ENDMDL
