MODEL 1
REMARK VINA RESULT:     -10.4      0.000      0.000
REMARK  Name = 
REMARK  4 active torsions:
REMARK  status: ('A' for Active; 'I' for Inactive)
REMARK    1  A    between atoms: C_5  and  C_6
REMARK    2  A    between atoms: C_6  and  N_7
REMARK    3  A    between atoms: C_12  and  O_14
REMARK    4  A    between atoms: O_14  and  C_15
REMARK                            x       y       z     vdW  Elec       q    Type
REMARK                         _______ _______ _______ _____ _____    ______ ____
ROOT
ATOM      7  N   UNL     1      -3.490   1.851  24.425  0.00  0.00    -0.261 NA
ATOM      8  C   UNL     1      -4.258   2.059  24.210  0.00  0.00    +0.105 C 
ATOM      9  C   UNL     1      -4.695   2.720  24.441  0.00  0.00    +0.160 C 
ATOM     10  O   UNL     1      -4.470   3.336  24.943  0.00  0.00    -0.348 OA
ATOM     11  C   UNL     1      -3.755   3.442  25.337  0.00  0.00    +0.187 C 
ATOM     12  C   UNL     1      -3.086   2.959  25.328  0.00  0.00    +0.211 C 
ATOM     13  C   UNL     1      -2.967   2.251  24.922  0.00  0.00    +0.119 C 
ENDROOT
BRANCH   7   6
ATOM      6  C   UNL     1      -3.205   1.149  24.098  0.00  0.00    +0.138 C 
BRANCH   6   5
ATOM      1  C   UNL     1      -3.387  -1.170  25.837  0.00  0.00    +0.072 C 
ATOM      2  C   UNL     1      -3.518  -0.642  25.217  0.00  0.00    +0.123 A 
ATOM      3  C   UNL     1      -4.057  -0.743  24.600  0.00  0.00    +0.036 A 
ATOM      4  C   UNL     1      -4.006  -0.084  24.105  0.00  0.00    +0.037 A 
ATOM      5  C   UNL     1      -3.435   0.424  24.417  0.00  0.00    +0.139 A 
ATOM     21  O   UNL     1      -3.134   0.078  25.103  0.00  0.00    -0.461 OA
ENDBRANCH   6   5
ENDBRANCH   7   6
BRANCH  12  14
ATOM     14  O   UNL     1      -2.450   3.219  25.786  0.00  0.00    -0.475 OA
BRANCH  14  15
ATOM     15  C   UNL     1      -1.921   3.773  25.481  0.00  0.00    +0.139 A 
ATOM     16  C   UNL     1      -1.206   3.523  25.153  0.00  0.00    +0.037 A 
ATOM     17  C   UNL     1      -0.676   4.077  24.847  0.00  0.00    +0.003 A 
ATOM     18  C   UNL     1      -0.862   4.882  24.871  0.00  0.00    +0.000 A 
ATOM     19  C   UNL     1      -1.576   5.130  25.199  0.00  0.00    +0.003 A 
ATOM     20  C   UNL     1      -2.105   4.577  25.504  0.00  0.00    +0.037 A 
ENDBRANCH  14  15
ENDBRANCH  12  14
TORSDOF 4
ENDMDL
MODEL 2
REMARK VINA RESULT:     -10.3      1.181      4.638
REMARK  Name = 
REMARK  4 active torsions:
REMARK  status: ('A' for Active; 'I' for Inactive)
REMARK    1  A    between atoms: C_5  and  C_6
REMARK    2  A    between atoms: C_6  and  N_7
REMARK    3  A    between atoms: C_12  and  O_14
REMARK    4  A    between atoms: O_14  and  C_15
REMARK                            x       y       z     vdW  Elec       q    Type
REMARK                         _______ _______ _______ _____ _____    ______ ____
ROOT
ATOM      7  N   UNL     1      -2.536   1.341  24.263  0.00  0.00    -0.261 NA
ATOM      8  C   UNL     1      -1.722   1.360  24.135  0.00  0.00    +0.105 C 
ATOM      9  C   UNL     1      -1.157   0.791  24.333  0.00  0.00    +0.160 C 
ATOM     10  O   UNL     1      -1.269   0.064  24.708  0.00  0.00    -0.348 OA
ATOM     11  C   UNL     1      -1.972  -0.273  24.977  0.00  0.00    +0.187 C 
ATOM     12  C   UNL     1      -2.737   0.033  24.938  0.00  0.00    +0.211 C 
ATOM     13  C   UNL     1      -2.989   0.751  24.620  0.00  0.00    +0.119 C 
ENDROOT
BRANCH   7   6
ATOM      6  C   UNL     1      -2.955   2.001  23.998  0.00  0.00    +0.138 C 
BRANCH   6   5
ATOM      1  C   UNL     1      -2.676   4.214  25.857  0.00  0.00    +0.072 C 
ATOM      2  C   UNL     1      -3.005   3.630  25.376  0.00  0.00    +0.123 A 
ATOM      3  C   UNL     1      -3.811   3.479  25.279  0.00  0.00    +0.036 A 
ATOM      4  C   UNL     1      -3.890   2.850  24.750  0.00  0.00    +0.037 A 
ATOM      5  C   UNL     1      -3.134   2.613  24.521  0.00  0.00    +0.139 A 
ATOM     21  O   UNL     1      -2.587   3.095  24.908  0.00  0.00    -0.461 OA
ENDBRANCH   6   5
ENDBRANCH   7   6
BRANCH  12  14
ATOM     14  O   UNL     1      -3.330  -0.444  25.259  0.00  0.00    -0.475 OA
BRANCH  14  15
ATOM     15  C   UNL     1      -3.549  -1.142  24.879  0.00  0.00    +0.139 A 
ATOM     16  C   UNL     1      -3.245  -1.864  25.136  0.00  0.00    +0.037 A 
ATOM     17  C   UNL     1      -3.464  -2.563  24.756  0.00  0.00    +0.003 A 
ATOM     18  C   UNL     1      -3.989  -2.539  24.119  0.00  0.00    +0.000 A 
ATOM     19  C   UNL     1      -4.293  -1.816  23.863  0.00  0.00    +0.003 A 
ATOM     20  C   UNL     1      -4.073  -1.118  24.243  0.00  0.00    +0.037 A 
ENDBRANCH  14  15
ENDBRANCH  12  14
TORSDOF 4
ENDMDL
MODEL 3
REMARK VINA RESULT:     -10.1      0.954      3.973
REMARK  Name = 
REMARK  4 active torsions:
REMARK  status: ('A' for Active; 'I' for Inactive)
REMARK    1  A    between atoms: C_5  and  C_6
REMARK    2  A    between atoms: C_6  and  N_7
REMARK    3  A    between atoms: C_12  and  O_14
REMARK    4  A    between atoms: O_14  and  C_15
REMARK                            x       y       z     vdW  Elec       q    Type
REMARK                         _______ _______ _______ _____ _____    ______ ____
ROOT
ATOM      7  N   UNL     1      -4.149   2.752  24.633  0.00  0.00    -0.261 NA
ATOM      8  C   UNL     1      -4.774   2.982  25.119  0.00  0.00    +0.105 C 
ATOM      9  C   UNL     1      -5.356   2.511  25.465  0.00  0.00    +0.160 C 
ATOM     10  O   UNL     1      -5.456   1.693  25.410  0.00  0.00    -0.348 OA
ATOM     11  C   UNL     1      -4.999   1.146  24.996  0.00  0.00    +0.187 C 
ATOM     12  C   UNL     1      -4.329   1.280  24.535  0.00  0.00    +0.211 C 
ATOM     13  C   UNL     1      -3.950   1.994  24.373  0.00  0.00    +0.119 C 
ENDROOT
BRANCH   7   6
ATOM      6  C   UNL     1      -3.656   3.360  24.372  0.00  0.00    +0.138 C 
BRANCH   6   5
ATOM      1  C   UNL     1      -0.938   3.625  25.362  0.00  0.00    +0.072 C 
ATOM      2  C   UNL     1      -1.755   3.707  25.281  0.00  0.00    +0.123 A 
ATOM      3  C   UNL     1      -2.248   4.157  25.766  0.00  0.00    +0.036 A 
ATOM      4  C   UNL     1      -3.021   4.082  25.485  0.00  0.00    +0.037 A 
ATOM      5  C   UNL     1      -3.005   3.586  24.826  0.00  0.00    +0.139 A 
ATOM     21  O   UNL     1      -2.222   3.354  24.700  0.00  0.00    -0.461 OA
ENDBRANCH   6   5
ENDBRANCH   7   6
BRANCH  12  14
ATOM     14  O   UNL     1      -3.992   0.610  24.189  0.00  0.00    -0.475 OA
BRANCH  14  15
ATOM     15  C   UNL     1      -3.619   0.046  24.660  0.00  0.00    +0.139 A 
ATOM     16  C   UNL     1      -2.816   0.121  24.836  0.00  0.00    +0.037 A 
ATOM     17  C   UNL     1      -2.443  -0.444  25.308  0.00  0.00    +0.003 A 
ATOM     18  C   UNL     1      -2.873  -1.084  25.603  0.00  0.00    +0.000 A 
ATOM     19  C   UNL     1      -3.675  -1.158  25.427  0.00  0.00    +0.003 A 
ATOM     20  C   UNL     1      -4.048  -0.594  24.956  0.00  0.00    +0.037 A 
ENDBRANCH  14  15
ENDBRANCH  12  14
TORSDOF 4
ENDMDL
MODEL 4
REMARK VINA RESULT:     -10.0      1.955      2.968
REMARK  Name = 
REMARK  4 active torsions:
REMARK  status: ('A' for Active; 'I' for Inactive)
REMARK    1  A    between atoms: C_5  and  C_6
REMARK    2  A    between atoms: C_6  and  N_7
REMARK    3  A    between atoms: C_12  and  O_14
REMARK    4  A    between atoms: O_14  and  C_15
REMARK                            x       y       z     vdW  Elec       q    Type
REMARK                         _______ _______ _______ _____ _____    ______ ____
ROOT
ATOM      7  N   UNL     1      -3.205   0.071  25.120  0.00  0.00    -0.261 NA
ATOM      8  C   UNL     1      -2.381   0.097  25.146  0.00  0.00    +0.105 C 
ATOM      9  C   UNL     1      -1.875   0.671  24.839  0.00  0.00    +0.160 C 
ATOM     10  O   UNL     1      -2.069   1.362  24.431  0.00  0.00    -0.348 OA
ATOM     11  C   UNL     1      -2.815   1.649  24.230  0.00  0.00    +0.187 C 
ATOM     12  C   UNL     1      -3.553   1.315  24.386  0.00  0.00    +0.211 C 
ATOM     13  C   UNL     1      -3.727   0.613  24.783  0.00  0.00    +0.119 C 
ENDROOT
BRANCH   7   6
ATOM      6  C   UNL     1      -3.554  -0.584  25.481  0.00  0.00    +0.138 C 
BRANCH   6   5
ATOM      1  C   UNL     1      -4.314  -2.649  23.586  0.00  0.00    +0.072 C 
ATOM      2  C   UNL     1      -3.944  -2.252  24.208  0.00  0.00    +0.123 A 
ATOM      3  C   UNL     1      -3.370  -2.567  24.711  0.00  0.00    +0.036 A 
ATOM      4  C   UNL     1      -3.154  -1.980  25.249  0.00  0.00    +0.037 A 
ATOM      5  C   UNL     1      -3.594  -1.303  25.079  0.00  0.00    +0.139 A 
ATOM     21  O   UNL     1      -4.082  -1.471  24.435  0.00  0.00    -0.461 OA
ENDBRANCH   6   5
ENDBRANCH   7   6
BRANCH  12  14
ATOM     14  O   UNL     1      -4.204   1.740  24.109  0.00  0.00    -0.475 OA
BRANCH  14  15
ATOM     15  C   UNL     1      -4.569   2.298  24.595  0.00  0.00    +0.139 A 
ATOM     16  C   UNL     1      -4.239   3.049  24.682  0.00  0.00    +0.037 A 
ATOM     17  C   UNL     1      -4.604   3.607  25.167  0.00  0.00    +0.003 A 
ATOM     18  C   UNL     1      -5.301   3.413  25.566  0.00  0.00    +0.000 A 
ATOM     19  C   UNL     1      -5.631   2.663  25.479  0.00  0.00    +0.003 A 
ATOM     20  C   UNL     1      -5.266   2.106  24.994  0.00  0.00    +0.037 A 
ENDBRANCH  14  15
ENDBRANCH  12  14
TORSDOF 4
ENDMDL
