MODEL 1
REMARK VINA RESULT:      -9.9      0.000      0.000
REMARK  Name = 
REMARK  7 active torsions:
REMARK  status: ('A' for Active; 'I' for Inactive)
REMARK    1  A    between atoms: O_2  and  C_3
REMARK    2  A    between atoms: C_3  and  C_4
REMARK    3  A    between atoms: C_4  and  N_5
REMARK    4  A    between atoms: N_5  and  C_6
REMARK    5  A    between atoms: C_9  and  C_12
REMARK    6  A    between atoms: C_15  and  C_17
REMARK    7  A    between atoms: N_21  and  C_22
REMARK                            x       y       z     vdW  Elec       q    Type
REMARK                         _______ _______ _______ _____ _____    ______ ____
ROOT
ATOM     12  C   UNL     1      -1.132   0.762  24.514  0.00  0.00    +0.205 A 
ATOM     13  N   UNL     1      -1.199   0.740  25.335  0.00  0.00    -0.056 NA
ATOM     14  O   UNL     1      -1.974   0.936  25.534  0.00  0.00    -0.336 OA
ATOM     15  C   UNL     1      -2.388   1.080  24.834  0.00  0.00    +0.251 A 
ATOM     16  N   UNL     1      -1.867   0.972  24.204  0.00  0.00    -0.190 NA
ENDROOT
BRANCH  12   9
ATOM      6  C   UNL     1       0.914   0.281  23.207  0.00  0.00    +0.148 A 
ATOM      7  C   UNL     1       0.421  -0.337  23.443  0.00  0.00    +0.036 A 
ATOM      8  C   UNL     1      -0.261  -0.176  23.879  0.00  0.00    +0.008 A 
ATOM      9  C   UNL     1      -0.450   0.601  24.078  0.00  0.00    +0.058 A 
ATOM     10  C   UNL     1       0.043   1.219  23.841  0.00  0.00    +0.103 A 
ATOM     11  N   UNL     1       0.725   1.059  23.405  0.00  0.00    -0.228 NA
BRANCH   6   5
ATOM      5  N   UNL     1       1.596   0.120  22.771  0.00  0.00    -0.218 NA
BRANCH   5   4
ATOM      4  C   UNL     1       2.316   0.457  22.992  0.00  0.00    +0.146 C 
BRANCH   4   3
ATOM      3  C   UNL     1       3.008   0.249  22.592  0.00  0.00    +0.166 C 
BRANCH   3   2
ATOM      1  C   UNL     1       4.406   0.451  22.804  0.00  0.00    +0.174 C 
ATOM      2  O   UNL     1       3.662   0.752  22.612  0.00  0.00    -0.349 OA
ENDBRANCH   3   2
ENDBRANCH   4   3
ENDBRANCH   5   4
ENDBRANCH   6   5
ENDBRANCH  12   9
BRANCH  15  17
ATOM     17  C   UNL     1      -3.182   1.294  24.776  0.00  0.00    +0.138 C 
ATOM     18  C   UNL     1      -3.477   2.063  24.749  0.00  0.00    +0.027 C 
ATOM     19  C   UNL     1      -4.299   2.019  24.691  0.00  0.00    +0.019 C 
ATOM     20  C   UNL     1      -4.512   1.223  24.683  0.00  0.00    +0.072 C 
ATOM     21  N   UNL     1      -3.823   0.774  24.736  0.00  0.00    -0.268 NA
BRANCH  21  22
ATOM     22  C   UNL     1      -3.778  -0.050  24.746  0.00  0.00    +0.061 C 
ATOM     23  C   UNL     1      -3.811  -0.472  24.037  0.00  0.00    +0.038 C 
ATOM     24  C   UNL     1      -3.767  -1.297  24.046  0.00  0.00    +0.095 C 
ATOM     25  N   UNL     1      -3.690  -1.698  24.764  0.00  0.00    -0.279 N 
ATOM     26  C   UNL     1      -3.658  -1.275  25.471  0.00  0.00    +0.095 C 
ATOM     27  C   UNL     1      -3.702  -0.451  25.462  0.00  0.00    +0.038 C 
ATOM     28  C   UNL     1      -3.646  -2.521  24.772  0.00  0.00    +0.226 C 
ATOM     29  C   UNL     1      -3.678  -2.944  24.064  0.00  0.00    +0.095 C 
ATOM     30  O   UNL     1      -3.570  -2.923  25.489  0.00  0.00    -0.275 OA
ENDBRANCH  21  22
ENDBRANCH  15  17
TORSDOF 7
ENDMDL
MODEL 2
REMARK VINA RESULT:      -9.7      2.486      4.444
REMARK  Name = 
REMARK  7 active torsions:
REMARK  status: ('A' for Active; 'I' for Inactive)
REMARK    1  A    between atoms: O_2  and  C_3
REMARK    2  A    between atoms: C_3  and  C_4
REMARK    3  A    between atoms: C_4  and  N_5
REMARK    4  A    between atoms: N_5  and  C_6
REMARK    5  A    between atoms: C_9  and  C_12
REMARK    6  A    between atoms: C_15  and  C_17
REMARK    7  A    between atoms: N_21  and  C_22
REMARK                            x       y       z     vdW  Elec       q    Type
REMARK                         _______ _______ _______ _____ _____    ______ ____
ROOT
ATOM     12  C   UNL     1      -0.955   1.836  25.494  0.00  0.00    +0.205 A 
ATOM     13  N   UNL     1      -0.754   2.114  26.244  0.00  0.00    -0.056 NA
ATOM     14  O   UNL     1      -0.766   2.938  26.223  0.00  0.00    -0.336 OA
ATOM     15  C   UNL     1      -0.974   3.170  25.458  0.00  0.00    +0.251 A 
ATOM     16  N   UNL     1      -1.091   2.489  25.009  0.00  0.00    -0.190 NA
ENDROOT
BRANCH  12   9
ATOM      6  C   UNL     1      -1.122  -0.540  24.820  0.00  0.00    +0.148 A 
ATOM      7  C   UNL     1      -1.405  -0.299  25.556  0.00  0.00    +0.036 A 
ATOM      8  C   UNL     1      -1.350   0.492  25.781  0.00  0.00    +0.008 A 
ATOM      9  C   UNL     1      -1.011   1.044  25.270  0.00  0.00    +0.058 A 
ATOM     10  C   UNL     1      -0.727   0.803  24.532  0.00  0.00    +0.103 A 
ATOM     11  N   UNL     1      -0.783   0.011  24.308  0.00  0.00    -0.228 NA
BRANCH   6   5
ATOM      5  N   UNL     1      -1.177  -1.331  24.595  0.00  0.00    -0.218 NA
BRANCH   5   4
ATOM      4  C   UNL     1      -1.882  -1.745  24.710  0.00  0.00    +0.146 C 
BRANCH   4   3
ATOM      3  C   UNL     1      -2.015  -2.452  24.305  0.00  0.00    +0.166 C 
BRANCH   3   2
ATOM      1  C   UNL     1      -3.356  -2.941  24.236  0.00  0.00    +0.174 C 
ATOM      2  O   UNL     1      -2.600  -2.972  24.566  0.00  0.00    -0.349 OA
ENDBRANCH   3   2
ENDBRANCH   4   3
ENDBRANCH   5   4
ENDBRANCH   6   5
ENDBRANCH  12   9
BRANCH  15  17
ATOM     17  C   UNL     1      -1.051   3.947  25.192  0.00  0.00    +0.138 C 
ATOM     18  C   UNL     1      -0.434   4.449  24.975  0.00  0.00    +0.027 C 
ATOM     19  C   UNL     1      -0.762   5.171  24.745  0.00  0.00    +0.019 C 
ATOM     20  C   UNL     1      -1.582   5.113  24.819  0.00  0.00    +0.072 C 
ATOM     21  N   UNL     1      -1.761   4.358  25.095  0.00  0.00    -0.268 NA
BRANCH  21  22
ATOM     22  C   UNL     1      -2.516   4.062  25.248  0.00  0.00    +0.061 C 
ATOM     23  C   UNL     1      -2.948   3.705  24.643  0.00  0.00    +0.038 C 
ATOM     24  C   UNL     1      -3.704   3.409  24.795  0.00  0.00    +0.095 C 
ATOM     25  N   UNL     1      -4.026   3.471  25.552  0.00  0.00    -0.279 N 
ATOM     26  C   UNL     1      -3.594   3.828  26.157  0.00  0.00    +0.095 C 
ATOM     27  C   UNL     1      -2.838   4.124  26.004  0.00  0.00    +0.038 C 
ATOM     28  C   UNL     1      -4.781   3.175  25.704  0.00  0.00    +0.226 C 
ATOM     29  C   UNL     1      -5.214   2.818  25.099  0.00  0.00    +0.095 C 
ATOM     30  O   UNL     1      -5.104   3.237  26.461  0.00  0.00    -0.275 OA
ENDBRANCH  21  22
ENDBRANCH  15  17
TORSDOF 7
ENDMDL
MODEL 3
REMARK VINA RESULT:      -9.3      1.097      2.619
REMARK  Name = 
REMARK  7 active torsions:
REMARK  status: ('A' for Active; 'I' for Inactive)
REMARK    1  A    between atoms: O_2  and  C_3
REMARK    2  A    between atoms: C_3  and  C_4
REMARK    3  A    between atoms: C_4  and  N_5
REMARK    4  A    between atoms: N_5  and  C_6
REMARK    5  A    between atoms: C_9  and  C_12
REMARK    6  A    between atoms: C_15  and  C_17
REMARK    7  A    between atoms: N_21  and  C_22
REMARK                            x       y       z     vdW  Elec       q    Type
REMARK                         _______ _______ _______ _____ _____    ______ ____
ROOT
ATOM     12  C   UNL     1      -0.888  -0.209  24.466  0.00  0.00    +0.205 A 
ATOM     13  N   UNL     1      -1.018  -0.036  25.262  0.00  0.00    -0.056 NA
ATOM     14  O   UNL     1      -1.769  -0.309  25.463  0.00  0.00    -0.336 OA
ATOM     15  C   UNL     1      -2.104  -0.651  24.790  0.00  0.00    +0.251 A 
ATOM     16  N   UNL     1      -1.559  -0.589  24.175  0.00  0.00    -0.190 NA
ENDROOT
BRANCH  12   9
ATOM      6  C   UNL     1       1.159   0.319  23.178  0.00  0.00    +0.148 A 
ATOM      7  C   UNL     1       0.726   0.926  23.531  0.00  0.00    +0.036 A 
ATOM      8  C   UNL     1       0.044   0.750  23.960  0.00  0.00    +0.008 A 
ATOM      9  C   UNL     1      -0.205  -0.033  24.037  0.00  0.00    +0.058 A 
ATOM     10  C   UNL     1       0.229  -0.640  23.684  0.00  0.00    +0.103 A 
ATOM     11  N   UNL     1       0.911  -0.464  23.255  0.00  0.00    -0.228 NA
BRANCH   6   5
ATOM      5  N   UNL     1       1.841   0.496  22.749  0.00  0.00    -0.218 NA
BRANCH   5   4
ATOM      4  C   UNL     1       2.573   0.524  23.129  0.00  0.00    +0.146 C 
BRANCH   4   3
ATOM      3  C   UNL     1       3.264   0.618  22.687  0.00  0.00    +0.166 C 
BRANCH   3   2
ATOM      1  C   UNL     1       4.654   0.574  23.016  0.00  0.00    +0.174 C 
ATOM      2  O   UNL     1       3.928   0.967  23.030  0.00  0.00    -0.349 OA
ENDBRANCH   3   2
ENDBRANCH   4   3
ENDBRANCH   5   4
ENDBRANCH   6   5
ENDBRANCH  12   9
BRANCH  15  17
ATOM     17  C   UNL     1      -2.853  -0.994  24.743  0.00  0.00    +0.138 C 
ATOM     18  C   UNL     1      -3.027  -1.794  24.836  0.00  0.00    +0.027 C 
ATOM     19  C   UNL     1      -3.842  -1.890  24.745  0.00  0.00    +0.019 C 
ATOM     20  C   UNL     1      -4.171  -1.149  24.596  0.00  0.00    +0.072 C 
ATOM     21  N   UNL     1      -3.561  -0.594  24.594  0.00  0.00    -0.268 NA
BRANCH  21  22
ATOM     22  C   UNL     1      -3.641   0.217  24.466  0.00  0.00    +0.061 C 
ATOM     23  C   UNL     1      -3.802   0.719  25.101  0.00  0.00    +0.038 C 
ATOM     24  C   UNL     1      -3.882   1.531  24.974  0.00  0.00    +0.095 C 
ATOM     25  N   UNL     1      -3.802   1.839  24.213  0.00  0.00    -0.279 N 
ATOM     26  C   UNL     1      -3.642   1.337  23.579  0.00  0.00    +0.095 C 
ATOM     27  C   UNL     1      -3.561   0.525  23.706  0.00  0.00    +0.038 C 
ATOM     28  C   UNL     1      -3.883   2.650  24.087  0.00  0.00    +0.226 C 
ATOM     29  C   UNL     1      -4.043   3.153  24.721  0.00  0.00    +0.095 C 
ATOM     30  O   UNL     1      -3.803   2.959  23.326  0.00  0.00    -0.275 OA
ENDBRANCH  21  22
ENDBRANCH  15  17
TORSDOF 7
ENDMDL
MODEL 4
REMARK VINA RESULT:      -8.8      2.541      2.976
REMARK  Name = 
REMARK  7 active torsions:
REMARK  status: ('A' for Active; 'I' for Inactive)
REMARK    1  A    between atoms: O_2  and  C_3
REMARK    2  A    between atoms: C_3  and  C_4
REMARK    3  A    between atoms: C_4  and  N_5
REMARK    4  A    between atoms: N_5  and  C_6
REMARK    5  A    between atoms: C_9  and  C_12
REMARK    6  A    between atoms: C_15  and  C_17
REMARK    7  A    between atoms: N_21  and  C_22
REMARK                            x       y       z     vdW  Elec       q    Type
REMARK                         _______ _______ _______ _____ _____    ______ ____
ROOT
ATOM     12  C   UNL     1      -2.224   2.032  24.874  0.00  0.00    +0.205 A 
ATOM     13  N   UNL     1      -2.293   1.874  24.067  0.00  0.00    -0.056 NA
ATOM     14  O   UNL     1      -3.093   1.774  23.895  0.00  0.00    -0.336 OA
ATOM     15  C   UNL     1      -3.519   1.870  24.596  0.00  0.00    +0.251 A 
ATOM     16  N   UNL     1      -2.981   2.029  25.200  0.00  0.00    -0.190 NA
ENDROOT
BRANCH  12   9
ATOM      6  C   UNL     1      -0.113   2.443  26.100  0.00  0.00    +0.148 A 
ATOM      7  C   UNL     1      -0.626   3.069  25.941  0.00  0.00    +0.036 A 
ATOM      8  C   UNL     1      -1.329   2.932  25.532  0.00  0.00    +0.008 A 
ATOM      9  C   UNL     1      -1.520   2.169  25.282  0.00  0.00    +0.058 A 
ATOM     10  C   UNL     1      -1.007   1.543  25.442  0.00  0.00    +0.103 A 
ATOM     11  N   UNL     1      -0.303   1.680  25.850  0.00  0.00    -0.228 NA
BRANCH   6   5
ATOM      5  N   UNL     1       0.590   2.580  26.508  0.00  0.00    -0.218 NA
BRANCH   5   4
ATOM      4  C   UNL     1       0.612   2.504  27.329  0.00  0.00    +0.146 C 
BRANCH   4   3
ATOM      3  C   UNL     1       1.306   2.681  27.741  0.00  0.00    +0.166 C 
BRANCH   3   2
ATOM      1  C   UNL     1       2.046   2.709  28.963  0.00  0.00    +0.174 C 
ATOM      2  O   UNL     1       1.367   2.498  28.543  0.00  0.00    -0.349 OA
ENDBRANCH   3   2
ENDBRANCH   4   3
ENDBRANCH   5   4
ENDBRANCH   6   5
ENDBRANCH  12   9
BRANCH  15  17
ATOM     17  C   UNL     1      -4.338   1.815  24.676  0.00  0.00    +0.138 C 
ATOM     18  C   UNL     1      -4.869   2.446  24.678  0.00  0.00    +0.027 C 
ATOM     19  C   UNL     1      -5.629   2.139  24.772  0.00  0.00    +0.019 C 
ATOM     20  C   UNL     1      -5.568   1.318  24.827  0.00  0.00    +0.072 C 
ATOM     21  N   UNL     1      -4.771   1.117  24.768  0.00  0.00    -0.268 NA
BRANCH  21  22
ATOM     22  C   UNL     1      -4.458   0.354  24.795  0.00  0.00    +0.061 C 
ATOM     23  C   UNL     1      -4.356  -0.074  24.097  0.00  0.00    +0.038 C 
ATOM     24  C   UNL     1      -4.043  -0.837  24.124  0.00  0.00    +0.095 C 
ATOM     25  N   UNL     1      -3.833  -1.172  24.849  0.00  0.00    -0.279 N 
ATOM     26  C   UNL     1      -3.936  -0.744  25.546  0.00  0.00    +0.095 C 
ATOM     27  C   UNL     1      -4.248   0.020  25.519  0.00  0.00    +0.038 C 
ATOM     28  C   UNL     1      -3.521  -1.935  24.875  0.00  0.00    +0.226 C 
ATOM     29  C   UNL     1      -3.419  -2.364  24.177  0.00  0.00    +0.095 C 
ATOM     30  O   UNL     1      -3.311  -2.270  25.599  0.00  0.00    -0.275 OA
ENDBRANCH  21  22
ENDBRANCH  15  17
TORSDOF 7
ENDMDL
MODEL 5
REMARK VINA RESULT:      -8.6      1.403      3.143
REMARK  Name = 
REMARK  7 active torsions:
REMARK  status: ('A' for Active; 'I' for Inactive)
REMARK    1  A    between atoms: O_2  and  C_3
REMARK    2  A    between atoms: C_3  and  C_4
REMARK    3  A    between atoms: C_4  and  N_5
REMARK    4  A    between atoms: N_5  and  C_6
REMARK    5  A    between atoms: C_9  and  C_12
REMARK    6  A    between atoms: C_15  and  C_17
REMARK    7  A    between atoms: N_21  and  C_22
REMARK                            x       y       z     vdW  Elec       q    Type
REMARK                         _______ _______ _______ _____ _____    ______ ____
ROOT
ATOM     12  C   UNL     1      -1.456   0.443  24.585  0.00  0.00    +0.205 A 
ATOM     13  N   UNL     1      -1.549   0.430  25.404  0.00  0.00    -0.056 NA
ATOM     14  O   UNL     1      -2.331   0.626  25.576  0.00  0.00    -0.336 OA
ATOM     15  C   UNL     1      -2.723   0.759  24.861  0.00  0.00    +0.251 A 
ATOM     16  N   UNL     1      -2.181   0.646  24.250  0.00  0.00    -0.190 NA
ENDROOT
BRANCH  12   9
ATOM      6  C   UNL     1       0.633  -0.045  23.350  0.00  0.00    +0.148 A 
ATOM      7  C   UNL     1       0.219  -0.656  23.717  0.00  0.00    +0.036 A 
ATOM      8  C   UNL     1      -0.477  -0.494  24.129  0.00  0.00    +0.008 A 
ATOM      9  C   UNL     1      -0.760   0.280  24.173  0.00  0.00    +0.058 A 
ATOM     10  C   UNL     1      -0.345   0.892  23.806  0.00  0.00    +0.103 A 
ATOM     11  N   UNL     1       0.352   0.730  23.394  0.00  0.00    -0.228 NA
BRANCH   6   5
ATOM      5  N   UNL     1       1.329  -0.207  22.939  0.00  0.00    -0.218 NA
BRANCH   5   4
ATOM      4  C   UNL     1       1.943   0.343  22.932  0.00  0.00    +0.146 C 
BRANCH   4   3
ATOM      3  C   UNL     1       2.686   0.130  22.641  0.00  0.00    +0.166 C 
BRANCH   3   2
ATOM      1  C   UNL     1       4.061   0.511  22.710  0.00  0.00    +0.174 C 
ATOM      2  O   UNL     1       3.274   0.701  22.552  0.00  0.00    -0.349 OA
ENDBRANCH   3   2
ENDBRANCH   4   3
ENDBRANCH   5   4
ENDBRANCH   6   5
ENDBRANCH  12   9
BRANCH  15  17
ATOM     17  C   UNL     1      -3.516   0.969  24.775  0.00  0.00    +0.138 C 
ATOM     18  C   UNL     1      -4.145   0.450  24.654  0.00  0.00    +0.027 C 
ATOM     19  C   UNL     1      -4.837   0.897  24.599  0.00  0.00    +0.019 C 
ATOM     20  C   UNL     1      -4.634   1.691  24.688  0.00  0.00    +0.072 C 
ATOM     21  N   UNL     1      -3.819   1.737  24.796  0.00  0.00    -0.268 NA
BRANCH  21  22
ATOM     22  C   UNL     1      -3.381   2.428  24.906  0.00  0.00    +0.061 C 
ATOM     23  C   UNL     1      -3.085   2.835  24.253  0.00  0.00    +0.038 C 
ATOM     24  C   UNL     1      -2.646   3.526  24.362  0.00  0.00    +0.095 C 
ATOM     25  N   UNL     1      -2.505   3.809  25.125  0.00  0.00    -0.279 N 
ATOM     26  C   UNL     1      -2.801   3.401  25.777  0.00  0.00    +0.095 C 
ATOM     27  C   UNL     1      -3.239   2.710  25.668  0.00  0.00    +0.038 C 
ATOM     28  C   UNL     1      -2.067   4.499  25.234  0.00  0.00    +0.226 C 
ATOM     29  C   UNL     1      -1.770   4.907  24.581  0.00  0.00    +0.095 C 
ATOM     30  O   UNL     1      -1.924   4.782  25.996  0.00  0.00    -0.275 OA
ENDBRANCH  21  22
ENDBRANCH  15  17
TORSDOF 7
ENDMDL
MODEL 6
REMARK VINA RESULT:      -8.4      2.119      5.081
REMARK  Name = 
REMARK  7 active torsions:
REMARK  status: ('A' for Active; 'I' for Inactive)
REMARK    1  A    between atoms: O_2  and  C_3
REMARK    2  A    between atoms: C_3  and  C_4
REMARK    3  A    between atoms: C_4  and  N_5
REMARK    4  A    between atoms: N_5  and  C_6
REMARK    5  A    between atoms: C_9  and  C_12
REMARK    6  A    between atoms: C_15  and  C_17
REMARK    7  A    between atoms: N_21  and  C_22
REMARK                            x       y       z     vdW  Elec       q    Type
REMARK                         _______ _______ _______ _____ _____    ______ ____
ROOT
ATOM     12  C   UNL     1      -3.776   1.899  24.390  0.00  0.00    +0.205 A 
ATOM     13  N   UNL     1      -3.841   2.477  23.806  0.00  0.00    -0.056 NA
ATOM     14  O   UNL     1      -3.632   3.202  24.138  0.00  0.00    -0.336 OA
ATOM     15  C   UNL     1      -3.439   3.072  24.931  0.00  0.00    +0.251 A 
ATOM     16  N   UNL     1      -3.528   2.267  25.085  0.00  0.00    -0.190 NA
ENDROOT
BRANCH  12   9
ATOM      6  C   UNL     1      -4.246  -0.515  24.110  0.00  0.00    +0.148 A 
ATOM      7  C   UNL     1      -4.637  -0.084  24.693  0.00  0.00    +0.036 A 
ATOM      8  C   UNL     1      -4.481   0.721  24.787  0.00  0.00    +0.008 A 
ATOM      9  C   UNL     1      -3.933   1.095  24.297  0.00  0.00    +0.058 A 
ATOM     10  C   UNL     1      -3.541   0.663  23.712  0.00  0.00    +0.103 A 
ATOM     11  N   UNL     1      -3.697  -0.142  23.619  0.00  0.00    -0.228 NA
BRANCH   6   5
ATOM      5  N   UNL     1      -4.402  -1.319  24.016  0.00  0.00    -0.218 NA
BRANCH   5   4
ATOM      4  C   UNL     1      -3.876  -1.880  24.315  0.00  0.00    +0.146 C 
BRANCH   4   3
ATOM      3  C   UNL     1      -3.968  -2.677  24.119  0.00  0.00    +0.166 C 
BRANCH   3   2
ATOM      1  C   UNL     1      -2.759  -3.312  24.541  0.00  0.00    +0.174 C 
ATOM      2  O   UNL     1      -3.583  -3.256  24.562  0.00  0.00    -0.349 OA
ENDBRANCH   3   2
ENDBRANCH   4   3
ENDBRANCH   5   4
ENDBRANCH   6   5
ENDBRANCH  12   9
BRANCH  15  17
ATOM     17  C   UNL     1      -3.199   3.647  25.471  0.00  0.00    +0.138 C 
ATOM     18  C   UNL     1      -3.694   4.154  25.893  0.00  0.00    +0.027 C 
ATOM     19  C   UNL     1      -3.220   4.636  26.366  0.00  0.00    +0.019 C 
ATOM     20  C   UNL     1      -2.433   4.428  26.236  0.00  0.00    +0.072 C 
ATOM     21  N   UNL     1      -2.419   3.817  25.683  0.00  0.00    -0.268 NA
BRANCH  21  22
ATOM     22  C   UNL     1      -1.745   3.441  25.392  0.00  0.00    +0.061 C 
ATOM     23  C   UNL     1      -1.434   2.788  25.790  0.00  0.00    +0.038 C 
ATOM     24  C   UNL     1      -0.760   2.411  25.500  0.00  0.00    +0.095 C 
ATOM     25  N   UNL     1      -0.397   2.686  24.811  0.00  0.00    -0.279 N 
ATOM     26  C   UNL     1      -0.708   3.338  24.414  0.00  0.00    +0.095 C 
ATOM     27  C   UNL     1      -1.382   3.716  24.705  0.00  0.00    +0.038 C 
ATOM     28  C   UNL     1       0.277   2.309  24.522  0.00  0.00    +0.226 C 
ATOM     29  C   UNL     1       0.588   1.656  24.919  0.00  0.00    +0.095 C 
ATOM     30  O   UNL     1       0.640   2.584  23.834  0.00  0.00    -0.275 OA
ENDBRANCH  21  22
ENDBRANCH  15  17
TORSDOF 7
ENDMDL
MODEL 7
REMARK VINA RESULT:      -8.1      2.750      4.560
REMARK  Name = 
REMARK  7 active torsions:
REMARK  status: ('A' for Active; 'I' for Inactive)
REMARK    1  A    between atoms: O_2  and  C_3
REMARK    2  A    between atoms: C_3  and  C_4
REMARK    3  A    between atoms: C_4  and  N_5
REMARK    4  A    between atoms: N_5  and  C_6
REMARK    5  A    between atoms: C_9  and  C_12
REMARK    6  A    between atoms: C_15  and  C_17
REMARK    7  A    between atoms: N_21  and  C_22
REMARK                            x       y       z     vdW  Elec       q    Type
REMARK                         _______ _______ _______ _____ _____    ______ ____
ROOT
ATOM     12  C   UNL     1      -3.835   1.132  24.302  0.00  0.00    +0.205 A 
ATOM     13  N   UNL     1      -3.935   1.581  23.618  0.00  0.00    -0.056 NA
ATOM     14  O   UNL     1      -4.325   2.278  23.824  0.00  0.00    -0.336 OA
ATOM     15  C   UNL     1      -4.467   2.259  24.637  0.00  0.00    +0.251 A 
ATOM     16  N   UNL     1      -4.164   1.552  24.932  0.00  0.00    -0.190 NA
ENDROOT
BRANCH  12   9
ATOM      6  C   UNL     1      -2.741  -1.083  24.443  0.00  0.00    +0.148 A 
ATOM      7  C   UNL     1      -3.545  -1.010  24.609  0.00  0.00    +0.036 A 
ATOM      8  C   UNL     1      -3.910  -0.271  24.562  0.00  0.00    +0.008 A 
ATOM      9  C   UNL     1      -3.471   0.394  24.349  0.00  0.00    +0.058 A 
ATOM     10  C   UNL     1      -2.665   0.319  24.183  0.00  0.00    +0.103 A 
ATOM     11  N   UNL     1      -2.301  -0.419  24.230  0.00  0.00    -0.228 NA
BRANCH   6   5
ATOM      5  N   UNL     1      -2.377  -1.822  24.490  0.00  0.00    -0.218 NA
BRANCH   5   4
ATOM      4  C   UNL     1      -1.701  -1.921  24.953  0.00  0.00    +0.146 C 
BRANCH   4   3
ATOM      3  C   UNL     1      -1.168  -2.527  24.780  0.00  0.00    +0.166 C 
BRANCH   3   2
ATOM      1  C   UNL     1       0.150  -2.514  25.332  0.00  0.00    +0.174 C 
ATOM      2  O   UNL     1      -0.632  -2.779  25.353  0.00  0.00    -0.349 OA
ENDBRANCH   3   2
ENDBRANCH   4   3
ENDBRANCH   5   4
ENDBRANCH   6   5
ENDBRANCH  12   9
BRANCH  15  17
ATOM     17  C   UNL     1      -4.845   2.846  25.076  0.00  0.00    +0.138 C 
ATOM     18  C   UNL     1      -5.650   2.875  25.255  0.00  0.00    +0.027 C 
ATOM     19  C   UNL     1      -5.786   3.556  25.703  0.00  0.00    +0.019 C 
ATOM     20  C   UNL     1      -5.066   3.946  25.799  0.00  0.00    +0.072 C 
ATOM     21  N   UNL     1      -4.484   3.509  25.412  0.00  0.00    -0.268 NA
BRANCH  21  22
ATOM     22  C   UNL     1      -3.683   3.698  25.368  0.00  0.00    +0.061 C 
ATOM     23  C   UNL     1      -3.398   4.137  24.729  0.00  0.00    +0.038 C 
ATOM     24  C   UNL     1      -2.596   4.326  24.684  0.00  0.00    +0.095 C 
ATOM     25  N   UNL     1      -2.079   4.077  25.277  0.00  0.00    -0.279 N 
ATOM     26  C   UNL     1      -2.364   3.638  25.914  0.00  0.00    +0.095 C 
ATOM     27  C   UNL     1      -3.166   3.449  25.960  0.00  0.00    +0.038 C 
ATOM     28  C   UNL     1      -1.278   4.266  25.231  0.00  0.00    +0.226 C 
ATOM     29  C   UNL     1      -0.993   4.706  24.593  0.00  0.00    +0.095 C 
ATOM     30  O   UNL     1      -0.760   4.017  25.824  0.00  0.00    -0.275 OA
ENDBRANCH  21  22
ENDBRANCH  15  17
TORSDOF 7
ENDMDL
