MODEL 1
REMARK VINA RESULT:      -9.7      0.000      0.000
REMARK  Name = 
REMARK  5 active torsions:
REMARK  status: ('A' for Active; 'I' for Inactive)
REMARK    1  A    between atoms: C_7  and  N_10
REMARK    2  A    between atoms: C_14  and  C_15
REMARK    3  A    between atoms: C_17  and  C_20
REMARK    4  A    between atoms: C_23  and  N_26
REMARK    5  A    between atoms: C_29  and  C_32
REMARK                            x       y       z     vdW  Elec       q    Type
REMARK                         _______ _______ _______ _____ _____    ______ ____
ROOT
ATOM     15  C   UNL     1      -2.712   1.239  24.878  0.00  0.00    +0.251 A 
ATOM     16  N   UNL     1      -2.116   1.182  24.310  0.00  0.00    -0.190 NA
ATOM     17  C   UNL     1      -1.403   1.049  24.702  0.00  0.00    +0.205 A 
ATOM     18  N   UNL     1      -1.558   1.024  25.512  0.00  0.00    -0.056 NA
ATOM     19  O   UNL     1      -2.366   1.141  25.620  0.00  0.00    -0.336 OA
ENDROOT
BRANCH  17  20
ATOM     20  C   UNL     1      -0.663   0.958  24.347  0.00  0.00    +0.058 A 
ATOM     21  C   UNL     1      -0.415   0.211  24.100  0.00  0.00    +0.008 A 
ATOM     22  C   UNL     1       0.325   0.119  23.745  0.00  0.00    +0.034 A 
ATOM     23  C   UNL     1       0.814   0.774  23.636  0.00  0.00    +0.132 A 
ATOM     24  N   UNL     1       0.565   1.521  23.883  0.00  0.00    -0.229 NA
ATOM     25  C   UNL     1      -0.174   1.613  24.239  0.00  0.00    +0.103 A 
BRANCH  23  26
ATOM     26  N   UNL     1       1.554   0.683  23.281  0.00  0.00    -0.293 N 
ATOM     27  C   UNL     1       2.171   1.193  23.477  0.00  0.00    +0.093 C 
ATOM     28  C   UNL     1       2.910   1.102  23.122  0.00  0.00    +0.031 C 
ATOM     29  C   UNL     1       3.031   0.500  22.571  0.00  0.00    +0.083 C 
ATOM     30  C   UNL     1       2.414  -0.010  22.374  0.00  0.00    +0.031 C 
ATOM     31  C   UNL     1       1.675   0.081  22.730  0.00  0.00    +0.093 C 
BRANCH  29  32
ATOM     32  C   UNL     1       3.771   0.409  22.215  0.00  0.00    +0.260 C 
ATOM     33  N   UNL     1       4.443   0.307  22.683  0.00  0.00    -0.088 NA
ATOM     34  O   UNL     1       3.837   0.419  21.393  0.00  0.00    -0.272 OA
ENDBRANCH  29  32
ENDBRANCH  23  26
ENDBRANCH  17  20
BRANCH  15  14
ATOM     10  N   UNL     1      -4.090   0.790  24.638  0.00  0.00    -0.268 NA
ATOM     11  C   UNL     1      -4.811   1.166  24.496  0.00  0.00    +0.072 C 
ATOM     12  C   UNL     1      -4.678   1.980  24.500  0.00  0.00    +0.019 C 
ATOM     13  C   UNL     1      -3.876   2.107  24.643  0.00  0.00    +0.027 C 
ATOM     14  C   UNL     1      -3.512   1.371  24.728  0.00  0.00    +0.138 C 
BRANCH  10   7
ATOM      1  C   UNL     1      -3.569  -2.918  24.117  0.00  0.00    +0.095 C 
ATOM      2  C   UNL     1      -3.606  -2.470  24.809  0.00  0.00    +0.226 C 
ATOM      3  O   UNL     1      -3.523  -2.837  25.543  0.00  0.00    -0.275 OA
ATOM      4  N   UNL     1      -3.727  -1.655  24.766  0.00  0.00    -0.279 N 
ATOM      5  C   UNL     1      -3.765  -1.207  25.458  0.00  0.00    +0.095 C 
ATOM      6  C   UNL     1      -3.886  -0.392  25.415  0.00  0.00    +0.038 C 
ATOM      7  C   UNL     1      -3.969  -0.025  24.680  0.00  0.00    +0.061 C 
ATOM      8  C   UNL     1      -3.931  -0.474  23.989  0.00  0.00    +0.038 C 
ATOM      9  C   UNL     1      -3.810  -1.289  24.032  0.00  0.00    +0.095 C 
ENDBRANCH  10   7
ENDBRANCH  15  14
TORSDOF 5
ENDMDL
MODEL 2
REMARK VINA RESULT:      -9.4      1.057      2.648
REMARK  Name = 
REMARK  5 active torsions:
REMARK  status: ('A' for Active; 'I' for Inactive)
REMARK    1  A    between atoms: C_7  and  N_10
REMARK    2  A    between atoms: C_14  and  C_15
REMARK    3  A    between atoms: C_17  and  C_20
REMARK    4  A    between atoms: C_23  and  N_26
REMARK    5  A    between atoms: C_29  and  C_32
REMARK                            x       y       z     vdW  Elec       q    Type
REMARK                         _______ _______ _______ _____ _____    ______ ____
ROOT
ATOM     15  C   UNL     1      -2.776  -0.266  24.685  0.00  0.00    +0.251 A 
ATOM     16  N   UNL     1      -2.154  -0.234  24.143  0.00  0.00    -0.190 NA
ATOM     17  C   UNL     1      -1.467  -0.035  24.554  0.00  0.00    +0.205 A 
ATOM     18  N   UNL     1      -1.664   0.054  25.350  0.00  0.00    -0.056 NA
ATOM     19  O   UNL     1      -2.471  -0.088  25.431  0.00  0.00    -0.336 OA
ENDROOT
BRANCH  17  20
ATOM     20  C   UNL     1      -0.715   0.057  24.227  0.00  0.00    +0.058 A 
ATOM     21  C   UNL     1      -0.441   0.810  24.031  0.00  0.00    +0.008 A 
ATOM     22  C   UNL     1       0.311   0.902  23.703  0.00  0.00    +0.034 A 
ATOM     23  C   UNL     1       0.788   0.242  23.572  0.00  0.00    +0.132 A 
ATOM     24  N   UNL     1       0.513  -0.511  23.768  0.00  0.00    -0.229 NA
ATOM     25  C   UNL     1      -0.239  -0.603  24.096  0.00  0.00    +0.103 A 
BRANCH  23  26
ATOM     26  N   UNL     1       1.539   0.334  23.244  0.00  0.00    -0.293 N 
ATOM     27  C   UNL     1       1.791  -0.170  22.642  0.00  0.00    +0.093 C 
ATOM     28  C   UNL     1       2.543  -0.078  22.315  0.00  0.00    +0.031 C 
ATOM     29  C   UNL     1       3.042   0.518  22.589  0.00  0.00    +0.083 C 
ATOM     30  C   UNL     1       2.791   1.023  23.192  0.00  0.00    +0.031 C 
ATOM     31  C   UNL     1       2.039   0.930  23.519  0.00  0.00    +0.093 C 
BRANCH  29  32
ATOM     32  C   UNL     1       3.794   0.611  22.262  0.00  0.00    +0.260 C 
ATOM     33  N   UNL     1       4.457   0.633  22.752  0.00  0.00    -0.088 NA
ATOM     34  O   UNL     1       3.883   0.681  21.445  0.00  0.00    -0.272 OA
ENDBRANCH  29  32
ENDBRANCH  23  26
ENDBRANCH  17  20
BRANCH  15  14
ATOM     10  N   UNL     1      -4.173   0.099  24.418  0.00  0.00    -0.268 NA
ATOM     11  C   UNL     1      -4.864  -0.319  24.249  0.00  0.00    +0.072 C 
ATOM     12  C   UNL     1      -4.679  -1.123  24.238  0.00  0.00    +0.019 C 
ATOM     13  C   UNL     1      -3.874  -1.201  24.400  0.00  0.00    +0.027 C 
ATOM     14  C   UNL     1      -3.561  -0.446  24.511  0.00  0.00    +0.138 C 
BRANCH  10   7
ATOM      1  C   UNL     1      -4.028   3.746  25.402  0.00  0.00    +0.095 C 
ATOM      2  C   UNL     1      -3.907   3.378  24.674  0.00  0.00    +0.226 C 
ATOM      3  O   UNL     1      -3.718   3.830  24.010  0.00  0.00    -0.275 OA
ATOM      4  N   UNL     1      -3.973   2.558  24.610  0.00  0.00    -0.279 N 
ATOM      5  C   UNL     1      -3.852   2.190  23.881  0.00  0.00    +0.095 C 
ATOM      6  C   UNL     1      -3.918   1.371  23.817  0.00  0.00    +0.038 C 
ATOM      7  C   UNL     1      -4.107   0.918  24.482  0.00  0.00    +0.061 C 
ATOM      8  C   UNL     1      -4.228   1.287  25.210  0.00  0.00    +0.038 C 
ATOM      9  C   UNL     1      -4.161   2.107  25.274  0.00  0.00    +0.095 C 
ENDBRANCH  10   7
ENDBRANCH  15  14
TORSDOF 5
ENDMDL
MODEL 3
REMARK VINA RESULT:      -9.3      2.957      5.209
REMARK  Name = 
REMARK  5 active torsions:
REMARK  status: ('A' for Active; 'I' for Inactive)
REMARK    1  A    between atoms: C_7  and  N_10
REMARK    2  A    between atoms: C_14  and  C_15
REMARK    3  A    between atoms: C_17  and  C_20
REMARK    4  A    between atoms: C_23  and  N_26
REMARK    5  A    between atoms: C_29  and  C_32
REMARK                            x       y       z     vdW  Elec       q    Type
REMARK                         _______ _______ _______ _____ _____    ______ ____
ROOT
ATOM     15  C   UNL     1      -1.024   3.148  25.308  0.00  0.00    +0.251 A 
ATOM     16  N   UNL     1      -1.500   2.570  24.959  0.00  0.00    -0.190 NA
ATOM     17  C   UNL     1      -1.328   1.848  25.318  0.00  0.00    +0.205 A 
ATOM     18  N   UNL     1      -0.747   1.978  25.888  0.00  0.00    -0.056 NA
ATOM     19  O   UNL     1      -0.560   2.781  25.882  0.00  0.00    -0.336 OA
ENDROOT
BRANCH  17  20
ATOM     20  C   UNL     1      -1.676   1.121  25.138  0.00  0.00    +0.058 A 
ATOM     21  C   UNL     1      -2.012   0.665  25.738  0.00  0.00    +0.008 A 
ATOM     22  C   UNL     1      -2.360  -0.061  25.558  0.00  0.00    +0.034 A 
ATOM     23  C   UNL     1      -2.373  -0.330  24.778  0.00  0.00    +0.132 A 
ATOM     24  N   UNL     1      -2.037   0.126  24.178  0.00  0.00    -0.229 NA
ATOM     25  C   UNL     1      -1.689   0.852  24.358  0.00  0.00    +0.103 A 
BRANCH  23  26
ATOM     26  N   UNL     1      -2.721  -1.056  24.598  0.00  0.00    -0.293 N 
ATOM     27  C   UNL     1      -2.269  -1.746  24.615  0.00  0.00    +0.093 C 
ATOM     28  C   UNL     1      -2.618  -2.472  24.435  0.00  0.00    +0.031 C 
ATOM     29  C   UNL     1      -3.418  -2.508  24.238  0.00  0.00    +0.083 C 
ATOM     30  C   UNL     1      -3.870  -1.819  24.221  0.00  0.00    +0.031 C 
ATOM     31  C   UNL     1      -3.522  -1.092  24.401  0.00  0.00    +0.093 C 
BRANCH  29  32
ATOM     32  C   UNL     1      -3.766  -3.234  24.058  0.00  0.00    +0.260 C 
ATOM     33  N   UNL     1      -4.318  -3.286  23.447  0.00  0.00    -0.088 NA
ATOM     34  O   UNL     1      -3.563  -3.908  24.489  0.00  0.00    -0.272 OA
ENDBRANCH  29  32
ENDBRANCH  23  26
ENDBRANCH  17  20
BRANCH  15  14
ATOM     10  N   UNL     1      -1.667   4.455  25.117  0.00  0.00    -0.268 NA
ATOM     11  C   UNL     1      -1.410   5.205  24.891  0.00  0.00    +0.072 C 
ATOM     12  C   UNL     1      -0.598   5.163  24.749  0.00  0.00    +0.019 C 
ATOM     13  C   UNL     1      -0.355   4.387  24.888  0.00  0.00    +0.027 C 
ATOM     14  C   UNL     1      -1.016   3.949  25.116  0.00  0.00    +0.138 C 
BRANCH  10   7
ATOM      1  C   UNL     1      -5.300   3.423  25.299  0.00  0.00    +0.095 C 
ATOM      2  C   UNL     1      -4.765   3.622  25.894  0.00  0.00    +0.226 C 
ATOM      3  O   UNL     1      -5.004   3.614  26.684  0.00  0.00    -0.275 OA
ATOM      4  N   UNL     1      -3.990   3.830  25.700  0.00  0.00    -0.279 N 
ATOM      5  C   UNL     1      -3.455   4.030  26.296  0.00  0.00    +0.095 C 
ATOM      6  C   UNL     1      -2.681   4.238  26.102  0.00  0.00    +0.038 C 
ATOM      7  C   UNL     1      -2.441   4.247  25.311  0.00  0.00    +0.061 C 
ATOM      8  C   UNL     1      -2.977   4.047  24.717  0.00  0.00    +0.038 C 
ATOM      9  C   UNL     1      -3.752   3.839  24.911  0.00  0.00    +0.095 C 
ENDBRANCH  10   7
ENDBRANCH  15  14
TORSDOF 5
ENDMDL
