MODEL 1
REMARK VINA RESULT:      -9.8      0.000      0.000
REMARK  Name = 
REMARK  6 active torsions:
REMARK  status: ('A' for Active; 'I' for Inactive)
REMARK    1  A    between atoms: C_2  and  C_4
REMARK    2  A    between atoms: C_4  and  N_5
REMARK    3  A    between atoms: C_6  and  C_7
REMARK    4  A    between atoms: C_9  and  C_14
REMARK    5  A    between atoms: C_17  and  N_18
REMARK    6  A    between atoms: N_21  and  C_22
REMARK                            x       y       z     vdW  Elec       q    Type
REMARK                         _______ _______ _______ _____ _____    ______ ____
ROOT
ATOM      5  N   UNL     1      -2.152  -1.302  24.538  0.00  0.00    -0.274 N 
ATOM      6  C   UNL     1      -1.935  -0.518  24.671  0.00  0.00    +0.140 C 
ATOM      9  C   UNL     1      -1.150  -0.329  24.840  0.00  0.00    +0.159 C 
ATOM     10  O   UNL     1      -0.581  -0.926  24.875  0.00  0.00    -0.341 OA
ATOM     11  C   UNL     1      -0.798  -1.711  24.742  0.00  0.00    +0.227 C 
ATOM     12  C   UNL     1      -1.583  -1.899  24.574  0.00  0.00    +0.256 C 
ATOM     13  O   UNL     1      -1.800  -2.684  24.440  0.00  0.00    -0.272 OA
ENDROOT
BRANCH   9  14
ATOM     14  C   UNL     1      -0.934   0.455  24.973  0.00  0.00    +0.006 A 
ATOM     15  C   UNL     1      -0.578   0.893  24.371  0.00  0.00    -0.001 A 
ATOM     16  C   UNL     1      -0.361   1.677  24.503  0.00  0.00    +0.016 A 
ATOM     17  C   UNL     1      -0.500   2.025  25.239  0.00  0.00    +0.075 A 
ATOM     25  C   UNL     1      -0.856   1.588  25.841  0.00  0.00    +0.016 A 
ATOM     26  C   UNL     1      -1.072   0.803  25.707  0.00  0.00    -0.001 A 
BRANCH  17  18
ATOM     18  N   UNL     1      -0.283   2.811  25.372  0.00  0.00    -0.161 NA
ATOM     19  C   UNL     1      -0.787   3.422  25.143  0.00  0.00    +0.343 C 
ATOM     20  O   UNL     1      -1.508   3.248  24.781  0.00  0.00    -0.249 OA
ATOM     21  N   UNL     1      -0.570   4.206  25.276  0.00  0.00    -0.189 NA
BRANCH  21  22
ATOM     22  C   UNL     1      -1.075   4.818  25.046  0.00  0.00    +0.097 C 
ATOM     23  C   UNL     1      -1.802   4.916  25.424  0.00  0.00    +0.023 C 
ATOM     24  C   UNL     1      -0.852   5.331  24.440  0.00  0.00    +0.023 C 
ENDBRANCH  21  22
ENDBRANCH  17  18
ENDBRANCH   9  14
BRANCH   6   7
ATOM      7  C   UNL     1      -2.504   0.079  24.635  0.00  0.00    +0.205 C 
ATOM      8  O   UNL     1      -2.878   0.251  23.919  0.00  0.00    -0.218 OA
ENDBRANCH   6   7
BRANCH   5   4
ATOM      4  C   UNL     1      -2.937  -1.491  24.369  0.00  0.00    +0.094 C 
BRANCH   4   2
ATOM      1  C   UNL     1      -3.512  -1.862  25.624  0.00  0.00    +0.002 C 
ATOM      2  C   UNL     1      -3.340  -2.038  24.836  0.00  0.00    +0.020 C 
ATOM      3  C   UNL     1      -3.571  -2.763  24.515  0.00  0.00    +0.002 C 
ENDBRANCH   4   2
ENDBRANCH   5   4
TORSDOF 6
ENDMDL
MODEL 2
REMARK VINA RESULT:      -9.8      1.660      5.559
REMARK  Name = 
REMARK  6 active torsions:
REMARK  status: ('A' for Active; 'I' for Inactive)
REMARK    1  A    between atoms: C_2  and  C_4
REMARK    2  A    between atoms: C_4  and  N_5
REMARK    3  A    between atoms: C_6  and  C_7
REMARK    4  A    between atoms: C_9  and  C_14
REMARK    5  A    between atoms: C_17  and  N_18
REMARK    6  A    between atoms: N_21  and  C_22
REMARK                            x       y       z     vdW  Elec       q    Type
REMARK                         _______ _______ _______ _____ _____    ______ ____
ROOT
ATOM      5  N   UNL     1      -2.230   3.449  25.050  0.00  0.00    -0.274 N 
ATOM      6  C   UNL     1      -2.470   2.672  24.916  0.00  0.00    +0.140 C 
ATOM      9  C   UNL     1      -3.237   2.516  24.654  0.00  0.00    +0.159 C 
ATOM     10  O   UNL     1      -3.765   3.138  24.527  0.00  0.00    -0.341 OA
ATOM     11  C   UNL     1      -3.524   3.916  24.662  0.00  0.00    +0.227 C 
ATOM     12  C   UNL     1      -2.758   4.072  24.923  0.00  0.00    +0.256 C 
ATOM     13  O   UNL     1      -2.518   4.850  25.057  0.00  0.00    -0.272 OA
ENDROOT
BRANCH   9  14
ATOM     14  C   UNL     1      -3.477   1.738  24.520  0.00  0.00    +0.006 A 
ATOM     15  C   UNL     1      -3.948   1.350  25.076  0.00  0.00    -0.001 A 
ATOM     16  C   UNL     1      -4.188   0.573  24.942  0.00  0.00    +0.016 A 
ATOM     17  C   UNL     1      -3.957   0.183  24.252  0.00  0.00    +0.075 A 
ATOM     25  C   UNL     1      -3.486   0.571  23.697  0.00  0.00    +0.016 A 
ATOM     26  C   UNL     1      -3.246   1.349  23.831  0.00  0.00    -0.001 A 
BRANCH  17  18
ATOM     18  N   UNL     1      -4.197  -0.596  24.118  0.00  0.00    -0.161 NA
ATOM     19  C   UNL     1      -3.721  -1.222  24.364  0.00  0.00    +0.343 C 
ATOM     20  O   UNL     1      -3.004  -1.071  24.745  0.00  0.00    -0.249 OA
ATOM     21  N   UNL     1      -3.961  -2.000  24.230  0.00  0.00    -0.189 NA
BRANCH  21  22
ATOM     22  C   UNL     1      -3.484  -2.627  24.477  0.00  0.00    +0.097 C 
ATOM     23  C   UNL     1      -3.018  -3.030  23.929  0.00  0.00    +0.023 C 
ATOM     24  C   UNL     1      -3.474  -2.850  25.271  0.00  0.00    +0.023 C 
ENDBRANCH  21  22
ENDBRANCH  17  18
ENDBRANCH   9  14
BRANCH   6   7
ATOM      7  C   UNL     1      -1.943   2.050  25.043  0.00  0.00    +0.205 C 
ATOM      8  O   UNL     1      -1.654   1.902  25.802  0.00  0.00    -0.218 OA
ENDBRANCH   6   7
BRANCH   5   4
ATOM      4  C   UNL     1      -1.463   3.606  25.311  0.00  0.00    +0.094 C 
BRANCH   4   2
ATOM      1  C   UNL     1      -0.893   4.886  25.030  0.00  0.00    +0.002 C 
ATOM      2  C   UNL     1      -0.963   4.081  24.860  0.00  0.00    +0.020 C 
ATOM      3  C   UNL     1      -0.530   3.752  24.238  0.00  0.00    +0.002 C 
ENDBRANCH   4   2
ENDBRANCH   5   4
TORSDOF 6
ENDMDL
MODEL 3
REMARK VINA RESULT:      -9.6      1.807      2.565
REMARK  Name = 
REMARK  6 active torsions:
REMARK  status: ('A' for Active; 'I' for Inactive)
REMARK    1  A    between atoms: C_2  and  C_4
REMARK    2  A    between atoms: C_4  and  N_5
REMARK    3  A    between atoms: C_6  and  C_7
REMARK    4  A    between atoms: C_9  and  C_14
REMARK    5  A    between atoms: C_17  and  N_18
REMARK    6  A    between atoms: N_21  and  C_22
REMARK                            x       y       z     vdW  Elec       q    Type
REMARK                         _______ _______ _______ _____ _____    ______ ____
ROOT
ATOM      5  N   UNL     1      -3.254  -1.725  24.611  0.00  0.00    -0.274 N 
ATOM      6  C   UNL     1      -3.221  -0.902  24.644  0.00  0.00    +0.140 C 
ATOM      9  C   UNL     1      -3.792  -0.450  24.257  0.00  0.00    +0.159 C 
ATOM     10  O   UNL     1      -4.398  -0.822  23.837  0.00  0.00    -0.341 OA
ATOM     11  C   UNL     1      -4.431  -1.646  23.804  0.00  0.00    +0.227 C 
ATOM     12  C   UNL     1      -3.860  -2.098  24.191  0.00  0.00    +0.256 C 
ATOM     13  O   UNL     1      -3.893  -2.921  24.158  0.00  0.00    -0.272 OA
ENDROOT
BRANCH   9  14
ATOM     14  C   UNL     1      -3.759   0.373  24.290  0.00  0.00    +0.006 A 
ATOM     15  C   UNL     1      -4.221   0.783  24.837  0.00  0.00    -0.001 A 
ATOM     16  C   UNL     1      -4.188   1.607  24.870  0.00  0.00    +0.016 A 
ATOM     17  C   UNL     1      -3.693   2.021  24.356  0.00  0.00    +0.075 A 
ATOM     25  C   UNL     1      -3.231   1.611  23.808  0.00  0.00    +0.016 A 
ATOM     26  C   UNL     1      -3.265   0.787  23.776  0.00  0.00    -0.001 A 
BRANCH  17  18
ATOM     18  N   UNL     1      -3.660   2.845  24.389  0.00  0.00    -0.161 NA
ATOM     19  C   UNL     1      -3.115   3.216  24.884  0.00  0.00    +0.343 C 
ATOM     20  O   UNL     1      -2.603   2.764  25.347  0.00  0.00    -0.249 OA
ATOM     21  N   UNL     1      -3.082   4.039  24.917  0.00  0.00    -0.189 NA
BRANCH  21  22
ATOM     22  C   UNL     1      -2.537   4.411  25.413  0.00  0.00    +0.097 C 
ATOM     23  C   UNL     1      -1.813   4.666  25.111  0.00  0.00    +0.023 C 
ATOM     24  C   UNL     1      -2.716   4.526  26.210  0.00  0.00    +0.023 C 
ENDBRANCH  21  22
ENDBRANCH  17  18
ENDBRANCH   9  14
BRANCH   6   7
ATOM      7  C   UNL     1      -2.616  -0.530  25.063  0.00  0.00    +0.205 C 
ATOM      8  O   UNL     1      -2.581  -0.598  25.886  0.00  0.00    -0.218 OA
ENDBRANCH   6   7
BRANCH   5   4
ATOM      4  C   UNL     1      -2.682  -2.178  24.998  0.00  0.00    +0.094 C 
BRANCH   4   2
ATOM      1  C   UNL     1      -2.293  -3.300  24.204  0.00  0.00    +0.002 C 
ATOM      2  C   UNL     1      -2.110  -2.580  24.562  0.00  0.00    +0.020 C 
ATOM      3  C   UNL     1      -1.352  -2.261  24.484  0.00  0.00    +0.002 C 
ENDBRANCH   4   2
ENDBRANCH   5   4
TORSDOF 6
ENDMDL
MODEL 4
REMARK VINA RESULT:      -9.2      1.071      5.062
REMARK  Name = 
REMARK  6 active torsions:
REMARK  status: ('A' for Active; 'I' for Inactive)
REMARK    1  A    between atoms: C_2  and  C_4
REMARK    2  A    between atoms: C_4  and  N_5
REMARK    3  A    between atoms: C_6  and  C_7
REMARK    4  A    between atoms: C_9  and  C_14
REMARK    5  A    between atoms: C_17  and  N_18
REMARK    6  A    between atoms: N_21  and  C_22
REMARK                            x       y       z     vdW  Elec       q    Type
REMARK                         _______ _______ _______ _____ _____    ______ ____
ROOT
ATOM      5  N   UNL     1      -1.352   3.294  24.870  0.00  0.00    -0.274 N 
ATOM      6  C   UNL     1      -1.493   2.483  24.831  0.00  0.00    +0.140 C 
ATOM      9  C   UNL     1      -0.868   1.950  24.910  0.00  0.00    +0.159 C 
ATOM     10  O   UNL     1      -0.100   2.230  25.028  0.00  0.00    -0.341 OA
ATOM     11  C   UNL     1       0.041   3.043  25.067  0.00  0.00    +0.227 C 
ATOM     12  C   UNL     1      -0.583   3.574  24.988  0.00  0.00    +0.256 C 
ATOM     13  O   UNL     1      -0.442   4.387  25.026  0.00  0.00    -0.272 OA
ENDROOT
BRANCH   9  14
ATOM     14  C   UNL     1      -1.009   1.139  24.872  0.00  0.00    +0.006 A 
ATOM     15  C   UNL     1      -0.960   0.746  24.148  0.00  0.00    -0.001 A 
ATOM     16  C   UNL     1      -1.101  -0.066  24.108  0.00  0.00    +0.016 A 
ATOM     17  C   UNL     1      -1.292  -0.484  24.794  0.00  0.00    +0.075 A 
ATOM     25  C   UNL     1      -1.342  -0.091  25.517  0.00  0.00    +0.016 A 
ATOM     26  C   UNL     1      -1.200   0.721  25.556  0.00  0.00    -0.001 A 
BRANCH  17  18
ATOM     18  N   UNL     1      -1.434  -1.297  24.755  0.00  0.00    -0.161 NA
ATOM     19  C   UNL     1      -2.208  -1.579  24.716  0.00  0.00    +0.343 C 
ATOM     20  O   UNL     1      -2.841  -1.049  24.716  0.00  0.00    -0.249 OA
ATOM     21  N   UNL     1      -2.349  -2.390  24.677  0.00  0.00    -0.189 NA
BRANCH  21  22
ATOM     22  C   UNL     1      -3.124  -2.673  24.638  0.00  0.00    +0.097 C 
ATOM     23  C   UNL     1      -3.496  -2.755  23.906  0.00  0.00    +0.023 C 
ATOM     24  C   UNL     1      -3.526  -2.872  25.330  0.00  0.00    +0.023 C 
ENDBRANCH  21  22
ENDBRANCH  17  18
ENDBRANCH   9  14
BRANCH   6   7
ATOM      7  C   UNL     1      -2.260   2.204  24.714  0.00  0.00    +0.205 C 
ATOM      8  O   UNL     1      -2.653   2.361  24.005  0.00  0.00    -0.218 OA
ENDBRANCH   6   7
BRANCH   5   4
ATOM      4  C   UNL     1      -1.977   3.827  24.791  0.00  0.00    +0.094 C 
BRANCH   4   2
ATOM      1  C   UNL     1      -2.524   4.164  26.068  0.00  0.00    +0.002 C 
ATOM      2  C   UNL     1      -2.122   4.384  25.382  0.00  0.00    +0.020 C 
ATOM      3  C   UNL     1      -1.865   5.163  25.287  0.00  0.00    +0.002 C 
ENDBRANCH   4   2
ENDBRANCH   5   4
TORSDOF 6
ENDMDL
