MODEL 1
REMARK VINA RESULT:      -8.0      0.000      0.000
REMARK  Name = 
REMARK  6 active torsions:
REMARK  status: ('A' for Active; 'I' for Inactive)
REMARK    1  A    between atoms: S_2  and  N_5
REMARK    2  A    between atoms: N_5  and  C_6
REMARK    3  A    between atoms: C_6  and  C_7
REMARK    4  A    between atoms: C_10  and  N_11
REMARK    5  A    between atoms: N_11  and  C_12
REMARK    6  A    between atoms: C_12  and  C_13
REMARK                            x       y       z     vdW  Elec       q    Type
REMARK                         _______ _______ _______ _____ _____    ______ ____
ROOT
ATOM      7  C   UNL     1      -2.946   2.142  24.744  0.00  0.00    +0.166 C 
ATOM      8  O   UNL     1      -3.731   2.089  24.993  0.00  0.00    -0.350 OA
ATOM      9  C   UNL     1      -3.981   1.311  24.883  0.00  0.00    +0.162 C 
ATOM     10  C   UNL     1      -3.350   0.883  24.566  0.00  0.00    +0.135 C 
ATOM     19  C   UNL     1      -2.711   1.396  24.480  0.00  0.00    +0.199 C 
ATOM     20  O   UNL     1      -1.968   1.199  24.183  0.00  0.00    -0.219 OA
ENDROOT
BRANCH   7   6
ATOM      6  C   UNL     1      -2.478   2.821  24.757  0.00  0.00    +0.147 C 
BRANCH   6   5
ATOM      5  N   UNL     1      -2.671   3.445  25.261  0.00  0.00    -0.079 NA
BRANCH   5   2
ATOM      1  C   UNL     1      -1.709   4.784  25.320  0.00  0.00    +0.197 C 
ATOM      2  S   UNL     1      -2.189   4.115  25.290  0.00  0.00    +0.059 S 
ATOM      3  O   UNL     1      -2.548   4.403  24.605  0.00  0.00    -0.156 OA
ATOM      4  O   UNL     1      -1.831   3.828  25.976  0.00  0.00    -0.156 OA
ENDBRANCH   5   2
ENDBRANCH   6   5
ENDBRANCH   7   6
BRANCH  10  11
ATOM     11  N   UNL     1      -3.359   0.081  24.369  0.00  0.00    -0.208 NA
BRANCH  11  12
ATOM     12  C   UNL     1      -3.922  -0.420  24.705  0.00  0.00    +0.134 C 
BRANCH  12  13
ATOM     13  C   UNL     1      -3.871  -1.235  24.587  0.00  0.00    +0.077 A 
ATOM     14  N   UNL     1      -3.469  -1.706  25.132  0.00  0.00    -0.247 NA
ATOM     15  C   UNL     1      -3.418  -2.521  25.013  0.00  0.00    +0.098 A 
ATOM     16  C   UNL     1      -3.769  -2.865  24.350  0.00  0.00    +0.021 A 
ATOM     17  C   UNL     1      -4.171  -2.393  23.806  0.00  0.00    +0.003 A 
ATOM     18  C   UNL     1      -4.222  -1.578  23.924  0.00  0.00    +0.016 A 
ENDBRANCH  12  13
ENDBRANCH  11  12
ENDBRANCH  10  11
TORSDOF 6
ENDMDL
MODEL 2
REMARK VINA RESULT:      -7.5      2.105      5.226
REMARK  Name = 
REMARK  6 active torsions:
REMARK  status: ('A' for Active; 'I' for Inactive)
REMARK    1  A    between atoms: S_2  and  N_5
REMARK    2  A    between atoms: N_5  and  C_6
REMARK    3  A    between atoms: C_6  and  C_7
REMARK    4  A    between atoms: C_10  and  N_11
REMARK    5  A    between atoms: N_11  and  C_12
REMARK    6  A    between atoms: C_12  and  C_13
REMARK                            x       y       z     vdW  Elec       q    Type
REMARK                         _______ _______ _______ _____ _____    ______ ____
ROOT
ATOM      7  C   UNL     1      -2.348  -0.040  24.856  0.00  0.00    +0.166 C 
ATOM      8  O   UNL     1      -1.686  -0.012  25.347  0.00  0.00    -0.350 OA
ATOM      9  C   UNL     1      -1.452   0.776  25.414  0.00  0.00    +0.162 C 
ATOM     10  C   UNL     1      -1.971   1.235  24.964  0.00  0.00    +0.135 C 
ATOM     19  C   UNL     1      -2.524   0.731  24.620  0.00  0.00    +0.199 C 
ATOM     20  O   UNL     1      -3.145   0.956  24.126  0.00  0.00    -0.219 OA
ENDROOT
BRANCH   7   6
ATOM      6  C   UNL     1      -2.763  -0.720  24.640  0.00  0.00    +0.147 C 
BRANCH   6   5
ATOM      5  N   UNL     1      -2.621  -1.431  25.032  0.00  0.00    -0.079 NA
BRANCH   5   2
ATOM      1  C   UNL     1      -3.483  -2.780  24.631  0.00  0.00    +0.197 C 
ATOM      2  S   UNL     1      -3.052  -2.107  24.831  0.00  0.00    +0.059 S 
ATOM      3  O   UNL     1      -3.603  -1.930  25.420  0.00  0.00    -0.156 OA
ATOM      4  O   UNL     1      -2.502  -2.284  24.243  0.00  0.00    -0.156 OA
ENDBRANCH   5   2
ENDBRANCH   6   5
ENDBRANCH   7   6
BRANCH  10  11
ATOM     11  N   UNL     1      -1.940   2.055  24.876  0.00  0.00    -0.208 NA
BRANCH  11  12
ATOM     12  C   UNL     1      -1.465   2.507  25.378  0.00  0.00    +0.134 C 
BRANCH  12  13
ATOM     13  C   UNL     1      -1.463   3.329  25.313  0.00  0.00    +0.077 A 
ATOM     14  N   UNL     1      -2.110   3.765  25.582  0.00  0.00    -0.247 NA
ATOM     15  C   UNL     1      -2.108   4.588  25.517  0.00  0.00    +0.098 A 
ATOM     16  C   UNL     1      -1.459   4.974  25.183  0.00  0.00    +0.021 A 
ATOM     17  C   UNL     1      -0.813   4.537  24.914  0.00  0.00    +0.003 A 
ATOM     18  C   UNL     1      -0.815   3.715  24.979  0.00  0.00    +0.016 A 
ENDBRANCH  12  13
ENDBRANCH  11  12
ENDBRANCH  10  11
TORSDOF 6
ENDMDL
MODEL 3
REMARK VINA RESULT:      -6.6      2.947      4.032
REMARK  Name = 
REMARK  6 active torsions:
REMARK  status: ('A' for Active; 'I' for Inactive)
REMARK    1  A    between atoms: S_2  and  N_5
REMARK    2  A    between atoms: N_5  and  C_6
REMARK    3  A    between atoms: C_6  and  C_7
REMARK    4  A    between atoms: C_10  and  N_11
REMARK    5  A    between atoms: N_11  and  C_12
REMARK    6  A    between atoms: C_12  and  C_13
REMARK                            x       y       z     vdW  Elec       q    Type
REMARK                         _______ _______ _______ _____ _____    ______ ____
ROOT
ATOM      7  C   UNL     1      -1.295   1.079  23.965  0.00  0.00    +0.166 C 
ATOM      8  O   UNL     1      -1.644   1.396  23.289  0.00  0.00    -0.350 OA
ATOM      9  C   UNL     1      -2.382   1.696  23.501  0.00  0.00    +0.162 C 
ATOM     10  C   UNL     1      -2.489   1.564  24.309  0.00  0.00    +0.135 C 
ATOM     19  C   UNL     1      -1.817   1.182  24.596  0.00  0.00    +0.199 C 
ATOM     20  O   UNL     1      -1.690   0.946  25.375  0.00  0.00    -0.219 OA
ENDROOT
BRANCH   7   6
ATOM      6  C   UNL     1      -0.553   0.720  24.005  0.00  0.00    +0.147 C 
BRANCH   6   5
ATOM      5  N   UNL     1      -0.150   0.528  23.312  0.00  0.00    -0.079 NA
BRANCH   5   2
ATOM      1  C   UNL     1       1.335  -0.186  23.391  0.00  0.00    +0.197 C 
ATOM      2  S   UNL     1       0.594   0.171  23.352  0.00  0.00    +0.059 S 
ATOM      3  O   UNL     1       0.949   0.914  23.395  0.00  0.00    -0.156 OA
ATOM      4  O   UNL     1       0.239  -0.573  23.309  0.00  0.00    -0.156 OA
ENDBRANCH   5   2
ENDBRANCH   6   5
ENDBRANCH   7   6
BRANCH  10  11
ATOM     11  N   UNL     1      -3.153   1.777  24.751  0.00  0.00    -0.208 NA
BRANCH  11  12
ATOM     12  C   UNL     1      -3.820   2.083  24.373  0.00  0.00    +0.134 C 
BRANCH  12  13
ATOM     13  C   UNL     1      -4.486   2.288  24.815  0.00  0.00    +0.077 A 
ATOM     14  N   UNL     1      -4.512   3.012  25.210  0.00  0.00    -0.247 NA
ATOM     15  C   UNL     1      -5.177   3.217  25.651  0.00  0.00    +0.098 A 
ATOM     16  C   UNL     1      -5.818   2.698  25.699  0.00  0.00    +0.021 A 
ATOM     17  C   UNL     1      -5.791   1.974  25.304  0.00  0.00    +0.003 A 
ATOM     18  C   UNL     1      -5.125   1.769  24.862  0.00  0.00    +0.016 A 
ENDBRANCH  12  13
ENDBRANCH  11  12
ENDBRANCH  10  11
TORSDOF 6
ENDMDL
MODEL 4
REMARK VINA RESULT:      -6.6     17.890     19.079
REMARK  Name = 
REMARK  6 active torsions:
REMARK  status: ('A' for Active; 'I' for Inactive)
REMARK    1  A    between atoms: S_2  and  N_5
REMARK    2  A    between atoms: N_5  and  C_6
REMARK    3  A    between atoms: C_6  and  C_7
REMARK    4  A    between atoms: C_10  and  N_11
REMARK    5  A    between atoms: N_11  and  C_12
REMARK    6  A    between atoms: C_12  and  C_13
REMARK                            x       y       z     vdW  Elec       q    Type
REMARK                         _______ _______ _______ _____ _____    ______ ____
ROOT
ATOM      7  C   UNL     1      12.417   7.851  18.185  0.00  0.00    +0.166 C 
ATOM      8  O   UNL     1      12.235   7.089  18.442  0.00  0.00    -0.350 OA
ATOM      9  C   UNL     1      12.839   6.839  18.944  0.00  0.00    +0.162 C 
ATOM     10  C   UNL     1      13.395   7.446  18.997  0.00  0.00    +0.135 C 
ATOM     19  C   UNL     1      13.134   8.072  18.528  0.00  0.00    +0.199 C 
ATOM     20  O   UNL     1      13.522   8.792  18.421  0.00  0.00    -0.219 OA
ENDROOT
BRANCH   7   6
ATOM      6  C   UNL     1      11.962   8.313  17.674  0.00  0.00    +0.147 C 
BRANCH   6   5
ATOM      5  N   UNL     1      11.395   7.957  17.192  0.00  0.00    -0.079 NA
BRANCH   5   2
ATOM      1  C   UNL     1      10.486   8.880  16.170  0.00  0.00    +0.197 C 
ATOM      2  S   UNL     1      10.940   8.419  16.680  0.00  0.00    +0.059 S 
ATOM      3  O   UNL     1      11.532   8.367  16.108  0.00  0.00    -0.156 OA
ATOM      4  O   UNL     1      10.349   8.471  17.253  0.00  0.00    -0.156 OA
ENDBRANCH   5   2
ENDBRANCH   6   5
ENDBRANCH   7   6
BRANCH  10  11
ATOM     11  N   UNL     1      14.090   7.429  19.442  0.00  0.00    -0.208 NA
BRANCH  11  12
ATOM     12  C   UNL     1      14.375   6.713  19.737  0.00  0.00    +0.134 C 
BRANCH  12  13
ATOM     13  C   UNL     1      15.097   6.688  20.134  0.00  0.00    +0.077 A 
ATOM     14  N   UNL     1      15.128   6.853  20.942  0.00  0.00    -0.247 NA
ATOM     15  C   UNL     1      15.851   6.829  21.340  0.00  0.00    +0.098 A 
ATOM     16  C   UNL     1      16.542   6.640  20.930  0.00  0.00    +0.021 A 
ATOM     17  C   UNL     1      16.509   6.475  20.122  0.00  0.00    +0.003 A 
ATOM     18  C   UNL     1      15.787   6.500  19.724  0.00  0.00    +0.016 A 
ENDBRANCH  12  13
ENDBRANCH  11  12
ENDBRANCH  10  11
TORSDOF 6
ENDMDL
