MODEL 1
REMARK VINA RESULT:     -14.5      0.000      0.000
REMARK  Name = 
REMARK  4 active torsions:
REMARK  status: ('A' for Active; 'I' for Inactive)
REMARK    1  A    between atoms: C_3  and  C_4
REMARK    2  A    between atoms: C_4  and  N_5
REMARK    3  A    between atoms: C_10  and  C_11
REMARK    4  A    between atoms: C_13  and  C_16
REMARK                            x       y       z     vdW  Elec       q    Type
REMARK                         _______ _______ _______ _____ _____    ______ ____
ROOT
ATOM      5  N   UNL     1      -3.855   2.480  25.272  0.00  0.00    -0.258 NA
ATOM      6  C   UNL     1      -4.304   3.103  25.576  0.00  0.00    +0.106 C 
ATOM      7  C   UNL     1      -5.096   2.956  25.398  0.00  0.00    +0.170 C 
ATOM      8  O   UNL     1      -5.736   3.437  25.599  0.00  0.00    -0.222 OA
ATOM      9  C   UNL     1      -5.137   2.243  24.984  0.00  0.00    +0.060 C 
ATOM     10  C   UNL     1      -4.369   1.950  24.907  0.00  0.00    +0.141 C 
ENDROOT
BRANCH  10  11
ATOM     11  C   UNL     1      -4.155   1.248  24.530  0.00  0.00    +0.251 A 
ATOM     12  N   UNL     1      -4.133   0.499  24.874  0.00  0.00    -0.190 NA
ATOM     13  C   UNL     1      -3.889  -0.039  24.298  0.00  0.00    +0.203 A 
ATOM     14  N   UNL     1      -3.759   0.377  23.598  0.00  0.00    -0.056 NA
ATOM     15  O   UNL     1      -3.923   1.172  23.741  0.00  0.00    -0.336 OA
BRANCH  13  16
ATOM     16  C   UNL     1      -3.792  -0.853  24.406  0.00  0.00    +0.041 A 
ATOM     17  C   UNL     1      -4.212  -1.383  23.935  0.00  0.00    +0.032 A 
ATOM     18  C   UNL     1      -4.114  -2.197  24.043  0.00  0.00    +0.136 A 
ATOM     19  F   UNL     1      -4.534  -2.727  23.573  0.00  0.00    -0.205 F 
ATOM     20  C   UNL     1      -3.596  -2.476  24.621  0.00  0.00    +0.006 A 
ATOM     21  C   UNL     1      -3.498  -3.288  24.728  0.00  0.00    +0.033 C 
ATOM     22  C   UNL     1      -3.176  -1.944  25.092  0.00  0.00    -0.002 A 
ATOM     23  C   UNL     1      -3.274  -1.132  24.984  0.00  0.00    +0.003 A 
ENDBRANCH  13  16
ENDBRANCH  10  11
BRANCH   5   4
ATOM      4  C   UNL     1      -3.035   2.404  25.325  0.00  0.00    +0.137 C 
BRANCH   4   3
ATOM      1  C   UNL     1      -1.241   2.405  25.276  0.00  0.00    +0.132 C 
ATOM      2  N   UNL     1      -1.727   3.069  25.228  0.00  0.00    -0.312 N 
ATOM      3  C   UNL     1      -2.552   3.069  25.251  0.00  0.00    +0.137 A 
ATOM     24  N   UNL     1      -2.809   3.850  25.186  0.00  0.00    -0.230 NA
ATOM     25  C   UNL     1      -2.144   4.333  25.124  0.00  0.00    +0.098 A 
ATOM     26  C   UNL     1      -1.475   3.850  25.150  0.00  0.00    +0.079 A 
ATOM     27  C   UNL     1      -0.723   4.186  25.098  0.00  0.00    +0.019 A 
ATOM     28  C   UNL     1      -0.639   5.002  25.021  0.00  0.00    +0.002 A 
ATOM     29  C   UNL     1      -1.308   5.484  24.995  0.00  0.00    +0.002 A 
ATOM     30  C   UNL     1      -2.061   5.150  25.047  0.00  0.00    +0.021 A 
ENDBRANCH   4   3
ENDBRANCH   5   4
TORSDOF 4
ENDMDL
MODEL 2
REMARK VINA RESULT:     -14.1      2.509      6.022
REMARK  Name = 
REMARK  4 active torsions:
REMARK  status: ('A' for Active; 'I' for Inactive)
REMARK    1  A    between atoms: C_3  and  C_4
REMARK    2  A    between atoms: C_4  and  N_5
REMARK    3  A    between atoms: C_10  and  C_11
REMARK    4  A    between atoms: C_13  and  C_16
REMARK                            x       y       z     vdW  Elec       q    Type
REMARK                         _______ _______ _______ _____ _____    ______ ____
ROOT
ATOM      5  N   UNL     1      -1.128   0.130  24.530  0.00  0.00    -0.258 NA
ATOM      6  C   UNL     1      -0.782  -0.460  24.068  0.00  0.00    +0.106 C 
ATOM      7  C   UNL     1      -0.009  -0.228  23.896  0.00  0.00    +0.170 C 
ATOM      8  O   UNL     1       0.537  -0.654  23.447  0.00  0.00    -0.222 OA
ATOM      9  C   UNL     1       0.123   0.505  24.251  0.00  0.00    +0.060 C 
ATOM     10  C   UNL     1      -0.569   0.725  24.643  0.00  0.00    +0.141 C 
ENDROOT
BRANCH  10  11
ATOM     11  C   UNL     1      -0.682   1.421  25.072  0.00  0.00    +0.251 A 
ATOM     12  N   UNL     1      -0.930   2.146  24.766  0.00  0.00    -0.190 NA
ATOM     13  C   UNL     1      -0.968   2.686  25.388  0.00  0.00    +0.203 A 
ATOM     14  N   UNL     1      -0.744   2.295  26.079  0.00  0.00    -0.056 NA
ATOM     15  O   UNL     1      -0.568   1.513  25.884  0.00  0.00    -0.336 OA
BRANCH  13  16
ATOM     16  C   UNL     1      -1.191   3.479  25.329  0.00  0.00    +0.041 A 
ATOM     17  C   UNL     1      -0.670   4.031  25.008  0.00  0.00    +0.032 A 
ATOM     18  C   UNL     1      -0.894   4.824  24.949  0.00  0.00    +0.136 A 
ATOM     19  F   UNL     1      -0.373   5.376  24.627  0.00  0.00    -0.205 F 
ATOM     20  C   UNL     1      -1.638   5.062  25.211  0.00  0.00    +0.006 A 
ATOM     21  C   UNL     1      -1.862   5.854  25.152  0.00  0.00    +0.033 C 
ATOM     22  C   UNL     1      -2.160   4.509  25.532  0.00  0.00    -0.002 A 
ATOM     23  C   UNL     1      -1.936   3.717  25.591  0.00  0.00    +0.003 A 
ENDBRANCH  13  16
ENDBRANCH  10  11
BRANCH   5   4
ATOM      4  C   UNL     1      -1.898   0.123  24.826  0.00  0.00    +0.137 C 
BRANCH   4   3
ATOM      1  C   UNL     1      -3.545   0.215  24.117  0.00  0.00    +0.132 C 
ATOM      2  N   UNL     1      -3.153  -0.474  24.344  0.00  0.00    -0.312 N 
ATOM      3  C   UNL     1      -2.395  -0.516  24.670  0.00  0.00    +0.137 A 
ATOM     24  N   UNL     1      -2.223  -1.310  24.812  0.00  0.00    -0.230 NA
ATOM     25  C   UNL     1      -2.873  -1.758  24.574  0.00  0.00    +0.098 A 
ATOM     26  C   UNL     1      -3.448  -1.241  24.285  0.00  0.00    +0.079 A 
ATOM     27  C   UNL     1      -4.165  -1.537  24.006  0.00  0.00    +0.019 A 
ATOM     28  C   UNL     1      -4.309  -2.349  24.015  0.00  0.00    +0.002 A 
ATOM     29  C   UNL     1      -3.735  -2.866  24.304  0.00  0.00    +0.002 A 
ATOM     30  C   UNL     1      -3.017  -2.571  24.584  0.00  0.00    +0.021 A 
ENDBRANCH   4   3
ENDBRANCH   5   4
TORSDOF 4
ENDMDL
MODEL 3
REMARK VINA RESULT:     -13.6      1.871      5.254
REMARK  Name = 
REMARK  4 active torsions:
REMARK  status: ('A' for Active; 'I' for Inactive)
REMARK    1  A    between atoms: C_3  and  C_4
REMARK    2  A    between atoms: C_4  and  N_5
REMARK    3  A    between atoms: C_10  and  C_11
REMARK    4  A    between atoms: C_13  and  C_16
REMARK                            x       y       z     vdW  Elec       q    Type
REMARK                         _______ _______ _______ _____ _____    ______ ____
ROOT
ATOM      5  N   UNL     1      -4.422   1.097  25.011  0.00  0.00    -0.258 NA
ATOM      6  C   UNL     1      -5.142   0.814  25.300  0.00  0.00    +0.106 C 
ATOM      7  C   UNL     1      -5.688   1.432  25.269  0.00  0.00    +0.170 C 
ATOM      8  O   UNL     1      -6.479   1.393  25.505  0.00  0.00    -0.222 OA
ATOM      9  C   UNL     1      -5.307   2.096  24.962  0.00  0.00    +0.060 C 
ATOM     10  C   UNL     1      -4.524   1.888  24.803  0.00  0.00    +0.141 C 
ENDROOT
BRANCH  10  11
ATOM     11  C   UNL     1      -3.945   2.385  24.490  0.00  0.00    +0.251 A 
ATOM     12  N   UNL     1      -3.335   2.746  24.913  0.00  0.00    -0.190 NA
ATOM     13  C   UNL     1      -2.887   3.192  24.382  0.00  0.00    +0.203 A 
ATOM     14  N   UNL     1      -3.219   3.107  23.632  0.00  0.00    -0.056 NA
ATOM     15  O   UNL     1      -3.873   2.608  23.699  0.00  0.00    -0.336 OA
BRANCH  13  16
ATOM     16  C   UNL     1      -2.222   3.645  24.571  0.00  0.00    +0.041 A 
ATOM     17  C   UNL     1      -2.314   4.386  24.920  0.00  0.00    +0.032 A 
ATOM     18  C   UNL     1      -1.648   4.838  25.108  0.00  0.00    +0.136 A 
ATOM     19  F   UNL     1      -1.740   5.579  25.457  0.00  0.00    -0.205 F 
ATOM     20  C   UNL     1      -0.894   4.547  24.947  0.00  0.00    +0.006 A 
ATOM     21  C   UNL     1      -0.229   4.998  25.135  0.00  0.00    +0.033 C 
ATOM     22  C   UNL     1      -0.803   3.804  24.597  0.00  0.00    -0.002 A 
ATOM     23  C   UNL     1      -1.468   3.353  24.409  0.00  0.00    +0.003 A 
ENDBRANCH  13  16
ENDBRANCH  10  11
BRANCH   5   4
ATOM      4  C   UNL     1      -3.724   0.662  24.944  0.00  0.00    +0.137 C 
BRANCH   4   3
ATOM      1  C   UNL     1      -2.814  -0.627  25.799  0.00  0.00    +0.132 C 
ATOM      2  N   UNL     1      -3.336  -0.738  25.171  0.00  0.00    -0.312 N 
ATOM      3  C   UNL     1      -3.755  -0.145  24.777  0.00  0.00    +0.137 A 
ATOM     24  N   UNL     1      -4.208  -0.502  24.188  0.00  0.00    -0.230 NA
ATOM     25  C   UNL     1      -4.070  -1.314  24.217  0.00  0.00    +0.098 A 
ATOM     26  C   UNL     1      -3.531  -1.460  24.825  0.00  0.00    +0.079 A 
ATOM     27  C   UNL     1      -3.289  -2.233  24.984  0.00  0.00    +0.019 A 
ATOM     28  C   UNL     1      -3.584  -2.859  24.536  0.00  0.00    +0.002 A 
ATOM     29  C   UNL     1      -4.123  -2.713  23.929  0.00  0.00    +0.002 A 
ATOM     30  C   UNL     1      -4.367  -1.941  23.769  0.00  0.00    +0.021 A 
ENDBRANCH   4   3
ENDBRANCH   5   4
TORSDOF 4
ENDMDL
MODEL 4
REMARK VINA RESULT:     -13.1      1.766      2.863
REMARK  Name = 
REMARK  4 active torsions:
REMARK  status: ('A' for Active; 'I' for Inactive)
REMARK    1  A    between atoms: C_3  and  C_4
REMARK    2  A    between atoms: C_4  and  N_5
REMARK    3  A    between atoms: C_10  and  C_11
REMARK    4  A    between atoms: C_13  and  C_16
REMARK                            x       y       z     vdW  Elec       q    Type
REMARK                         _______ _______ _______ _____ _____    ______ ____
ROOT
ATOM      5  N   UNL     1      -0.638   1.557  24.886  0.00  0.00    -0.258 NA
ATOM      6  C   UNL     1       0.025   1.926  24.560  0.00  0.00    +0.106 C 
ATOM      7  C   UNL     1       0.507   1.341  24.234  0.00  0.00    +0.170 C 
ATOM      8  O   UNL     1       1.227   1.464  23.850  0.00  0.00    -0.222 OA
ATOM      9  C   UNL     1       0.143   0.611  24.359  0.00  0.00    +0.060 C 
ATOM     10  C   UNL     1      -0.564   0.745  24.762  0.00  0.00    +0.141 C 
ENDROOT
BRANCH  10  11
ATOM     11  C   UNL     1      -1.104   0.168  24.999  0.00  0.00    +0.251 A 
ATOM     12  N   UNL     1      -1.634  -0.232  24.508  0.00  0.00    -0.190 NA
ATOM     13  C   UNL     1      -2.066  -0.758  24.975  0.00  0.00    +0.203 A 
ATOM     14  N   UNL     1      -1.803  -0.684  25.753  0.00  0.00    -0.056 NA
ATOM     15  O   UNL     1      -1.208  -0.112  25.768  0.00  0.00    -0.336 OA
BRANCH  13  16
ATOM     16  C   UNL     1      -2.657  -1.269  24.708  0.00  0.00    +0.041 A 
ATOM     17  C   UNL     1      -3.392  -0.968  24.488  0.00  0.00    +0.032 A 
ATOM     18  C   UNL     1      -3.984  -1.480  24.222  0.00  0.00    +0.136 A 
ATOM     19  F   UNL     1      -4.719  -1.180  24.001  0.00  0.00    -0.205 F 
ATOM     20  C   UNL     1      -3.837  -2.290  24.176  0.00  0.00    +0.006 A 
ATOM     21  C   UNL     1      -4.428  -2.801  23.910  0.00  0.00    +0.033 C 
ATOM     22  C   UNL     1      -3.101  -2.591  24.397  0.00  0.00    -0.002 A 
ATOM     23  C   UNL     1      -2.511  -2.079  24.663  0.00  0.00    +0.003 A 
ENDBRANCH  13  16
ENDBRANCH  10  11
BRANCH   5   4
ATOM      4  C   UNL     1      -1.263   1.935  25.269  0.00  0.00    +0.137 C 
BRANCH   4   3
ATOM      1  C   UNL     1      -2.795   2.862  25.398  0.00  0.00    +0.132 C 
ATOM      2  N   UNL     1      -2.044   3.181  25.284  0.00  0.00    -0.312 N 
ATOM      3  C   UNL     1      -1.339   2.756  25.224  0.00  0.00    +0.137 A 
ATOM     24  N   UNL     1      -0.725   3.294  25.113  0.00  0.00    -0.230 NA
ATOM     25  C   UNL     1      -1.049   4.052  25.103  0.00  0.00    +0.098 A 
ATOM     26  C   UNL     1      -1.864   3.982  25.209  0.00  0.00    +0.079 A 
ATOM     27  C   UNL     1      -2.337   4.659  25.223  0.00  0.00    +0.019 A 
ATOM     28  C   UNL     1      -1.995   5.403  25.132  0.00  0.00    +0.002 A 
ATOM     29  C   UNL     1      -1.180   5.473  25.026  0.00  0.00    +0.002 A 
ATOM     30  C   UNL     1      -0.706   4.798  25.012  0.00  0.00    +0.021 A 
ENDBRANCH   4   3
ENDBRANCH   5   4
TORSDOF 4
ENDMDL
