MODEL 1
REMARK VINA RESULT:     -13.0      0.000      0.000
REMARK  Name = 
REMARK  8 active torsions:
REMARK  status: ('A' for Active; 'I' for Inactive)
REMARK    1  A    between atoms: O_2  and  C_3
REMARK    2  A    between atoms: C_6  and  C_7
REMARK    3  A    between atoms: C_7  and  C_8
REMARK    4  A    between atoms: C_8  and  N_9
REMARK    5  A    between atoms: C_8  and  C_31
REMARK    6  A    between atoms: C_10  and  C_12
REMARK    7  A    between atoms: C_14  and  N_15
REMARK    8  A    between atoms: N_18  and  C_19
REMARK                            x       y       z     vdW  Elec       q    Type
REMARK                         _______ _______ _______ _____ _____    ______ ____
ROOT
ATOM     12  C   UNL     1      -4.022   3.042  24.991  0.00  0.00    +0.033 C 
ATOM     13  C   UNL     1      -4.202   2.285  24.716  0.00  0.00    -0.002 C 
ATOM     14  C   UNL     1      -4.933   1.944  24.892  0.00  0.00    +0.152 C 
ATOM     26  C   UNL     1      -5.484   2.361  25.344  0.00  0.00    +0.206 C 
ATOM     27  O   UNL     1      -6.214   2.021  25.520  0.00  0.00    -0.218 OA
ATOM     28  C   UNL     1      -5.304   3.118  25.619  0.00  0.00    +0.189 C 
ATOM     29  O   UNL     1      -5.854   3.534  26.070  0.00  0.00    -0.220 OA
ATOM     30  C   UNL     1      -4.574   3.458  25.443  0.00  0.00    +0.066 C 
ENDROOT
BRANCH  14  15
ATOM     15  N   UNL     1      -5.113   1.189  24.618  0.00  0.00    -0.181 NA
ATOM     16  C   UNL     1      -4.584   0.568  24.741  0.00  0.00    +0.344 C 
ATOM     17  O   UNL     1      -3.875   0.705  25.140  0.00  0.00    -0.249 OA
ATOM     18  N   UNL     1      -4.764  -0.189  24.466  0.00  0.00    -0.161 NA
BRANCH  18  19
ATOM     19  C   UNL     1      -4.235  -0.809  24.590  0.00  0.00    +0.075 A 
ATOM     20  C   UNL     1      -3.978  -1.265  23.953  0.00  0.00    +0.016 A 
ATOM     21  C   UNL     1      -3.448  -1.886  24.076  0.00  0.00    -0.003 A 
ATOM     22  C   UNL     1      -3.175  -2.050  24.838  0.00  0.00    -0.022 A 
ATOM     23  C   UNL     1      -2.646  -2.671  24.961  0.00  0.00    +0.031 C 
ATOM     24  C   UNL     1      -3.433  -1.594  25.476  0.00  0.00    -0.003 A 
ATOM     25  C   UNL     1      -3.962  -0.974  25.351  0.00  0.00    +0.016 A 
ENDBRANCH  18  19
ENDBRANCH  14  15
BRANCH  12  10
ATOM      9  N   UNL     1      -2.601   3.063  25.134  0.00  0.00    -0.194 NA
ATOM     10  C   UNL     1      -3.292   3.382  24.814  0.00  0.00    +0.261 C 
ATOM     11  O   UNL     1      -3.252   4.040  24.319  0.00  0.00    -0.269 OA
BRANCH   9   8
ATOM      8  C   UNL     1      -1.870   3.403  24.957  0.00  0.00    +0.179 C 
BRANCH   8  31
ATOM     31  C   UNL     1      -1.594   4.041  25.400  0.00  0.00    +0.281 C 
ATOM     32  N   UNL     1      -1.258   4.693  25.020  0.00  0.00    -0.086 NA
ATOM     33  O   UNL     1      -1.651   4.028  26.223  0.00  0.00    -0.270 OA
ENDBRANCH   8  31
BRANCH   8   7
ATOM      7  C   UNL     1      -1.416   3.105  24.336  0.00  0.00    +0.057 C 
BRANCH   7   6
ATOM      3  C   UNL     1      -0.458   0.829  24.482  0.00  0.00    +0.139 A 
ATOM      4  C   UNL     1      -0.849   1.068  23.797  0.00  0.00    +0.037 A 
ATOM      5  C   UNL     1      -1.168   1.827  23.747  0.00  0.00    -0.001 A 
ATOM      6  C   UNL     1      -1.097   2.346  24.385  0.00  0.00    -0.020 A 
ATOM     34  C   UNL     1      -0.706   2.107  25.070  0.00  0.00    -0.001 A 
ATOM     35  C   UNL     1      -0.386   1.348  25.119  0.00  0.00    +0.037 A 
BRANCH   3   2
ATOM      1  C   UNL     1       0.030  -0.353  23.842  0.00  0.00    +0.252 C 
ATOM      2  O   UNL     1      -0.138   0.069  24.530  0.00  0.00    -0.471 OA
ENDBRANCH   3   2
ENDBRANCH   7   6
ENDBRANCH   8   7
ENDBRANCH   9   8
ENDBRANCH  12  10
TORSDOF 8
ENDMDL
MODEL 2
REMARK VINA RESULT:     -12.4      1.203      3.726
REMARK  Name = 
REMARK  8 active torsions:
REMARK  status: ('A' for Active; 'I' for Inactive)
REMARK    1  A    between atoms: O_2  and  C_3
REMARK    2  A    between atoms: C_6  and  C_7
REMARK    3  A    between atoms: C_7  and  C_8
REMARK    4  A    between atoms: C_8  and  N_9
REMARK    5  A    between atoms: C_8  and  C_31
REMARK    6  A    between atoms: C_10  and  C_12
REMARK    7  A    between atoms: C_14  and  N_15
REMARK    8  A    between atoms: N_18  and  C_19
REMARK                            x       y       z     vdW  Elec       q    Type
REMARK                         _______ _______ _______ _____ _____    ______ ____
ROOT
ATOM     12  C   UNL     1      -1.005   2.263  24.695  0.00  0.00    +0.033 C 
ATOM     13  C   UNL     1      -1.299   1.572  25.037  0.00  0.00    -0.002 C 
ATOM     14  C   UNL     1      -0.857   0.875  25.007  0.00  0.00    +0.152 C 
ATOM     26  C   UNL     1      -0.121   0.870  24.634  0.00  0.00    +0.206 C 
ATOM     27  O   UNL     1       0.320   0.174  24.604  0.00  0.00    -0.218 OA
ATOM     28  C   UNL     1       0.173   1.561  24.291  0.00  0.00    +0.189 C 
ATOM     29  O   UNL     1       0.908   1.555  23.918  0.00  0.00    -0.220 OA
ATOM     30  C   UNL     1      -0.269   2.256  24.322  0.00  0.00    +0.066 C 
ENDROOT
BRANCH  14  15
ATOM     15  N   UNL     1      -1.150   0.186  25.349  0.00  0.00    -0.181 NA
ATOM     16  C   UNL     1      -1.761  -0.230  24.983  0.00  0.00    +0.344 C 
ATOM     17  O   UNL     1      -2.078   0.046  24.273  0.00  0.00    -0.249 OA
ATOM     18  N   UNL     1      -2.055  -0.920  25.325  0.00  0.00    -0.161 NA
BRANCH  18  19
ATOM     19  C   UNL     1      -2.666  -1.335  24.958  0.00  0.00    +0.075 A 
ATOM     20  C   UNL     1      -3.431  -1.026  24.957  0.00  0.00    +0.016 A 
ATOM     21  C   UNL     1      -4.043  -1.441  24.590  0.00  0.00    -0.003 A 
ATOM     22  C   UNL     1      -3.889  -2.165  24.223  0.00  0.00    -0.022 A 
ATOM     23  C   UNL     1      -4.501  -2.579  23.856  0.00  0.00    +0.031 C 
ATOM     24  C   UNL     1      -3.124  -2.473  24.224  0.00  0.00    -0.003 A 
ATOM     25  C   UNL     1      -2.513  -2.058  24.591  0.00  0.00    +0.016 A 
ENDBRANCH  18  19
ENDBRANCH  14  15
BRANCH  12  10
ATOM      9  N   UNL     1      -2.159   2.977  25.143  0.00  0.00    -0.194 NA
ATOM     10  C   UNL     1      -1.447   2.958  24.725  0.00  0.00    +0.261 C 
ATOM     11  O   UNL     1      -1.178   3.636  24.338  0.00  0.00    -0.269 OA
BRANCH   9   8
ATOM      8  C   UNL     1      -2.601   3.673  25.173  0.00  0.00    +0.179 C 
BRANCH   8  31
ATOM     31  C   UNL     1      -2.410   4.260  25.720  0.00  0.00    +0.281 C 
ATOM     32  N   UNL     1      -2.235   5.024  25.461  0.00  0.00    -0.086 NA
ATOM     33  O   UNL     1      -2.393   4.084  26.526  0.00  0.00    -0.270 OA
ENDBRANCH   8  31
BRANCH   8   7
ATOM      7  C   UNL     1      -3.234   3.782  24.656  0.00  0.00    +0.057 C 
BRANCH   7   6
ATOM      3  C   UNL     1      -5.327   2.500  24.971  0.00  0.00    +0.139 A 
ATOM      4  C   UNL     1      -4.857   2.365  24.308  0.00  0.00    +0.037 A 
ATOM      5  C   UNL     1      -4.159   2.792  24.202  0.00  0.00    -0.001 A 
ATOM      6  C   UNL     1      -3.932   3.355  24.761  0.00  0.00    -0.020 A 
ATOM     34  C   UNL     1      -4.402   3.491  25.424  0.00  0.00    -0.001 A 
ATOM     35  C   UNL     1      -5.100   3.063  25.530  0.00  0.00    +0.037 A 
BRANCH   3   2
ATOM      1  C   UNL     1      -6.148   1.648  25.773  0.00  0.00    +0.252 C 
ATOM      2  O   UNL     1      -6.025   2.073  25.076  0.00  0.00    -0.471 OA
ENDBRANCH   3   2
ENDBRANCH   7   6
ENDBRANCH   8   7
ENDBRANCH   9   8
ENDBRANCH  12  10
TORSDOF 8
ENDMDL
MODEL 3
REMARK VINA RESULT:     -12.0      1.217      4.184
REMARK  Name = 
REMARK  8 active torsions:
REMARK  status: ('A' for Active; 'I' for Inactive)
REMARK    1  A    between atoms: O_2  and  C_3
REMARK    2  A    between atoms: C_6  and  C_7
REMARK    3  A    between atoms: C_7  and  C_8
REMARK    4  A    between atoms: C_8  and  N_9
REMARK    5  A    between atoms: C_8  and  C_31
REMARK    6  A    between atoms: C_10  and  C_12
REMARK    7  A    between atoms: C_14  and  N_15
REMARK    8  A    between atoms: N_18  and  C_19
REMARK                            x       y       z     vdW  Elec       q    Type
REMARK                         _______ _______ _______ _____ _____    ______ ____
ROOT
ATOM     12  C   UNL     1      -4.710   1.057  25.216  0.00  0.00    +0.033 C 
ATOM     13  C   UNL     1      -4.295   1.684  25.557  0.00  0.00    -0.002 C 
ATOM     14  C   UNL     1      -4.629   2.439  25.573  0.00  0.00    +0.152 C 
ATOM     26  C   UNL     1      -5.377   2.566  25.249  0.00  0.00    +0.206 C 
ATOM     27  O   UNL     1      -5.710   3.320  25.266  0.00  0.00    -0.218 OA
ATOM     28  C   UNL     1      -5.791   1.939  24.909  0.00  0.00    +0.189 C 
ATOM     29  O   UNL     1      -6.539   2.067  24.585  0.00  0.00    -0.220 OA
ATOM     30  C   UNL     1      -5.458   1.185  24.892  0.00  0.00    +0.066 C 
ENDROOT
BRANCH  14  15
ATOM     15  N   UNL     1      -4.215   3.065  25.913  0.00  0.00    -0.181 NA
ATOM     16  C   UNL     1      -3.495   3.307  25.593  0.00  0.00    +0.344 C 
ATOM     17  O   UNL     1      -3.189   2.920  24.931  0.00  0.00    -0.249 OA
ATOM     18  N   UNL     1      -3.080   3.933  25.933  0.00  0.00    -0.161 NA
BRANCH  18  19
ATOM     19  C   UNL     1      -2.360   4.174  25.612  0.00  0.00    +0.075 A 
ATOM     20  C   UNL     1      -2.299   4.908  25.241  0.00  0.00    +0.016 A 
ATOM     21  C   UNL     1      -1.578   5.149  24.919  0.00  0.00    -0.003 A 
ATOM     22  C   UNL     1      -0.918   4.656  24.969  0.00  0.00    -0.022 A 
ATOM     23  C   UNL     1      -0.198   4.897  24.647  0.00  0.00    +0.031 C 
ATOM     24  C   UNL     1      -0.979   3.922  25.340  0.00  0.00    -0.003 A 
ATOM     25  C   UNL     1      -1.700   3.681  25.662  0.00  0.00    +0.016 A 
ENDBRANCH  18  19
ENDBRANCH  14  15
BRANCH  12  10
ATOM      9  N   UNL     1      -3.813   0.114  24.626  0.00  0.00    -0.194 NA
ATOM     10  C   UNL     1      -4.376   0.303  25.200  0.00  0.00    +0.261 C 
ATOM     11  O   UNL     1      -4.604  -0.262  25.756  0.00  0.00    -0.269 OA
BRANCH   9   8
ATOM      8  C   UNL     1      -3.480  -0.641  24.610  0.00  0.00    +0.179 C 
BRANCH   8  31
ATOM     31  C   UNL     1      -3.776  -1.213  24.095  0.00  0.00    +0.281 C 
ATOM     32  N   UNL     1      -3.973  -1.962  24.379  0.00  0.00    -0.086 NA
ATOM     33  O   UNL     1      -3.876  -1.036  23.295  0.00  0.00    -0.270 OA
ENDBRANCH   8  31
BRANCH   8   7
ATOM      7  C   UNL     1      -2.849  -0.823  25.110  0.00  0.00    +0.057 C 
BRANCH   7   6
ATOM      3  C   UNL     1      -0.521  -0.560  24.315  0.00  0.00    +0.139 A 
ATOM      4  C   UNL     1      -0.817  -1.311  24.480  0.00  0.00    +0.037 A 
ATOM      5  C   UNL     1      -1.593  -1.399  24.745  0.00  0.00    -0.001 A 
ATOM      6  C   UNL     1      -2.073  -0.735  24.845  0.00  0.00    -0.020 A 
ATOM     34  C   UNL     1      -1.777   0.016  24.680  0.00  0.00    -0.001 A 
ATOM     35  C   UNL     1      -1.000   0.105  24.415  0.00  0.00    +0.037 A 
BRANCH   3   2
ATOM      1  C   UNL     1       0.408  -0.079  23.340  0.00  0.00    +0.252 C 
ATOM      2  O   UNL     1       0.256  -0.471  24.050  0.00  0.00    -0.471 OA
ENDBRANCH   3   2
ENDBRANCH   7   6
ENDBRANCH   8   7
ENDBRANCH   9   8
ENDBRANCH  12  10
TORSDOF 8
ENDMDL
MODEL 4
REMARK VINA RESULT:     -11.9      1.429      5.531
REMARK  Name = 
REMARK  8 active torsions:
REMARK  status: ('A' for Active; 'I' for Inactive)
REMARK    1  A    between atoms: O_2  and  C_3
REMARK    2  A    between atoms: C_6  and  C_7
REMARK    3  A    between atoms: C_7  and  C_8
REMARK    4  A    between atoms: C_8  and  N_9
REMARK    5  A    between atoms: C_8  and  C_31
REMARK    6  A    between atoms: C_10  and  C_12
REMARK    7  A    between atoms: C_14  and  N_15
REMARK    8  A    between atoms: N_18  and  C_19
REMARK                            x       y       z     vdW  Elec       q    Type
REMARK                         _______ _______ _______ _____ _____    ______ ____
ROOT
ATOM     12  C   UNL     1      -1.254  -0.208  24.417  0.00  0.00    +0.033 C 
ATOM     13  C   UNL     1      -1.081   0.458  24.872  0.00  0.00    -0.002 C 
ATOM     14  C   UNL     1      -0.358   0.846  24.778  0.00  0.00    +0.152 C 
ATOM     26  C   UNL     1       0.191   0.566  24.230  0.00  0.00    +0.206 C 
ATOM     27  O   UNL     1       0.914   0.953  24.137  0.00  0.00    -0.218 OA
ATOM     28  C   UNL     1       0.019  -0.100  23.776  0.00  0.00    +0.189 C 
ATOM     29  O   UNL     1       0.568  -0.379  23.228  0.00  0.00    -0.220 OA
ATOM     30  C   UNL     1      -0.704  -0.487  23.869  0.00  0.00    +0.066 C 
ENDROOT
BRANCH  14  15
ATOM     15  N   UNL     1      -0.185   1.511  25.232  0.00  0.00    -0.181 NA
ATOM     16  C   UNL     1      -0.602   2.213  25.111  0.00  0.00    +0.344 C 
ATOM     17  O   UNL     1      -1.191   2.248  24.535  0.00  0.00    -0.249 OA
ATOM     18  N   UNL     1      -0.429   2.880  25.566  0.00  0.00    -0.161 NA
BRANCH  18  19
ATOM     19  C   UNL     1      -0.846   3.580  25.445  0.00  0.00    +0.075 A 
ATOM     20  C   UNL     1      -1.598   3.674  25.769  0.00  0.00    +0.016 A 
ATOM     21  C   UNL     1      -2.016   4.376  25.648  0.00  0.00    -0.003 A 
ATOM     22  C   UNL     1      -1.680   4.984  25.201  0.00  0.00    -0.022 A 
ATOM     23  C   UNL     1      -2.097   5.685  25.080  0.00  0.00    +0.031 C 
ATOM     24  C   UNL     1      -0.927   4.890  24.877  0.00  0.00    -0.003 A 
ATOM     25  C   UNL     1      -0.511   4.188  24.999  0.00  0.00    +0.016 A 
ENDBRANCH  18  19
ENDBRANCH  14  15
BRANCH  12  10
ATOM      9  N   UNL     1      -2.592  -0.226  24.919  0.00  0.00    -0.194 NA
ATOM     10  C   UNL     1      -1.976  -0.595  24.511  0.00  0.00    +0.261 C 
ATOM     11  O   UNL     1      -2.084  -1.350  24.196  0.00  0.00    -0.269 OA
BRANCH   9   8
ATOM      8  C   UNL     1      -3.314  -0.613  25.013  0.00  0.00    +0.179 C 
BRANCH   8  31
ATOM     31  C   UNL     1      -3.388  -1.224  25.562  0.00  0.00    +0.281 C 
ATOM     32  N   UNL     1      -3.667  -1.963  25.322  0.00  0.00    -0.086 NA
ATOM     33  O   UNL     1      -3.182  -1.097  26.351  0.00  0.00    -0.270 OA
ENDBRANCH   8  31
BRANCH   8   7
ATOM      7  C   UNL     1      -3.964  -0.389  24.556  0.00  0.00    +0.057 C 
BRANCH   7   6
ATOM      3  C   UNL     1      -5.016   1.824  24.899  0.00  0.00    +0.139 A 
ATOM      4  C   UNL     1      -4.523   1.698  24.251  0.00  0.00    +0.037 A 
ATOM      5  C   UNL     1      -4.172   0.961  24.136  0.00  0.00    -0.001 A 
ATOM      6  C   UNL     1      -4.315   0.348  24.671  0.00  0.00    -0.020 A 
ATOM     34  C   UNL     1      -4.808   0.474  25.319  0.00  0.00    -0.001 A 
ATOM     35  C   UNL     1      -5.159   1.213  25.434  0.00  0.00    +0.037 A 
BRANCH   3   2
ATOM      1  C   UNL     1      -5.387   2.897  25.767  0.00  0.00    +0.252 C 
ATOM      2  O   UNL     1      -5.367   2.563  25.014  0.00  0.00    -0.471 OA
ENDBRANCH   3   2
ENDBRANCH   7   6
ENDBRANCH   8   7
ENDBRANCH   9   8
ENDBRANCH  12  10
TORSDOF 8
ENDMDL
MODEL 5
REMARK VINA RESULT:     -11.7      1.456      4.051
REMARK  Name = 
REMARK  8 active torsions:
REMARK  status: ('A' for Active; 'I' for Inactive)
REMARK    1  A    between atoms: O_2  and  C_3
REMARK    2  A    between atoms: C_6  and  C_7
REMARK    3  A    between atoms: C_7  and  C_8
REMARK    4  A    between atoms: C_8  and  N_9
REMARK    5  A    between atoms: C_8  and  C_31
REMARK    6  A    between atoms: C_10  and  C_12
REMARK    7  A    between atoms: C_14  and  N_15
REMARK    8  A    between atoms: N_18  and  C_19
REMARK                            x       y       z     vdW  Elec       q    Type
REMARK                         _______ _______ _______ _____ _____    ______ ____
ROOT
ATOM     12  C   UNL     1      -1.863  -0.648  24.650  0.00  0.00    +0.033 C 
ATOM     13  C   UNL     1      -2.548  -0.235  24.450  0.00  0.00    -0.002 C 
ATOM     14  C   UNL     1      -3.279  -0.619  24.461  0.00  0.00    +0.152 C 
ATOM     26  C   UNL     1      -3.323  -1.415  24.673  0.00  0.00    +0.206 C 
ATOM     27  O   UNL     1      -4.054  -1.798  24.684  0.00  0.00    -0.218 OA
ATOM     28  C   UNL     1      -2.638  -1.828  24.873  0.00  0.00    +0.189 C 
ATOM     29  O   UNL     1      -2.682  -2.623  25.084  0.00  0.00    -0.220 OA
ATOM     30  C   UNL     1      -1.908  -1.444  24.861  0.00  0.00    +0.066 C 
ENDROOT
BRANCH  14  15
ATOM     15  N   UNL     1      -3.964  -0.207  24.262  0.00  0.00    -0.181 NA
ATOM     16  C   UNL     1      -4.122   0.525  24.608  0.00  0.00    +0.344 C 
ATOM     17  O   UNL     1      -3.593   0.844  25.155  0.00  0.00    -0.249 OA
ATOM     18  N   UNL     1      -4.808   0.938  24.408  0.00  0.00    -0.161 NA
BRANCH  18  19
ATOM     19  C   UNL     1      -4.964   1.669  24.755  0.00  0.00    +0.075 A 
ATOM     20  C   UNL     1      -5.446   1.714  25.423  0.00  0.00    +0.016 A 
ATOM     21  C   UNL     1      -5.603   2.447  25.771  0.00  0.00    -0.003 A 
ATOM     22  C   UNL     1      -5.278   3.134  25.449  0.00  0.00    -0.022 A 
ATOM     23  C   UNL     1      -5.435   3.865  25.797  0.00  0.00    +0.031 C 
ATOM     24  C   UNL     1      -4.796   3.089  24.781  0.00  0.00    -0.003 A 
ATOM     25  C   UNL     1      -4.640   2.357  24.434  0.00  0.00    +0.016 A 
ENDBRANCH  18  19
ENDBRANCH  14  15
BRANCH  12  10
ATOM      9  N   UNL     1      -1.080   0.515  24.369  0.00  0.00    -0.194 NA
ATOM     10  C   UNL     1      -1.133  -0.265  24.638  0.00  0.00    +0.261 C 
ATOM     11  O   UNL     1      -0.455  -0.659  24.895  0.00  0.00    -0.269 OA
BRANCH   9   8
ATOM      8  C   UNL     1      -0.349   0.898  24.358  0.00  0.00    +0.179 C 
BRANCH   8  31
ATOM     31  C   UNL     1       0.152   0.811  23.709  0.00  0.00    +0.281 C 
ATOM     32  N   UNL     1       0.962   0.698  23.826  0.00  0.00    -0.086 NA
ATOM     33  O   UNL     1      -0.154   0.838  22.943  0.00  0.00    -0.270 OA
ENDBRANCH   8  31
BRANCH   8   7
ATOM      7  C   UNL     1      -0.121   1.368  24.996  0.00  0.00    +0.057 C 
BRANCH   7   6
ATOM      3  C   UNL     1      -1.191   3.569  25.361  0.00  0.00    +0.139 A 
ATOM      4  C   UNL     1      -1.067   3.060  25.997  0.00  0.00    +0.037 A 
ATOM      5  C   UNL     1      -0.711   2.327  25.876  0.00  0.00    -0.001 A 
ATOM      6  C   UNL     1      -0.477   2.102  25.117  0.00  0.00    -0.020 A 
ATOM     34  C   UNL     1      -0.601   2.610  24.480  0.00  0.00    -0.001 A 
ATOM     35  C   UNL     1      -0.958   3.345  24.602  0.00  0.00    +0.037 A 
BRANCH   3   2
ATOM      1  C   UNL     1      -1.289   4.963  25.059  0.00  0.00    +0.252 C 
ATOM      2  O   UNL     1      -1.548   4.304  25.482  0.00  0.00    -0.471 OA
ENDBRANCH   3   2
ENDBRANCH   7   6
ENDBRANCH   8   7
ENDBRANCH   9   8
ENDBRANCH  12  10
TORSDOF 8
ENDMDL
MODEL 6
REMARK VINA RESULT:     -11.5      1.536      4.499
REMARK  Name = 
REMARK  8 active torsions:
REMARK  status: ('A' for Active; 'I' for Inactive)
REMARK    1  A    between atoms: O_2  and  C_3
REMARK    2  A    between atoms: C_6  and  C_7
REMARK    3  A    between atoms: C_7  and  C_8
REMARK    4  A    between atoms: C_8  and  N_9
REMARK    5  A    between atoms: C_8  and  C_31
REMARK    6  A    between atoms: C_10  and  C_12
REMARK    7  A    between atoms: C_14  and  N_15
REMARK    8  A    between atoms: N_18  and  C_19
REMARK                            x       y       z     vdW  Elec       q    Type
REMARK                         _______ _______ _______ _____ _____    ______ ____
ROOT
ATOM     12  C   UNL     1      -0.856   1.451  25.391  0.00  0.00    +0.033 C 
ATOM     13  C   UNL     1      -1.529   1.780  25.045  0.00  0.00    -0.002 C 
ATOM     14  C   UNL     1      -1.553   2.588  24.877  0.00  0.00    +0.152 C 
ATOM     26  C   UNL     1      -0.904   3.066  25.056  0.00  0.00    +0.206 C 
ATOM     27  O   UNL     1      -0.929   3.873  24.889  0.00  0.00    -0.218 OA
ATOM     28  C   UNL     1      -0.232   2.736  25.402  0.00  0.00    +0.189 C 
ATOM     29  O   UNL     1       0.416   3.214  25.581  0.00  0.00    -0.220 OA
ATOM     30  C   UNL     1      -0.208   1.929  25.570  0.00  0.00    +0.066 C 
ENDROOT
BRANCH  14  15
ATOM     15  N   UNL     1      -2.225   2.917  24.532  0.00  0.00    -0.181 NA
ATOM     16  C   UNL     1      -2.973   2.729  24.823  0.00  0.00    +0.344 C 
ATOM     17  O   UNL     1      -3.048   2.211  25.460  0.00  0.00    -0.249 OA
ATOM     18  N   UNL     1      -3.646   3.059  24.477  0.00  0.00    -0.161 NA
BRANCH  18  19
ATOM     19  C   UNL     1      -4.393   2.870  24.768  0.00  0.00    +0.075 A 
ATOM     20  C   UNL     1      -4.801   2.219  24.467  0.00  0.00    +0.016 A 
ATOM     21  C   UNL     1      -5.550   2.029  24.758  0.00  0.00    -0.003 A 
ATOM     22  C   UNL     1      -5.891   2.492  25.351  0.00  0.00    -0.022 A 
ATOM     23  C   UNL     1      -6.639   2.303  25.642  0.00  0.00    +0.031 C 
ATOM     24  C   UNL     1      -5.484   3.144  25.652  0.00  0.00    -0.003 A 
ATOM     25  C   UNL     1      -4.735   3.332  25.360  0.00  0.00    +0.016 A 
ENDBRANCH  18  19
ENDBRANCH  14  15
BRANCH  12  10
ATOM      9  N   UNL     1      -1.119   0.099  25.007  0.00  0.00    -0.194 NA
ATOM     10  C   UNL     1      -0.832   0.644  25.558  0.00  0.00    +0.261 C 
ATOM     11  O   UNL     1      -0.522   0.379  26.276  0.00  0.00    -0.269 OA
BRANCH   9   8
ATOM      8  C   UNL     1      -1.094  -0.708  25.175  0.00  0.00    +0.179 C 
BRANCH   8  31
ATOM     31  C   UNL     1      -0.466  -1.168  24.904  0.00  0.00    +0.281 C 
ATOM     32  N   UNL     1      -0.131  -1.740  25.396  0.00  0.00    -0.086 NA
ATOM     33  O   UNL     1      -0.172  -1.057  24.141  0.00  0.00    -0.270 OA
ENDBRANCH   8  31
BRANCH   8   7
ATOM      7  C   UNL     1      -1.700  -1.056  25.615  0.00  0.00    +0.057 C 
BRANCH   7   6
ATOM      3  C   UNL     1      -3.815  -1.712  24.512  0.00  0.00    +0.139 A 
ATOM      4  C   UNL     1      -3.828  -1.192  25.151  0.00  0.00    +0.037 A 
ATOM      5  C   UNL     1      -3.123  -0.973  25.519  0.00  0.00    -0.001 A 
ATOM      6  C   UNL     1      -2.404  -1.275  25.247  0.00  0.00    -0.020 A 
ATOM     34  C   UNL     1      -2.392  -1.795  24.608  0.00  0.00    -0.001 A 
ATOM     35  C   UNL     1      -3.097  -2.014  24.239  0.00  0.00    +0.037 A 
BRANCH   3   2
ATOM      1  C   UNL     1      -4.515  -2.501  23.547  0.00  0.00    +0.252 C 
ATOM      2  O   UNL     1      -4.521  -1.931  24.143  0.00  0.00    -0.471 OA
ENDBRANCH   3   2
ENDBRANCH   7   6
ENDBRANCH   8   7
ENDBRANCH   9   8
ENDBRANCH  12  10
TORSDOF 8
ENDMDL
MODEL 7
REMARK VINA RESULT:     -11.4      1.358      3.690
REMARK  Name = 
REMARK  8 active torsions:
REMARK  status: ('A' for Active; 'I' for Inactive)
REMARK    1  A    between atoms: O_2  and  C_3
REMARK    2  A    between atoms: C_6  and  C_7
REMARK    3  A    between atoms: C_7  and  C_8
REMARK    4  A    between atoms: C_8  and  N_9
REMARK    5  A    between atoms: C_8  and  C_31
REMARK    6  A    between atoms: C_10  and  C_12
REMARK    7  A    between atoms: C_14  and  N_15
REMARK    8  A    between atoms: N_18  and  C_19
REMARK                            x       y       z     vdW  Elec       q    Type
REMARK                         _______ _______ _______ _____ _____    ______ ____
ROOT
ATOM     12  C   UNL     1      -2.648   3.741  25.133  0.00  0.00    +0.033 C 
ATOM     13  C   UNL     1      -2.177   3.118  25.398  0.00  0.00    -0.002 C 
ATOM     14  C   UNL     1      -1.370   3.235  25.528  0.00  0.00    +0.152 C 
ATOM     26  C   UNL     1      -1.035   3.977  25.392  0.00  0.00    +0.206 C 
ATOM     27  O   UNL     1      -0.229   4.093  25.522  0.00  0.00    -0.218 OA
ATOM     28  C   UNL     1      -1.505   4.600  25.126  0.00  0.00    +0.189 C 
ATOM     29  O   UNL     1      -1.170   5.341  24.991  0.00  0.00    -0.220 OA
ATOM     30  C   UNL     1      -2.311   4.483  24.997  0.00  0.00    +0.066 C 
ENDROOT
BRANCH  14  15
ATOM     15  N   UNL     1      -0.901   2.612  25.793  0.00  0.00    -0.181 NA
ATOM     16  C   UNL     1      -0.964   1.869  25.442  0.00  0.00    +0.344 C 
ATOM     17  O   UNL     1      -1.498   1.750  24.824  0.00  0.00    -0.249 OA
ATOM     18  N   UNL     1      -0.493   1.245  25.707  0.00  0.00    -0.161 NA
BRANCH  18  19
ATOM     19  C   UNL     1      -0.557   0.502  25.355  0.00  0.00    +0.075 A 
ATOM     20  C   UNL     1      -0.273   0.383  24.590  0.00  0.00    +0.016 A 
ATOM     21  C   UNL     1      -0.336  -0.361  24.237  0.00  0.00    -0.003 A 
ATOM     22  C   UNL     1      -0.685  -0.985  24.651  0.00  0.00    -0.022 A 
ATOM     23  C   UNL     1      -0.748  -1.728  24.298  0.00  0.00    +0.031 C 
ATOM     24  C   UNL     1      -0.969  -0.866  25.416  0.00  0.00    -0.003 A 
ATOM     25  C   UNL     1      -0.905  -0.122  25.768  0.00  0.00    +0.016 A 
ENDBRANCH  18  19
ENDBRANCH  14  15
BRANCH  12  10
ATOM      9  N   UNL     1      -3.839   2.984  25.356  0.00  0.00    -0.194 NA
ATOM     10  C   UNL     1      -3.453   3.624  25.003  0.00  0.00    +0.261 C 
ATOM     11  O   UNL     1      -3.875   4.145  24.522  0.00  0.00    -0.269 OA
BRANCH   9   8
ATOM      8  C   UNL     1      -4.645   2.867  25.226  0.00  0.00    +0.179 C 
BRANCH   8  31
ATOM     31  C   UNL     1      -5.200   3.242  25.706  0.00  0.00    +0.281 C 
ATOM     32  N   UNL     1      -5.809   3.684  25.366  0.00  0.00    -0.086 NA
ATOM     33  O   UNL     1      -5.147   3.177  26.527  0.00  0.00    -0.270 OA
ENDBRANCH   8  31
BRANCH   8   7
ATOM      7  C   UNL     1      -4.896   2.373  24.614  0.00  0.00    +0.057 C 
BRANCH   7   6
ATOM      3  C   UNL     1      -4.441  -0.057  24.716  0.00  0.00    +0.139 A 
ATOM      4  C   UNL     1      -4.209   0.379  24.056  0.00  0.00    +0.037 A 
ATOM      5  C   UNL     1      -4.360   1.189  24.021  0.00  0.00    -0.001 A 
ATOM      6  C   UNL     1      -4.745   1.563  24.649  0.00  0.00    -0.020 A 
ATOM     34  C   UNL     1      -4.977   1.128  25.309  0.00  0.00    -0.001 A 
ATOM     35  C   UNL     1      -4.825   0.317  25.343  0.00  0.00    +0.037 A 
BRANCH   3   2
ATOM      1  C   UNL     1      -4.337  -1.326  24.065  0.00  0.00    +0.252 C 
ATOM      2  O   UNL     1      -4.289  -0.868  24.750  0.00  0.00    -0.471 OA
ENDBRANCH   3   2
ENDBRANCH   7   6
ENDBRANCH   8   7
ENDBRANCH   9   8
ENDBRANCH  12  10
TORSDOF 8
ENDMDL
