MODEL 1
REMARK VINA RESULT:     -13.0      0.000      0.000
REMARK  Name = 
REMARK  6 active torsions:
REMARK  status: ('A' for Active; 'I' for Inactive)
REMARK    1  A    between atoms: C_4  and  C_5
REMARK    2  A    between atoms: C_5  and  C_6
REMARK    3  A    between atoms: C_9  and  C_11
REMARK    4  A    between atoms: C_19  and  N_20
REMARK    5  A    between atoms: N_20  and  C_21
REMARK    6  A    between atoms: C_21  and  C_22
REMARK                            x       y       z     vdW  Elec       q    Type
REMARK                         _______ _______ _______ _____ _____    ______ ____
ROOT
ATOM      1  C   UNL     1      -5.861   2.061  25.087  0.00  0.00    +0.001 C 
ATOM      2  C   UNL     1      -5.255   1.509  24.999  0.00  0.00    +0.015 C 
ATOM      3  C   UNL     1      -5.813   0.903  24.959  0.00  0.00    +0.001 C 
ATOM      4  C   UNL     1      -4.698   2.115  25.038  0.00  0.00    +0.009 C 
ATOM     18  C   UNL     1      -4.090   1.563  24.950  0.00  0.00    +0.018 C 
ATOM     19  C   UNL     1      -4.649   0.957  24.911  0.00  0.00    +0.073 C 
ENDROOT
BRANCH   4   5
ATOM      5  C   UNL     1      -4.732   2.934  25.128  0.00  0.00    +0.049 C 
BRANCH   5   6
ATOM      6  C   UNL     1      -4.081   3.345  25.427  0.00  0.00    +0.101 A 
ATOM      7  N   UNL     1      -3.969   3.570  26.212  0.00  0.00    -0.081 NA
ATOM      8  O   UNL     1      -3.247   3.966  26.264  0.00  0.00    -0.354 OA
ATOM      9  C   UNL     1      -2.912   3.985  25.510  0.00  0.00    +0.177 A 
ATOM     10  C   UNL     1      -3.428   3.600  24.993  0.00  0.00    +0.058 A 
BRANCH   9  11
ATOM     11  C   UNL     1      -2.190   4.327  25.309  0.00  0.00    +0.037 A 
ATOM     12  C   UNL     1      -1.527   3.850  25.186  0.00  0.00    +0.005 A 
ATOM     13  C   UNL     1      -0.805   4.193  24.985  0.00  0.00    +0.030 A 
ATOM     14  C   UNL     1      -0.743   5.012  24.906  0.00  0.00    +0.140 A 
ATOM     15  F   UNL     1      -0.020   5.355  24.705  0.00  0.00    -0.204 F 
ATOM     16  C   UNL     1      -1.406   5.489  25.029  0.00  0.00    +0.030 A 
ATOM     17  C   UNL     1      -2.129   5.146  25.230  0.00  0.00    +0.005 A 
ENDBRANCH   9  11
ENDBRANCH   5   6
ENDBRANCH   4   5
BRANCH  19  20
ATOM     20  N   UNL     1      -4.615   0.138  24.820  0.00  0.00    -0.215 NA
BRANCH  20  21
ATOM     21  C   UNL     1      -3.907  -0.224  24.595  0.00  0.00    +0.116 C 
BRANCH  21  22
ATOM     22  C   UNL     1      -3.849  -1.047  24.584  0.00  0.00    +0.014 A 
ATOM     23  C   UNL     1      -4.103  -1.469  23.923  0.00  0.00    +0.000 A 
ATOM     24  C   UNL     1      -4.045  -2.292  23.913  0.00  0.00    +0.020 A 
ATOM     25  C   UNL     1      -3.733  -2.692  24.563  0.00  0.00    +0.099 A 
ATOM     26  N   UNL     1      -3.479  -2.269  25.225  0.00  0.00    -0.243 NA
ATOM     27  C   UNL     1      -3.537  -1.446  25.235  0.00  0.00    +0.096 A 
ENDBRANCH  21  22
ENDBRANCH  20  21
ENDBRANCH  19  20
TORSDOF 6
ENDMDL
MODEL 2
REMARK VINA RESULT:     -12.5      2.274      5.634
REMARK  Name = 
REMARK  6 active torsions:
REMARK  status: ('A' for Active; 'I' for Inactive)
REMARK    1  A    between atoms: C_4  and  C_5
REMARK    2  A    between atoms: C_5  and  C_6
REMARK    3  A    between atoms: C_9  and  C_11
REMARK    4  A    between atoms: C_19  and  N_20
REMARK    5  A    between atoms: N_20  and  C_21
REMARK    6  A    between atoms: C_21  and  C_22
REMARK                            x       y       z     vdW  Elec       q    Type
REMARK                         _______ _______ _______ _____ _____    ______ ____
ROOT
ATOM      1  C   UNL     1      -5.259   2.785  25.210  0.00  0.00    +0.001 C 
ATOM      2  C   UNL     1      -4.450   2.943  25.201  0.00  0.00    +0.015 C 
ATOM      3  C   UNL     1      -4.601   3.729  25.397  0.00  0.00    +0.001 C 
ATOM      4  C   UNL     1      -4.298   2.156  25.005  0.00  0.00    +0.009 C 
ATOM     18  C   UNL     1      -3.488   2.314  24.997  0.00  0.00    +0.018 C 
ATOM     19  C   UNL     1      -3.641   3.101  25.192  0.00  0.00    +0.073 C 
ENDROOT
BRANCH   4   5
ATOM      5  C   UNL     1      -4.764   1.488  24.873  0.00  0.00    +0.049 C 
BRANCH   5   6
ATOM      6  C   UNL     1      -4.430   0.812  24.536  0.00  0.00    +0.101 A 
ATOM      7  N   UNL     1      -4.041   0.774  23.810  0.00  0.00    -0.081 NA
ATOM      8  O   UNL     1      -3.797  -0.005  23.691  0.00  0.00    -0.354 OA
ATOM      9  C   UNL     1      -4.036  -0.449  24.345  0.00  0.00    +0.177 A 
ATOM     10  C   UNL     1      -4.427   0.056  24.867  0.00  0.00    +0.058 A 
BRANCH   9  11
ATOM     11  C   UNL     1      -3.906  -1.256  24.457  0.00  0.00    +0.037 A 
ATOM     12  C   UNL     1      -3.479  -1.518  25.113  0.00  0.00    +0.005 A 
ATOM     13  C   UNL     1      -3.349  -2.325  25.224  0.00  0.00    +0.030 A 
ATOM     14  C   UNL     1      -3.646  -2.870  24.680  0.00  0.00    +0.140 A 
ATOM     15  F   UNL     1      -3.516  -3.677  24.791  0.00  0.00    -0.204 F 
ATOM     16  C   UNL     1      -4.073  -2.607  24.024  0.00  0.00    +0.030 A 
ATOM     17  C   UNL     1      -4.203  -1.801  23.913  0.00  0.00    +0.005 A 
ENDBRANCH   9  11
ENDBRANCH   5   6
ENDBRANCH   4   5
BRANCH  19  20
ATOM     20  N   UNL     1      -3.175   3.769  25.325  0.00  0.00    -0.215 NA
BRANCH  20  21
ATOM     21  C   UNL     1      -2.396   3.685  25.584  0.00  0.00    +0.116 C 
BRANCH  21  22
ATOM     22  C   UNL     1      -1.815   4.209  25.322  0.00  0.00    +0.014 A 
ATOM     23  C   UNL     1      -1.958   5.021  25.331  0.00  0.00    +0.000 A 
ATOM     24  C   UNL     1      -1.377   5.545  25.069  0.00  0.00    +0.020 A 
ATOM     25  C   UNL     1      -0.654   5.257  24.797  0.00  0.00    +0.099 A 
ATOM     26  N   UNL     1      -0.511   4.444  24.788  0.00  0.00    -0.243 NA
ATOM     27  C   UNL     1      -1.092   3.920  25.050  0.00  0.00    +0.096 A 
ENDBRANCH  21  22
ENDBRANCH  20  21
ENDBRANCH  19  20
TORSDOF 6
ENDMDL
MODEL 3
REMARK VINA RESULT:     -11.6      2.205      3.101
REMARK  Name = 
REMARK  6 active torsions:
REMARK  status: ('A' for Active; 'I' for Inactive)
REMARK    1  A    between atoms: C_4  and  C_5
REMARK    2  A    between atoms: C_5  and  C_6
REMARK    3  A    between atoms: C_9  and  C_11
REMARK    4  A    between atoms: C_19  and  N_20
REMARK    5  A    between atoms: N_20  and  C_21
REMARK    6  A    between atoms: C_21  and  C_22
REMARK                            x       y       z     vdW  Elec       q    Type
REMARK                         _______ _______ _______ _____ _____    ______ ____
ROOT
ATOM      1  C   UNL     1       0.253  -0.099  24.008  0.00  0.00    +0.001 C 
ATOM      2  C   UNL     1      -0.502  -0.268  24.292  0.00  0.00    +0.015 C 
ATOM      3  C   UNL     1      -0.475  -1.006  23.925  0.00  0.00    +0.001 C 
ATOM      4  C   UNL     1      -0.530   0.470  24.658  0.00  0.00    +0.009 C 
ATOM     18  C   UNL     1      -1.286   0.302  24.942  0.00  0.00    +0.018 C 
ATOM     19  C   UNL     1      -1.258  -0.437  24.575  0.00  0.00    +0.073 C 
ENDROOT
BRANCH   4   5
ATOM      5  C   UNL     1      -0.015   1.112  24.716  0.00  0.00    +0.049 C 
BRANCH   5   6
ATOM      6  C   UNL     1      -0.244   1.789  25.129  0.00  0.00    +0.101 A 
ATOM      7  N   UNL     1      -0.203   1.896  25.946  0.00  0.00    -0.081 NA
ATOM      8  O   UNL     1      -0.488   2.651  26.119  0.00  0.00    -0.354 OA
ATOM      9  C   UNL     1      -0.706   3.011  25.409  0.00  0.00    +0.177 A 
ATOM     10  C   UNL     1      -0.555   2.478  24.797  0.00  0.00    +0.058 A 
BRANCH   9  11
ATOM     11  C   UNL     1      -1.019   3.769  25.325  0.00  0.00    +0.037 A 
ATOM     12  C   UNL     1      -1.782   3.932  25.595  0.00  0.00    +0.005 A 
ATOM     13  C   UNL     1      -2.094   4.691  25.511  0.00  0.00    +0.030 A 
ATOM     14  C   UNL     1      -1.645   5.286  25.158  0.00  0.00    +0.140 A 
ATOM     15  F   UNL     1      -1.958   6.045  25.074  0.00  0.00    -0.204 F 
ATOM     16  C   UNL     1      -0.883   5.123  24.888  0.00  0.00    +0.030 A 
ATOM     17  C   UNL     1      -0.570   4.364  24.972  0.00  0.00    +0.005 A 
ENDBRANCH   9  11
ENDBRANCH   5   6
ENDBRANCH   4   5
BRANCH  19  20
ATOM     20  N   UNL     1      -1.773  -1.079  24.517  0.00  0.00    -0.215 NA
BRANCH  20  21
ATOM     21  C   UNL     1      -2.546  -1.015  24.799  0.00  0.00    +0.116 C 
BRANCH  21  22
ATOM     22  C   UNL     1      -3.118  -1.560  24.562  0.00  0.00    +0.014 A 
ATOM     23  C   UNL     1      -3.746  -1.318  24.086  0.00  0.00    +0.000 A 
ATOM     24  C   UNL     1      -4.318  -1.863  23.849  0.00  0.00    +0.020 A 
ATOM     25  C   UNL     1      -4.263  -2.650  24.089  0.00  0.00    +0.099 A 
ATOM     26  N   UNL     1      -3.634  -2.893  24.566  0.00  0.00    -0.243 NA
ATOM     27  C   UNL     1      -3.061  -2.348  24.803  0.00  0.00    +0.096 A 
ENDBRANCH  21  22
ENDBRANCH  20  21
ENDBRANCH  19  20
TORSDOF 6
ENDMDL
MODEL 4
REMARK VINA RESULT:     -11.3      2.944      6.251
REMARK  Name = 
REMARK  6 active torsions:
REMARK  status: ('A' for Active; 'I' for Inactive)
REMARK    1  A    between atoms: C_4  and  C_5
REMARK    2  A    between atoms: C_5  and  C_6
REMARK    3  A    between atoms: C_9  and  C_11
REMARK    4  A    between atoms: C_19  and  N_20
REMARK    5  A    between atoms: N_20  and  C_21
REMARK    6  A    between atoms: C_21  and  C_22
REMARK                            x       y       z     vdW  Elec       q    Type
REMARK                         _______ _______ _______ _____ _____    ______ ____
ROOT
ATOM      1  C   UNL     1       0.303   0.687  24.215  0.00  0.00    +0.001 C 
ATOM      2  C   UNL     1      -0.151   1.274  24.575  0.00  0.00    +0.015 C 
ATOM      3  C   UNL     1       0.293   1.853  24.191  0.00  0.00    +0.001 C 
ATOM      4  C   UNL     1      -0.595   0.695  24.958  0.00  0.00    +0.009 C 
ATOM     18  C   UNL     1      -1.050   1.281  25.319  0.00  0.00    +0.018 C 
ATOM     19  C   UNL     1      -0.605   1.860  24.935  0.00  0.00    +0.073 C 
ENDROOT
BRANCH   4   5
ATOM      5  C   UNL     1      -0.588  -0.130  24.975  0.00  0.00    +0.049 C 
BRANCH   5   6
ATOM      6  C   UNL     1      -1.284  -0.546  25.135  0.00  0.00    +0.101 A 
ATOM      7  N   UNL     1      -1.597  -0.696  25.883  0.00  0.00    -0.081 NA
ATOM      8  O   UNL     1      -2.294  -1.126  25.786  0.00  0.00    -0.354 OA
ATOM      9  C   UNL     1      -2.411  -1.243  24.977  0.00  0.00    +0.177 A 
ATOM     10  C   UNL     1      -1.787  -0.884  24.575  0.00  0.00    +0.058 A 
BRANCH   9  11
ATOM     11  C   UNL     1      -3.042  -1.647  24.632  0.00  0.00    +0.037 A 
ATOM     12  C   UNL     1      -3.050  -2.472  24.627  0.00  0.00    +0.005 A 
ATOM     13  C   UNL     1      -3.681  -2.875  24.281  0.00  0.00    +0.030 A 
ATOM     14  C   UNL     1      -4.303  -2.455  23.941  0.00  0.00    +0.140 A 
ATOM     15  F   UNL     1      -4.935  -2.859  23.595  0.00  0.00    -0.204 F 
ATOM     16  C   UNL     1      -4.295  -1.630  23.946  0.00  0.00    +0.030 A 
ATOM     17  C   UNL     1      -3.665  -1.226  24.291  0.00  0.00    +0.005 A 
ENDBRANCH   9  11
ENDBRANCH   5   6
ENDBRANCH   4   5
BRANCH  19  20
ATOM     20  N   UNL     1      -0.611   2.685  24.918  0.00  0.00    -0.215 NA
BRANCH  20  21
ATOM     21  C   UNL     1      -1.039   3.106  25.485  0.00  0.00    +0.116 C 
BRANCH  21  22
ATOM     22  C   UNL     1      -1.237   3.896  25.351  0.00  0.00    +0.014 A 
ATOM     23  C   UNL     1      -2.006   4.157  25.491  0.00  0.00    +0.000 A 
ATOM     24  C   UNL     1      -2.205   4.946  25.356  0.00  0.00    +0.020 A 
ATOM     25  C   UNL     1      -1.634   5.474  25.081  0.00  0.00    +0.099 A 
ATOM     26  N   UNL     1      -0.864   5.213  24.941  0.00  0.00    -0.243 NA
ATOM     27  C   UNL     1      -0.665   4.423  25.076  0.00  0.00    +0.096 A 
ENDBRANCH  21  22
ENDBRANCH  20  21
ENDBRANCH  19  20
TORSDOF 6
ENDMDL
