MODEL 1
REMARK VINA RESULT:     -15.4      0.000      0.000
REMARK  Name = 
REMARK  4 active torsions:
REMARK  status: ('A' for Active; 'I' for Inactive)
REMARK    1  A    between atoms: C_7  and  N_10
REMARK    2  A    between atoms: C_19  and  N_20
REMARK    3  A    between atoms: N_20  and  S_21
REMARK    4  A    between atoms: S_21  and  C_24
REMARK                            x       y       z     vdW  Elec       q    Type
REMARK                         _______ _______ _______ _____ _____    ______ ____
ROOT
ATOM     10  N   UNL     1      -4.059   3.391  25.060  0.00  0.00    -0.273 NA
ATOM     11  C   UNL     1      -4.587   3.991  25.304  0.00  0.00    +0.074 C 
ATOM     12  C   UNL     1      -5.370   3.437  25.541  0.00  0.00    +0.039 C 
ATOM     13  C   UNL     1      -6.087   3.129  25.775  0.00  0.00    +0.011 C 
ATOM     14  C   UNL     1      -5.474   2.889  25.531  0.00  0.00    +0.054 C 
ATOM     15  C   UNL     1      -4.726   3.438  25.307  0.00  0.00    +0.078 C 
ATOM     16  C   UNL     1      -5.044   2.109  25.306  0.00  0.00    +0.041 A 
ATOM     17  C   UNL     1      -5.167   1.294  25.279  0.00  0.00    +0.014 A 
ATOM     18  C   UNL     1      -4.566   0.794  25.016  0.00  0.00    +0.024 A 
ATOM     19  C   UNL     1      -3.841   1.109  24.780  0.00  0.00    +0.147 A 
ATOM     31  C   UNL     1      -3.717   1.924  24.806  0.00  0.00    +0.277 A 
ATOM     32  O   UNL     1      -2.969   1.733  24.517  0.00  0.00    -0.266 OA
ATOM     33  N   UNL     1      -4.319   2.424  25.069  0.00  0.00    -0.298 N 
ATOM     34  C   UNL     1      -4.912   2.627  25.303  0.00  0.00    +0.110 C 
ENDROOT
BRANCH  10   7
ATOM      1  C   UNL     1      -0.685   1.798  24.452  0.00  0.00    +0.095 C 
ATOM      2  C   UNL     1      -1.287   2.005  23.928  0.00  0.00    +0.226 C 
ATOM      3  O   UNL     1      -1.195   1.865  23.120  0.00  0.00    -0.275 OA
ATOM      4  N   UNL     1      -1.980   2.351  24.210  0.00  0.00    -0.279 N 
ATOM      5  C   UNL     1      -2.582   2.558  23.686  0.00  0.00    +0.095 C 
ATOM      6  C   UNL     1      -3.275   2.905  23.968  0.00  0.00    +0.038 C 
ATOM      7  C   UNL     1      -3.366   3.045  24.777  0.00  0.00    +0.061 C 
ATOM      8  C   UNL     1      -2.764   2.838  25.302  0.00  0.00    +0.038 C 
ATOM      9  C   UNL     1      -2.071   2.491  25.019  0.00  0.00    +0.095 C 
ENDBRANCH  10   7
BRANCH  19  20
ATOM     20  N   UNL     1      -3.241   0.609  24.517  0.00  0.00    -0.092 NA
BRANCH  20  21
ATOM     21  S   UNL     1      -3.363  -0.206  24.494  0.00  0.00    +0.093 S 
ATOM     22  O   UNL     1      -3.627  -0.144  23.715  0.00  0.00    -0.148 OA
ATOM     23  O   UNL     1      -3.099  -0.268  25.273  0.00  0.00    -0.148 OA
BRANCH  21  24
ATOM     24  C   UNL     1      -3.485  -1.022  24.471  0.00  0.00    +0.127 A 
ATOM     25  C   UNL     1      -3.983  -1.349  23.900  0.00  0.00    +0.021 A 
ATOM     26  C   UNL     1      -4.104  -2.165  23.878  0.00  0.00    +0.013 A 
ATOM     27  C   UNL     1      -3.729  -2.653  24.427  0.00  0.00    +0.058 A 
ATOM     28 CL   UNL     1      -3.851  -3.469  24.405  0.00  0.00    -0.082 Cl
ATOM     29  C   UNL     1      -3.232  -2.326  24.998  0.00  0.00    +0.013 A 
ATOM     30  C   UNL     1      -3.110  -1.511  25.020  0.00  0.00    +0.021 A 
ENDBRANCH  21  24
ENDBRANCH  20  21
ENDBRANCH  19  20
TORSDOF 4
ENDMDL
MODEL 2
REMARK VINA RESULT:     -15.3      1.047      2.695
REMARK  Name = 
REMARK  4 active torsions:
REMARK  status: ('A' for Active; 'I' for Inactive)
REMARK    1  A    between atoms: C_7  and  N_10
REMARK    2  A    between atoms: C_19  and  N_20
REMARK    3  A    between atoms: N_20  and  S_21
REMARK    4  A    between atoms: S_21  and  C_24
REMARK                            x       y       z     vdW  Elec       q    Type
REMARK                         _______ _______ _______ _____ _____    ______ ____
ROOT
ATOM     10  N   UNL     1      -2.755   3.680  25.079  0.00  0.00    -0.273 NA
ATOM     11  C   UNL     1      -2.145   4.250  25.076  0.00  0.00    +0.074 C 
ATOM     12  C   UNL     1      -1.366   3.658  24.942  0.00  0.00    +0.039 C 
ATOM     13  C   UNL     1      -0.634   3.314  24.837  0.00  0.00    +0.011 C 
ATOM     14  C   UNL     1      -1.303   3.107  24.882  0.00  0.00    +0.054 C 
ATOM     15  C   UNL     1      -2.046   3.693  25.012  0.00  0.00    +0.078 C 
ATOM     16  C   UNL     1      -1.827   2.352  24.859  0.00  0.00    +0.041 A 
ATOM     17  C   UNL     1      -1.768   1.534  24.773  0.00  0.00    +0.014 A 
ATOM     18  C   UNL     1      -2.448   1.067  24.793  0.00  0.00    +0.024 A 
ATOM     19  C   UNL     1      -3.187   1.419  24.900  0.00  0.00    +0.147 A 
ATOM     31  C   UNL     1      -3.246   2.237  24.986  0.00  0.00    +0.277 A 
ATOM     32  O   UNL     1      -4.054   2.085  25.049  0.00  0.00    -0.266 OA
ATOM     33  N   UNL     1      -2.566   2.703  24.965  0.00  0.00    -0.298 N 
ATOM     34  C   UNL     1      -1.921   2.875  24.919  0.00  0.00    +0.110 C 
ENDROOT
BRANCH  10   7
ATOM      1  C   UNL     1      -6.136   2.252  25.988  0.00  0.00    +0.095 C 
ATOM      2  C   UNL     1      -5.810   2.443  25.255  0.00  0.00    +0.226 C 
ATOM      3  O   UNL     1      -6.247   2.324  24.565  0.00  0.00    -0.275 OA
ATOM      4  N   UNL     1      -5.047   2.752  25.211  0.00  0.00    -0.279 N 
ATOM      5  C   UNL     1      -4.720   2.943  24.478  0.00  0.00    +0.095 C 
ATOM      6  C   UNL     1      -3.957   3.252  24.434  0.00  0.00    +0.038 C 
ATOM      7  C   UNL     1      -3.519   3.371  25.123  0.00  0.00    +0.061 C 
ATOM      8  C   UNL     1      -3.845   3.180  25.857  0.00  0.00    +0.038 C 
ATOM      9  C   UNL     1      -4.609   2.871  25.901  0.00  0.00    +0.095 C 
ENDBRANCH  10   7
BRANCH  19  20
ATOM     20  N   UNL     1      -3.866   0.951  24.920  0.00  0.00    -0.092 NA
BRANCH  20  21
ATOM     21  S   UNL     1      -3.808   0.134  24.828  0.00  0.00    +0.093 S 
ATOM     22  O   UNL     1      -3.743   0.046  25.646  0.00  0.00    -0.148 OA
ATOM     23  O   UNL     1      -3.872   0.221  24.010  0.00  0.00    -0.148 OA
BRANCH  21  24
ATOM     24  C   UNL     1      -3.749  -0.684  24.735  0.00  0.00    +0.127 A 
ATOM     25  C   UNL     1      -3.451  -1.149  25.348  0.00  0.00    +0.021 A 
ATOM     26  C   UNL     1      -3.392  -1.966  25.255  0.00  0.00    +0.013 A 
ATOM     27  C   UNL     1      -3.633  -2.319  24.549  0.00  0.00    +0.058 A 
ATOM     28 CL   UNL     1      -3.575  -3.137  24.456  0.00  0.00    -0.082 Cl
ATOM     29  C   UNL     1      -3.932  -1.855  23.936  0.00  0.00    +0.013 A 
ATOM     30  C   UNL     1      -3.990  -1.037  24.029  0.00  0.00    +0.021 A 
ENDBRANCH  21  24
ENDBRANCH  20  21
ENDBRANCH  19  20
TORSDOF 4
ENDMDL
MODEL 3
REMARK VINA RESULT:     -14.3      1.885      4.237
REMARK  Name = 
REMARK  4 active torsions:
REMARK  status: ('A' for Active; 'I' for Inactive)
REMARK    1  A    between atoms: C_7  and  N_10
REMARK    2  A    between atoms: C_19  and  N_20
REMARK    3  A    between atoms: N_20  and  S_21
REMARK    4  A    between atoms: S_21  and  C_24
REMARK                            x       y       z     vdW  Elec       q    Type
REMARK                         _______ _______ _______ _____ _____    ______ ____
ROOT
ATOM     10  N   UNL     1      -2.058  -1.692  24.612  0.00  0.00    -0.273 NA
ATOM     11  C   UNL     1      -2.168  -2.514  24.510  0.00  0.00    +0.074 C 
ATOM     12  C   UNL     1      -3.149  -2.535  24.386  0.00  0.00    +0.039 C 
ATOM     13  C   UNL     1      -3.933  -2.720  24.269  0.00  0.00    +0.011 C 
ATOM     14  C   UNL     1      -3.547  -2.144  24.379  0.00  0.00    +0.054 C 
ATOM     15  C   UNL     1      -2.599  -2.141  24.497  0.00  0.00    +0.078 C 
ATOM     16  C   UNL     1      -3.620  -1.233  24.468  0.00  0.00    +0.041 A 
ATOM     17  C   UNL     1      -4.186  -0.632  24.462  0.00  0.00    +0.014 A 
ATOM     18  C   UNL     1      -3.956   0.152  24.575  0.00  0.00    +0.024 A 
ATOM     19  C   UNL     1      -3.160   0.336  24.693  0.00  0.00    +0.147 A 
ATOM     31  C   UNL     1      -2.594  -0.265  24.699  0.00  0.00    +0.277 A 
ATOM     32  O   UNL     1      -2.065   0.353  24.831  0.00  0.00    -0.266 OA
ATOM     33  N   UNL     1      -2.825  -1.049  24.586  0.00  0.00    -0.298 N 
ATOM     34  C   UNL     1      -3.216  -1.582  24.480  0.00  0.00    +0.110 C 
ENDROOT
BRANCH  10   7
ATOM      1  C   UNL     1      -0.183   1.588  24.475  0.00  0.00    +0.095 C 
ATOM      2  C   UNL     1      -0.478   1.161  25.115  0.00  0.00    +0.226 C 
ATOM      3  O   UNL     1      -0.378   1.448  25.883  0.00  0.00    -0.275 OA
ATOM      4  N   UNL     1      -0.873   0.448  24.990  0.00  0.00    -0.279 N 
ATOM      5  C   UNL     1      -1.168   0.021  25.631  0.00  0.00    +0.095 C 
ATOM      6  C   UNL     1      -1.563  -0.692  25.506  0.00  0.00    +0.038 C 
ATOM      7  C   UNL     1      -1.663  -0.979  24.738  0.00  0.00    +0.061 C 
ATOM      8  C   UNL     1      -1.368  -0.552  24.097  0.00  0.00    +0.038 C 
ATOM      9  C   UNL     1      -0.972   0.161  24.222  0.00  0.00    +0.095 C 
ENDBRANCH  10   7
BRANCH  19  20
ATOM     20  N   UNL     1      -2.931   1.120  24.806  0.00  0.00    -0.092 NA
BRANCH  20  21
ATOM     21  S   UNL     1      -3.501   1.705  24.915  0.00  0.00    +0.093 S 
ATOM     22  O   UNL     1      -3.519   1.839  24.101  0.00  0.00    -0.148 OA
ATOM     23  O   UNL     1      -3.483   1.571  25.728  0.00  0.00    -0.148 OA
BRANCH  21  24
ATOM     24  C   UNL     1      -4.072   2.291  25.024  0.00  0.00    +0.127 A 
ATOM     25  C   UNL     1      -4.761   2.122  25.446  0.00  0.00    +0.021 A 
ATOM     26  C   UNL     1      -5.331   2.708  25.555  0.00  0.00    +0.013 A 
ATOM     27  C   UNL     1      -5.213   3.462  25.242  0.00  0.00    +0.058 A 
ATOM     28 CL   UNL     1      -5.783   4.048  25.352  0.00  0.00    -0.082 Cl
ATOM     29  C   UNL     1      -4.525   3.631  24.820  0.00  0.00    +0.013 A 
ATOM     30  C   UNL     1      -3.954   3.045  24.711  0.00  0.00    +0.021 A 
ENDBRANCH  21  24
ENDBRANCH  20  21
ENDBRANCH  19  20
TORSDOF 4
ENDMDL
