MODEL 1
REMARK VINA RESULT:     -12.4      0.000      0.000
REMARK  Name = 
REMARK  6 active torsions:
REMARK  status: ('A' for Active; 'I' for Inactive)
REMARK    1  A    between atoms: C_2  and  C_20
REMARK    2  A    between atoms: C_9  and  N_10
REMARK    3  A    between atoms: C_20  and  C_22
REMARK    4  A    between atoms: N_24  and  C_25
REMARK    5  A    between atoms: C_25  and  C_26
REMARK    6  A    between atoms: C_27  and  O_28
REMARK                            x       y       z     vdW  Elec       q    Type
REMARK                         _______ _______ _______ _____ _____    ______ ____
ROOT
ATOM      1  C   UNL     1      -4.178   2.376  24.932  0.00  0.00    +0.052 C 
ATOM      2  C   UNL     1      -4.532   2.805  25.540  0.00  0.00    -0.001 C 
ATOM      3  C   UNL     1      -4.126   3.426  25.898  0.00  0.00    -0.000 C 
ATOM      4  C   UNL     1      -3.362   3.619  25.648  0.00  0.00    -0.001 C 
ATOM      5  C   UNL     1      -3.718   4.049  26.257  0.00  0.00    -0.000 C 
ATOM      6  C   UNL     1      -2.956   4.241  26.007  0.00  0.00    +0.002 C 
ATOM      7  C   UNL     1      -2.193   4.433  25.757  0.00  0.00    +0.022 C 
ATOM      8  C   UNL     1      -1.838   4.004  25.148  0.00  0.00    +0.095 C 
ATOM     13  C   UNL     1      -2.245   3.382  24.790  0.00  0.00    +0.019 C 
ATOM     14  C   UNL     1      -1.890   2.953  24.182  0.00  0.00    +0.002 C 
ATOM     15  C   UNL     1      -3.008   3.190  25.040  0.00  0.00    +0.045 C 
ATOM     16  C   UNL     1      -3.414   2.569  24.682  0.00  0.00    +0.145 C 
ATOM     17  O   UNL     1      -3.060   2.139  24.073  0.00  0.00    -0.224 OA
ENDROOT
BRANCH   8   9
ATOM      9  N   UNL     1      -1.077   4.196  24.898  0.00  0.00    -0.207 NA
ATOM     10  C   UNL     1      -0.842   4.986  24.859  0.00  0.00    +0.242 C 
ATOM     11  C   UNL     1      -0.080   5.179  24.608  0.00  0.00    +0.096 C 
ATOM     12  O   UNL     1      -1.371   5.585  25.070  0.00  0.00    -0.273 OA
ENDBRANCH   8   9
BRANCH   1  18
ATOM     18  C   UNL     1      -4.584   1.754  24.574  0.00  0.00    +0.077 C 
ATOM     19  C   UNL     1      -4.886   1.845  23.811  0.00  0.00    +0.009 C 
BRANCH  18  20
ATOM     20  C   UNL     1      -4.689   1.042  24.976  0.00  0.00    +0.241 C 
ATOM     21  O   UNL     1      -5.211   1.002  25.615  0.00  0.00    -0.273 OA
ATOM     22  N   UNL     1      -4.272   0.370  24.742  0.00  0.00    -0.200 NA
BRANCH  22  23
ATOM     23  C   UNL     1      -4.377  -0.342  25.144  0.00  0.00    +0.144 C 
BRANCH  23  24
ATOM     24  C   UNL     1      -4.066  -1.041  24.835  0.00  0.00    +0.033 A 
ATOM     25  C   UNL     1      -3.444  -1.422  25.220  0.00  0.00    +0.136 A 
ATOM     28  C   UNL     1      -3.133  -2.121  24.911  0.00  0.00    +0.037 A 
ATOM     29  C   UNL     1      -3.445  -2.439  24.217  0.00  0.00    +0.003 A 
ATOM     30  C   UNL     1      -4.068  -2.058  23.832  0.00  0.00    -0.000 A 
ATOM     31  C   UNL     1      -4.378  -1.360  24.141  0.00  0.00    +0.000 A 
BRANCH  25  26
ATOM     26  O   UNL     1      -3.131  -1.103  25.915  0.00  0.00    -0.472 OA
ATOM     27  C   UNL     1      -2.382  -1.334  26.173  0.00  0.00    +0.252 C 
ENDBRANCH  25  26
ENDBRANCH  23  24
ENDBRANCH  22  23
ENDBRANCH  18  20
ENDBRANCH   1  18
TORSDOF 6
ENDMDL
MODEL 2
REMARK VINA RESULT:     -12.1      1.658      5.666
REMARK  Name = 
REMARK  6 active torsions:
REMARK  status: ('A' for Active; 'I' for Inactive)
REMARK    1  A    between atoms: C_2  and  C_20
REMARK    2  A    between atoms: C_9  and  N_10
REMARK    3  A    between atoms: C_20  and  C_22
REMARK    4  A    between atoms: N_24  and  C_25
REMARK    5  A    between atoms: C_25  and  C_26
REMARK    6  A    between atoms: C_27  and  O_28
REMARK                            x       y       z     vdW  Elec       q    Type
REMARK                         _______ _______ _______ _____ _____    ______ ____
ROOT
ATOM      1  C   UNL     1      -1.789   0.751  24.501  0.00  0.00    +0.052 C 
ATOM      2  C   UNL     1      -2.460   1.165  24.260  0.00  0.00    -0.001 C 
ATOM      3  C   UNL     1      -3.176   0.769  24.161  0.00  0.00    -0.000 C 
ATOM      4  C   UNL     1      -3.221  -0.044  24.303  0.00  0.00    -0.001 C 
ATOM      5  C   UNL     1      -3.893   0.371  24.062  0.00  0.00    -0.000 C 
ATOM      6  C   UNL     1      -3.938  -0.440  24.203  0.00  0.00    +0.002 C 
ATOM      7  C   UNL     1      -3.983  -1.252  24.345  0.00  0.00    +0.022 C 
ATOM      8  C   UNL     1      -3.311  -1.667  24.586  0.00  0.00    +0.095 C 
ATOM     13  C   UNL     1      -2.595  -1.270  24.685  0.00  0.00    +0.019 C 
ATOM     14  C   UNL     1      -1.925  -1.685  24.926  0.00  0.00    +0.002 C 
ATOM     15  C   UNL     1      -2.550  -0.458  24.543  0.00  0.00    +0.045 C 
ATOM     16  C   UNL     1      -1.834  -0.062  24.643  0.00  0.00    +0.145 C 
ATOM     17  O   UNL     1      -1.162  -0.476  24.883  0.00  0.00    -0.224 OA
ENDROOT
BRANCH   8   9
ATOM      9  N   UNL     1      -3.356  -2.478  24.727  0.00  0.00    -0.207 NA
ATOM     10  C   UNL     1      -3.829  -2.955  24.247  0.00  0.00    +0.242 C 
ATOM     11  C   UNL     1      -3.874  -3.766  24.389  0.00  0.00    +0.096 C 
ATOM     12  O   UNL     1      -4.257  -2.620  23.625  0.00  0.00    -0.273 OA
ENDBRANCH   8   9
BRANCH   1  18
ATOM     18  C   UNL     1      -1.072   1.147  24.600  0.00  0.00    +0.077 C 
ATOM     19  C   UNL     1      -0.427   0.958  24.122  0.00  0.00    +0.009 C 
BRANCH  18  20
ATOM     20  C   UNL     1      -1.000   1.731  25.177  0.00  0.00    +0.241 C 
ATOM     21  O   UNL     1      -0.775   1.528  25.945  0.00  0.00    -0.273 OA
ATOM     22  N   UNL     1      -1.153   2.520  24.988  0.00  0.00    -0.200 NA
BRANCH  22  23
ATOM     23  C   UNL     1      -1.081   3.104  25.565  0.00  0.00    +0.144 C 
BRANCH  23  24
ATOM     24  C   UNL     1      -1.180   3.899  25.364  0.00  0.00    +0.033 A 
ATOM     25  C   UNL     1      -1.838   4.314  25.634  0.00  0.00    +0.136 A 
ATOM     28  C   UNL     1      -1.937   5.108  25.433  0.00  0.00    +0.037 A 
ATOM     29  C   UNL     1      -1.377   5.486  24.960  0.00  0.00    +0.003 A 
ATOM     30  C   UNL     1      -0.717   5.070  24.689  0.00  0.00    -0.000 A 
ATOM     31  C   UNL     1      -0.619   4.277  24.891  0.00  0.00    +0.000 A 
BRANCH  25  26
ATOM     26  O   UNL     1      -2.399   3.936  26.107  0.00  0.00    -0.472 OA
ATOM     27  C   UNL     1      -3.120   4.304  26.267  0.00  0.00    +0.252 C 
ENDBRANCH  25  26
ENDBRANCH  23  24
ENDBRANCH  22  23
ENDBRANCH  18  20
ENDBRANCH   1  18
TORSDOF 6
ENDMDL
MODEL 3
REMARK VINA RESULT:     -11.9      1.317      5.053
REMARK  Name = 
REMARK  6 active torsions:
REMARK  status: ('A' for Active; 'I' for Inactive)
REMARK    1  A    between atoms: C_2  and  C_20
REMARK    2  A    between atoms: C_9  and  N_10
REMARK    3  A    between atoms: C_20  and  C_22
REMARK    4  A    between atoms: N_24  and  C_25
REMARK    5  A    between atoms: C_25  and  C_26
REMARK    6  A    between atoms: C_27  and  O_28
REMARK                            x       y       z     vdW  Elec       q    Type
REMARK                         _______ _______ _______ _____ _____    ______ ____
ROOT
ATOM      1  C   UNL     1      -4.095   2.090  24.543  0.00  0.00    +0.052 C 
ATOM      2  C   UNL     1      -3.684   2.172  23.833  0.00  0.00    -0.001 C 
ATOM      3  C   UNL     1      -3.420   1.504  23.430  0.00  0.00    -0.000 C 
ATOM      4  C   UNL     1      -3.567   0.751  23.736  0.00  0.00    -0.001 C 
ATOM      5  C   UNL     1      -3.155   0.835  23.026  0.00  0.00    -0.000 C 
ATOM      6  C   UNL     1      -3.302   0.083  23.332  0.00  0.00    +0.002 C 
ATOM      7  C   UNL     1      -3.448  -0.669  23.638  0.00  0.00    +0.022 C 
ATOM      8  C   UNL     1      -3.860  -0.752  24.349  0.00  0.00    +0.095 C 
ATOM     13  C   UNL     1      -4.124  -0.083  24.753  0.00  0.00    +0.019 C 
ATOM     14  C   UNL     1      -4.536  -0.167  25.463  0.00  0.00    +0.002 C 
ATOM     15  C   UNL     1      -3.978   0.669  24.446  0.00  0.00    +0.045 C 
ATOM     16  C   UNL     1      -4.242   1.337  24.850  0.00  0.00    +0.145 C 
ATOM     17  O   UNL     1      -4.654   1.255  25.561  0.00  0.00    -0.224 OA
ENDROOT
BRANCH   8   9
ATOM      9  N   UNL     1      -4.007  -1.503  24.655  0.00  0.00    -0.207 NA
ATOM     10  C   UNL     1      -3.423  -2.086  24.616  0.00  0.00    +0.242 C 
ATOM     11  C   UNL     1      -3.570  -2.838  24.922  0.00  0.00    +0.096 C 
ATOM     12  O   UNL     1      -2.693  -1.916  24.270  0.00  0.00    -0.273 OA
ENDBRANCH   8   9
BRANCH   1  18
ATOM     18  C   UNL     1      -4.360   2.758  24.948  0.00  0.00    +0.077 C 
ATOM     19  C   UNL     1      -5.125   3.040  24.821  0.00  0.00    +0.009 C 
BRANCH  18  20
ATOM     20  C   UNL     1      -3.861   3.145  25.478  0.00  0.00    +0.241 C 
ATOM     21  O   UNL     1      -4.072   3.204  26.274  0.00  0.00    -0.273 OA
ATOM     22  N   UNL     1      -3.152   3.473  25.214  0.00  0.00    -0.200 NA
BRANCH  22  23
ATOM     23  C   UNL     1      -2.653   3.860  25.744  0.00  0.00    +0.144 C 
BRANCH  23  24
ATOM     24  C   UNL     1      -1.973   4.240  25.470  0.00  0.00    +0.033 A 
ATOM     25  C   UNL     1      -1.236   3.883  25.560  0.00  0.00    +0.136 A 
ATOM     28  C   UNL     1      -0.556   4.263  25.286  0.00  0.00    +0.037 A 
ATOM     29  C   UNL     1      -0.616   5.001  24.922  0.00  0.00    +0.003 A 
ATOM     30  C   UNL     1      -1.354   5.358  24.831  0.00  0.00    -0.000 A 
ATOM     31  C   UNL     1      -2.033   4.977  25.105  0.00  0.00    +0.000 A 
BRANCH  25  26
ATOM     26  O   UNL     1      -1.176   3.144  25.925  0.00  0.00    -0.472 OA
ATOM     27  C   UNL     1      -0.439   2.782  26.003  0.00  0.00    +0.252 C 
ENDBRANCH  25  26
ENDBRANCH  23  24
ENDBRANCH  22  23
ENDBRANCH  18  20
ENDBRANCH   1  18
TORSDOF 6
ENDMDL
MODEL 4
REMARK VINA RESULT:     -11.8      1.687      2.773
REMARK  Name = 
REMARK  6 active torsions:
REMARK  status: ('A' for Active; 'I' for Inactive)
REMARK    1  A    between atoms: C_2  and  C_20
REMARK    2  A    between atoms: C_9  and  N_10
REMARK    3  A    between atoms: C_20  and  C_22
REMARK    4  A    between atoms: N_24  and  C_25
REMARK    5  A    between atoms: C_25  and  C_26
REMARK    6  A    between atoms: C_27  and  O_28
REMARK                            x       y       z     vdW  Elec       q    Type
REMARK                         _______ _______ _______ _____ _____    ______ ____
ROOT
ATOM      1  C   UNL     1      -1.606   1.943  24.614  0.00  0.00    +0.052 C 
ATOM      2  C   UNL     1      -1.159   2.318  25.196  0.00  0.00    -0.001 C 
ATOM      3  C   UNL     1      -1.482   2.943  25.626  0.00  0.00    -0.000 C 
ATOM      4  C   UNL     1      -2.255   3.193  25.473  0.00  0.00    -0.001 C 
ATOM      5  C   UNL     1      -1.807   3.569  26.056  0.00  0.00    -0.000 C 
ATOM      6  C   UNL     1      -2.578   3.818  25.903  0.00  0.00    +0.002 C 
ATOM      7  C   UNL     1      -3.350   4.068  25.751  0.00  0.00    +0.022 C 
ATOM      8  C   UNL     1      -3.798   3.692  25.168  0.00  0.00    +0.095 C 
ATOM     13  C   UNL     1      -3.473   3.067  24.738  0.00  0.00    +0.019 C 
ATOM     14  C   UNL     1      -3.921   2.692  24.156  0.00  0.00    +0.002 C 
ATOM     15  C   UNL     1      -2.702   2.817  24.891  0.00  0.00    +0.045 C 
ATOM     16  C   UNL     1      -2.378   2.193  24.461  0.00  0.00    +0.145 C 
ATOM     17  O   UNL     1      -2.825   1.817  23.878  0.00  0.00    -0.224 OA
ENDROOT
BRANCH   8   9
ATOM      9  N   UNL     1      -4.568   3.941  25.015  0.00  0.00    -0.207 NA
ATOM     10  C   UNL     1      -5.142   3.894  25.607  0.00  0.00    +0.242 C 
ATOM     11  C   UNL     1      -5.913   4.144  25.454  0.00  0.00    +0.096 C 
ATOM     12  O   UNL     1      -4.944   3.597  26.351  0.00  0.00    -0.273 OA
ENDBRANCH   8   9
BRANCH   1  18
ATOM     18  C   UNL     1      -1.282   1.318  24.184  0.00  0.00    +0.077 C 
ATOM     19  C   UNL     1      -1.095   1.419  23.387  0.00  0.00    +0.009 C 
BRANCH  18  20
ATOM     20  C   UNL     1      -1.145   0.592  24.550  0.00  0.00    +0.241 C 
ATOM     21  O   UNL     1      -0.419   0.443  24.914  0.00  0.00    -0.273 OA
ATOM     22  N   UNL     1      -1.734   0.013  24.552  0.00  0.00    -0.200 NA
BRANCH  22  23
ATOM     23  C   UNL     1      -1.597  -0.713  24.918  0.00  0.00    +0.144 C 
BRANCH  23  24
ATOM     24  C   UNL     1      -2.222  -1.238  25.042  0.00  0.00    +0.033 A 
ATOM     25  C   UNL     1      -2.195  -1.995  24.717  0.00  0.00    +0.136 A 
ATOM     28  C   UNL     1      -2.820  -2.520  24.840  0.00  0.00    +0.037 A 
ATOM     29  C   UNL     1      -3.471  -2.286  25.289  0.00  0.00    +0.003 A 
ATOM     30  C   UNL     1      -3.498  -1.528  25.615  0.00  0.00    -0.000 A 
ATOM     31  C   UNL     1      -2.873  -1.004  25.491  0.00  0.00    +0.000 A 
BRANCH  25  26
ATOM     26  O   UNL     1      -1.543  -2.229  24.267  0.00  0.00    -0.472 OA
ATOM     27  C   UNL     1      -1.512  -2.991  23.952  0.00  0.00    +0.252 C 
ENDBRANCH  25  26
ENDBRANCH  23  24
ENDBRANCH  22  23
ENDBRANCH  18  20
ENDBRANCH   1  18
TORSDOF 6
ENDMDL
MODEL 5
REMARK VINA RESULT:     -11.5      2.008      3.681
REMARK  Name = 
REMARK  6 active torsions:
REMARK  status: ('A' for Active; 'I' for Inactive)
REMARK    1  A    between atoms: C_2  and  C_20
REMARK    2  A    between atoms: C_9  and  N_10
REMARK    3  A    between atoms: C_20  and  C_22
REMARK    4  A    between atoms: N_24  and  C_25
REMARK    5  A    between atoms: C_25  and  C_26
REMARK    6  A    between atoms: C_27  and  O_28
REMARK                            x       y       z     vdW  Elec       q    Type
REMARK                         _______ _______ _______ _____ _____    ______ ____
ROOT
ATOM      1  C   UNL     1      -1.751   3.324  24.864  0.00  0.00    +0.052 C 
ATOM      2  C   UNL     1      -1.746   3.761  25.564  0.00  0.00    -0.001 C 
ATOM      3  C   UNL     1      -2.453   3.914  25.959  0.00  0.00    -0.000 C 
ATOM      4  C   UNL     1      -3.167   3.630  25.654  0.00  0.00    -0.001 C 
ATOM      5  C   UNL     1      -3.161   4.067  26.355  0.00  0.00    -0.000 C 
ATOM      6  C   UNL     1      -3.874   3.784  26.051  0.00  0.00    +0.002 C 
ATOM      7  C   UNL     1      -4.587   3.501  25.746  0.00  0.00    +0.022 C 
ATOM      8  C   UNL     1      -4.592   3.064  25.045  0.00  0.00    +0.095 C 
ATOM     13  C   UNL     1      -3.884   2.911  24.650  0.00  0.00    +0.019 C 
ATOM     14  C   UNL     1      -3.889   2.474  23.951  0.00  0.00    +0.002 C 
ATOM     15  C   UNL     1      -3.171   3.194  24.955  0.00  0.00    +0.045 C 
ATOM     16  C   UNL     1      -2.464   3.041  24.560  0.00  0.00    +0.145 C 
ATOM     17  O   UNL     1      -2.469   2.604  23.859  0.00  0.00    -0.224 OA
ENDROOT
BRANCH   8   9
ATOM      9  N   UNL     1      -5.303   2.781  24.741  0.00  0.00    -0.207 NA
ATOM     10  C   UNL     1      -5.803   2.325  25.215  0.00  0.00    +0.242 C 
ATOM     11  C   UNL     1      -6.515   2.041  24.911  0.00  0.00    +0.096 C 
ATOM     12  O   UNL     1      -5.589   2.152  25.994  0.00  0.00    -0.273 OA
ENDBRANCH   8   9
BRANCH   1  18
ATOM     18  C   UNL     1      -1.044   3.171  24.468  0.00  0.00    +0.077 C 
ATOM     19  C   UNL     1      -0.848   3.602  23.793  0.00  0.00    +0.009 C 
BRANCH  18  20
ATOM     20  C   UNL     1      -0.533   2.587  24.747  0.00  0.00    +0.241 C 
ATOM     21  O   UNL     1       0.065   2.783  25.283  0.00  0.00    -0.273 OA
ATOM     22  N   UNL     1      -0.617   1.807  24.491  0.00  0.00    -0.200 NA
BRANCH  22  23
ATOM     23  C   UNL     1      -0.106   1.223  24.770  0.00  0.00    +0.144 C 
BRANCH  23  24
ATOM     24  C   UNL     1      -0.327   0.429  24.733  0.00  0.00    +0.033 A 
ATOM     25  C   UNL     1      -0.014  -0.059  24.146  0.00  0.00    +0.136 A 
ATOM     28  C   UNL     1      -0.234  -0.854  24.109  0.00  0.00    +0.037 A 
ATOM     29  C   UNL     1      -0.768  -1.159  24.659  0.00  0.00    +0.003 A 
ATOM     30  C   UNL     1      -1.081  -0.671  25.246  0.00  0.00    -0.000 A 
ATOM     31  C   UNL     1      -0.860   0.123  25.282  0.00  0.00    +0.000 A 
BRANCH  25  26
ATOM     26  O   UNL     1       0.520   0.247  23.596  0.00  0.00    -0.472 OA
ATOM     27  C   UNL     1       0.862  -0.250  23.033  0.00  0.00    +0.252 C 
ENDBRANCH  25  26
ENDBRANCH  23  24
ENDBRANCH  22  23
ENDBRANCH  18  20
ENDBRANCH   1  18
TORSDOF 6
ENDMDL
MODEL 6
REMARK VINA RESULT:     -11.4      2.046      2.775
REMARK  Name = 
REMARK  6 active torsions:
REMARK  status: ('A' for Active; 'I' for Inactive)
REMARK    1  A    between atoms: C_2  and  C_20
REMARK    2  A    between atoms: C_9  and  N_10
REMARK    3  A    between atoms: C_20  and  C_22
REMARK    4  A    between atoms: N_24  and  C_25
REMARK    5  A    between atoms: C_25  and  C_26
REMARK    6  A    between atoms: C_27  and  O_28
REMARK                            x       y       z     vdW  Elec       q    Type
REMARK                         _______ _______ _______ _____ _____    ______ ____
ROOT
ATOM      1  C   UNL     1      -0.530   0.919  24.863  0.00  0.00    +0.052 C 
ATOM      2  C   UNL     1      -0.357   0.879  25.668  0.00  0.00    -0.001 C 
ATOM      3  C   UNL     1      -0.337   1.568  26.120  0.00  0.00    -0.000 C 
ATOM      4  C   UNL     1      -0.492   2.299  25.766  0.00  0.00    -0.001 C 
ATOM      5  C   UNL     1      -0.318   2.259  26.572  0.00  0.00    -0.000 C 
ATOM      6  C   UNL     1      -0.473   2.988  26.219  0.00  0.00    +0.002 C 
ATOM      7  C   UNL     1      -0.627   3.717  25.866  0.00  0.00    +0.022 C 
ATOM      8  C   UNL     1      -0.800   3.757  25.059  0.00  0.00    +0.095 C 
ATOM     13  C   UNL     1      -0.819   3.067  24.608  0.00  0.00    +0.019 C 
ATOM     14  C   UNL     1      -0.993   3.107  23.802  0.00  0.00    +0.002 C 
ATOM     15  C   UNL     1      -0.665   2.338  24.961  0.00  0.00    +0.045 C 
ATOM     16  C   UNL     1      -0.684   1.649  24.509  0.00  0.00    +0.145 C 
ATOM     17  O   UNL     1      -0.858   1.688  23.703  0.00  0.00    -0.224 OA
ENDROOT
BRANCH   8   9
ATOM      9  N   UNL     1      -0.954   4.486  24.706  0.00  0.00    -0.207 NA
ATOM     10  C   UNL     1      -1.483   5.012  25.060  0.00  0.00    +0.242 C 
ATOM     11  C   UNL     1      -1.637   5.742  24.706  0.00  0.00    +0.096 C 
ATOM     12  O   UNL     1      -1.858   4.808  25.767  0.00  0.00    -0.273 OA
ENDBRANCH   8   9
BRANCH   1  18
ATOM     18  C   UNL     1      -0.549   0.229  24.410  0.00  0.00    +0.077 C 
ATOM     19  C   UNL     1      -0.120   0.186  23.707  0.00  0.00    +0.009 C 
BRANCH  18  20
ATOM     20  C   UNL     1      -0.998  -0.416  24.660  0.00  0.00    +0.241 C 
ATOM     21  O   UNL     1      -0.663  -0.983  25.159  0.00  0.00    -0.273 OA
ATOM     22  N   UNL     1      -1.780  -0.497  24.411  0.00  0.00    -0.200 NA
BRANCH  22  23
ATOM     23  C   UNL     1      -2.229  -1.142  24.660  0.00  0.00    +0.144 C 
BRANCH  23  24
ATOM     24  C   UNL     1      -3.022  -1.204  24.442  0.00  0.00    +0.033 A 
ATOM     25  C   UNL     1      -3.364  -1.946  24.334  0.00  0.00    +0.136 A 
ATOM     28  C   UNL     1      -4.158  -2.007  24.115  0.00  0.00    +0.037 A 
ATOM     29  C   UNL     1      -4.609  -1.325  24.005  0.00  0.00    +0.003 A 
ATOM     30  C   UNL     1      -4.266  -0.581  24.113  0.00  0.00    -0.000 A 
ATOM     31  C   UNL     1      -3.473  -0.521  24.331  0.00  0.00    +0.000 A 
BRANCH  25  26
ATOM     26  O   UNL     1      -2.913  -2.629  24.445  0.00  0.00    -0.472 OA
ATOM     27  C   UNL     1      -3.287  -3.357  24.548  0.00  0.00    +0.252 C 
ENDBRANCH  25  26
ENDBRANCH  23  24
ENDBRANCH  22  23
ENDBRANCH  18  20
ENDBRANCH   1  18
TORSDOF 6
ENDMDL
MODEL 7
REMARK VINA RESULT:     -11.3      1.285      5.124
REMARK  Name = 
REMARK  6 active torsions:
REMARK  status: ('A' for Active; 'I' for Inactive)
REMARK    1  A    between atoms: C_2  and  C_20
REMARK    2  A    between atoms: C_9  and  N_10
REMARK    3  A    between atoms: C_20  and  C_22
REMARK    4  A    between atoms: N_24  and  C_25
REMARK    5  A    between atoms: C_25  and  C_26
REMARK    6  A    between atoms: C_27  and  O_28
REMARK                            x       y       z     vdW  Elec       q    Type
REMARK                         _______ _______ _______ _____ _____    ______ ____
ROOT
ATOM      1  C   UNL     1      -4.290   0.319  24.766  0.00  0.00    +0.052 C 
ATOM      2  C   UNL     1      -4.745  -0.108  24.227  0.00  0.00    -0.001 C 
ATOM      3  C   UNL     1      -4.524  -0.873  24.015  0.00  0.00    -0.000 C 
ATOM      4  C   UNL     1      -3.846  -1.212  24.343  0.00  0.00    -0.001 C 
ATOM      5  C   UNL     1      -4.302  -1.640  23.803  0.00  0.00    -0.000 C 
ATOM      6  C   UNL     1      -3.624  -1.978  24.131  0.00  0.00    +0.002 C 
ATOM      7  C   UNL     1      -2.947  -2.317  24.458  0.00  0.00    +0.022 C 
ATOM      8  C   UNL     1      -2.491  -1.890  24.998  0.00  0.00    +0.095 C 
ATOM     13  C   UNL     1      -2.714  -1.124  25.209  0.00  0.00    +0.019 C 
ATOM     14  C   UNL     1      -2.258  -0.698  25.749  0.00  0.00    +0.002 C 
ATOM     15  C   UNL     1      -3.391  -0.785  24.882  0.00  0.00    +0.045 C 
ATOM     16  C   UNL     1      -3.612  -0.020  25.094  0.00  0.00    +0.145 C 
ATOM     17  O   UNL     1      -3.157   0.407  25.633  0.00  0.00    -0.224 OA
ENDROOT
BRANCH   8   9
ATOM      9  N   UNL     1      -1.815  -2.228  25.325  0.00  0.00    -0.207 NA
ATOM     10  C   UNL     1      -1.203  -2.485  24.834  0.00  0.00    +0.242 C 
ATOM     11  C   UNL     1      -0.526  -2.824  25.162  0.00  0.00    +0.096 C 
ATOM     12  O   UNL     1      -1.268  -2.402  24.015  0.00  0.00    -0.273 OA
ENDBRANCH   8   9
BRANCH   1  18
ATOM     18  C   UNL     1      -4.512   1.085  24.978  0.00  0.00    +0.077 C 
ATOM     19  C   UNL     1      -5.040   1.204  25.601  0.00  0.00    +0.009 C 
BRANCH  18  20
ATOM     20  C   UNL     1      -4.206   1.732  24.569  0.00  0.00    +0.241 C 
ATOM     21  O   UNL     1      -4.406   1.851  23.776  0.00  0.00    -0.273 OA
ATOM     22  N   UNL     1      -3.700   2.261  24.950  0.00  0.00    -0.200 NA
BRANCH  22  23
ATOM     23  C   UNL     1      -3.394   2.908  24.540  0.00  0.00    +0.144 C 
BRANCH  23  24
ATOM     24  C   UNL     1      -2.915   3.455  24.930  0.00  0.00    +0.033 A 
ATOM     25  C   UNL     1      -2.119   3.524  24.728  0.00  0.00    +0.136 A 
ATOM     28  C   UNL     1      -1.640   4.071  25.118  0.00  0.00    +0.037 A 
ATOM     29  C   UNL     1      -1.958   4.549  25.711  0.00  0.00    +0.003 A 
ATOM     30  C   UNL     1      -2.755   4.479  25.914  0.00  0.00    -0.000 A 
ATOM     31  C   UNL     1      -3.233   3.932  25.523  0.00  0.00    +0.000 A 
BRANCH  25  26
ATOM     26  O   UNL     1      -1.800   3.046  24.135  0.00  0.00    -0.472 OA
ATOM     27  C   UNL     1      -0.983   3.013  24.027  0.00  0.00    +0.252 C 
ENDBRANCH  25  26
ENDBRANCH  23  24
ENDBRANCH  22  23
ENDBRANCH  18  20
ENDBRANCH   1  18
TORSDOF 6
ENDMDL
MODEL 8
REMARK VINA RESULT:     -11.2      2.145      5.323
REMARK  Name = 
REMARK  6 active torsions:
REMARK  status: ('A' for Active; 'I' for Inactive)
REMARK    1  A    between atoms: C_2  and  C_20
REMARK    2  A    between atoms: C_9  and  N_10
REMARK    3  A    between atoms: C_20  and  C_22
REMARK    4  A    between atoms: N_24  and  C_25
REMARK    5  A    between atoms: C_25  and  C_26
REMARK    6  A    between atoms: C_27  and  O_28
REMARK                            x       y       z     vdW  Elec       q    Type
REMARK                         _______ _______ _______ _____ _____    ______ ____
ROOT
ATOM      1  C   UNL     1      -0.360   1.781  25.071  0.00  0.00    +0.052 C 
ATOM      2  C   UNL     1       0.061   1.783  24.362  0.00  0.00    -0.001 C 
ATOM      3  C   UNL     1       0.155   1.082  23.937  0.00  0.00    -0.000 C 
ATOM      4  C   UNL     1      -0.173   0.380  24.222  0.00  0.00    -0.001 C 
ATOM      5  C   UNL     1       0.248   0.381  23.512  0.00  0.00    -0.000 C 
ATOM      6  C   UNL     1      -0.078  -0.321  23.796  0.00  0.00    +0.002 C 
ATOM      7  C   UNL     1      -0.405  -1.023  24.081  0.00  0.00    +0.022 C 
ATOM      8  C   UNL     1      -0.826  -1.025  24.791  0.00  0.00    +0.095 C 
ATOM     13  C   UNL     1      -0.920  -0.324  25.216  0.00  0.00    +0.019 C 
ATOM     14  C   UNL     1      -1.341  -0.326  25.925  0.00  0.00    +0.002 C 
ATOM     15  C   UNL     1      -0.593   0.378  24.931  0.00  0.00    +0.045 C 
ATOM     16  C   UNL     1      -0.687   1.079  25.356  0.00  0.00    +0.145 C 
ATOM     17  O   UNL     1      -1.108   1.078  26.066  0.00  0.00    -0.224 OA
ENDROOT
BRANCH   8   9
ATOM      9  N   UNL     1      -1.153  -1.726  25.075  0.00  0.00    -0.207 NA
ATOM     10  C   UNL     1      -1.652  -2.173  24.594  0.00  0.00    +0.242 C 
ATOM     11  C   UNL     1      -1.979  -2.876  24.878  0.00  0.00    +0.096 C 
ATOM     12  O   UNL     1      -1.825  -1.918  23.828  0.00  0.00    -0.273 OA
ENDBRANCH   8   9
BRANCH   1  18
ATOM     18  C   UNL     1      -0.454   2.482  25.497  0.00  0.00    +0.077 C 
ATOM     19  C   UNL     1      -0.070   2.579  26.221  0.00  0.00    +0.009 C 
BRANCH  18  20
ATOM     20  C   UNL     1      -0.931   3.085  25.200  0.00  0.00    +0.241 C 
ATOM     21  O   UNL     1      -0.597   3.691  24.749  0.00  0.00    -0.273 OA
ATOM     22  N   UNL     1      -1.742   3.083  25.351  0.00  0.00    -0.200 NA
BRANCH  22  23
ATOM     23  C   UNL     1      -2.219   3.686  25.054  0.00  0.00    +0.144 C 
BRANCH  23  24
ATOM     24  C   UNL     1      -3.026   3.698  25.226  0.00  0.00    +0.033 A 
ATOM     25  C   UNL     1      -3.576   3.517  24.639  0.00  0.00    +0.136 A 
ATOM     28  C   UNL     1      -4.383   3.529  24.811  0.00  0.00    +0.037 A 
ATOM     29  C   UNL     1      -4.639   3.721  25.571  0.00  0.00    +0.003 A 
ATOM     30  C   UNL     1      -4.089   3.902  26.159  0.00  0.00    -0.000 A 
ATOM     31  C   UNL     1      -3.283   3.890  25.986  0.00  0.00    +0.000 A 
BRANCH  25  26
ATOM     26  O   UNL     1      -3.319   3.325  23.878  0.00  0.00    -0.472 OA
ATOM     27  C   UNL     1      -3.862   3.065  23.313  0.00  0.00    +0.252 C 
ENDBRANCH  25  26
ENDBRANCH  23  24
ENDBRANCH  22  23
ENDBRANCH  18  20
ENDBRANCH   1  18
TORSDOF 6
ENDMDL
