REMARK  Name = 
REMARK  5 active torsions:
REMARK  status: ('A' for Active; 'I' for Inactive)
REMARK    1  A    between atoms: S_2  and  N_4
REMARK    2  A    between atoms: S_2  and  C_25
REMARK    3  A    between atoms: N_4  and  C_5
REMARK    4  A    between atoms: C_9  and  N_13
REMARK    5  A    between atoms: C_16  and  C_20
REMARK                            x       y       z     vdW  Elec       q    Type
REMARK                         _______ _______ _______ _____ _____    ______ ____
ROOT
ATOM      5  C   UNL     1      -1.429   0.000   0.000  0.00  0.00    +0.157 C 
ATOM      6  C   UNL     1      -1.515  -0.821   0.000  0.00  0.00    +0.164 C 
ATOM      7  O   UNL     1      -2.322  -0.992   0.000  0.00  0.00    -0.350 OA
ATOM      8  C   UNL     1      -2.735  -0.278   0.000  0.00  0.00    +0.166 C 
ATOM      9  C   UNL     1      -3.488   0.058   0.000  0.00  0.00    +0.154 C 
ATOM     10  C   UNL     1      -3.402   0.878   0.000  0.00  0.00    +0.166 C 
ATOM     11  O   UNL     1      -2.595   1.050   0.000  0.00  0.00    -0.350 OA
ATOM     12  C   UNL     1      -2.183   0.336   0.000  0.00  0.00    +0.164 C 
ENDROOT
BRANCH   9  13
ATOM     13  N   UNL     1      -4.203  -0.354   0.000  0.00  0.00    -0.200 NA
ATOM     14  C   UNL     1      -4.917   0.058   0.000  0.00  0.00    +0.237 A 
ATOM     15  N   UNL     1      -5.632  -0.354   0.000  0.00  0.00    -0.209 NA
ATOM     16  C   UNL     1      -6.346   0.058   0.000  0.00  0.00    +0.120 A 
ATOM     17  C   UNL     1      -6.346   0.883   0.000  0.00  0.00    +0.043 A 
ATOM     18  C   UNL     1      -5.632   1.296   0.000  0.00  0.00    +0.104 A 
ATOM     19  N   UNL     1      -4.917   0.883   0.000  0.00  0.00    -0.211 NA
BRANCH  16  20
ATOM     20  C   UNL     1      -7.061  -0.354   0.000  0.00  0.00    +0.163 A 
ATOM     21  C   UNL     1      -7.147  -1.175   0.000  0.00  0.00    +0.042 A 
ATOM     22  C   UNL     1      -7.954  -1.347   0.000  0.00  0.00    +0.044 A 
ATOM     23  C   UNL     1      -8.366  -0.632   0.000  0.00  0.00    +0.180 A 
ATOM     24  O   UNL     1      -7.814  -0.019   0.000  0.00  0.00    -0.449 OA
ENDBRANCH  16  20
ENDBRANCH   9  13
BRANCH   5   4
ATOM      4  N   UNL     1      -0.715   0.412   0.000  0.00  0.00    -0.074 NA
BRANCH   4   2
ATOM      1  O   UNL     1      -0.412  -0.715   0.000  0.00  0.00    -0.152 OA
ATOM      2  S   UNL     1       0.000   0.000   0.000  0.00  0.00    +0.077 S 
ATOM      3  O   UNL     1       0.412   0.715   0.000  0.00  0.00    -0.152 OA
BRANCH   2  25
ATOM     25  C   UNL     1       0.715  -0.412   0.000  0.00  0.00    +0.124 A 
ATOM     26  C   UNL     1       1.429   0.000   0.000  0.00  0.00    +0.020 A 
ATOM     27  C   UNL     1       2.143  -0.412   0.000  0.00  0.00    +0.001 A 
ATOM     28  C   UNL     1       2.858   0.000   0.000  0.00  0.00    +0.000 A 
ATOM     29  C   UNL     1       3.572  -0.412   0.000  0.00  0.00    +0.000 A 
ATOM     30  C   UNL     1       3.572  -1.238   0.000  0.00  0.00    +0.000 A 
ATOM     31  C   UNL     1       2.858  -1.650   0.000  0.00  0.00    +0.000 A 
ATOM     32  C   UNL     1       2.143  -1.238   0.000  0.00  0.00    +0.000 A 
ATOM     33  C   UNL     1       1.429  -1.650   0.000  0.00  0.00    +0.001 A 
ATOM     34  C   UNL     1       0.715  -1.238   0.000  0.00  0.00    +0.020 A 
ENDBRANCH   2  25
ENDBRANCH   4   2
ENDBRANCH   5   4
TORSDOF 5
