MODEL 1
REMARK VINA RESULT:      -9.6      0.000      0.000
REMARK  Name = 
REMARK  5 active torsions:
REMARK  status: ('A' for Active; 'I' for Inactive)
REMARK    1  A    between atoms: C_2  and  N_3
REMARK    2  A    between atoms: C_4  and  O_6
REMARK    3  A    between atoms: O_6  and  C_7
REMARK    4  A    between atoms: C_11  and  N_15
REMARK    5  A    between atoms: C_16  and  C_18
REMARK                            x       y       z     vdW  Elec       q    Type
REMARK                         _______ _______ _______ _____ _____    ______ ____
ROOT
ATOM      7  C   UNL     1      -2.969   2.777  24.764  0.00  0.00    +0.229 C 
ATOM      8  C   UNL     1      -2.273   2.418  24.504  0.00  0.00    +0.188 C 
ATOM      9  O   UNL     1      -2.434   1.622  24.365  0.00  0.00    -0.348 OA
ATOM     10  C   UNL     1      -3.229   1.487  24.539  0.00  0.00    +0.168 C 
ATOM     11  C   UNL     1      -3.820   0.913  24.560  0.00  0.00    +0.155 C 
ATOM     12  C   UNL     1      -4.516   1.271  24.820  0.00  0.00    +0.166 C 
ATOM     13  O   UNL     1      -4.355   2.068  24.959  0.00  0.00    -0.348 OA
ATOM     14  C   UNL     1      -3.560   2.202  24.785  0.00  0.00    +0.186 C 
ENDROOT
BRANCH  11  15
ATOM     15  N   UNL     1      -3.731   0.117  24.357  0.00  0.00    -0.197 NA
ATOM     16  C   UNL     1      -4.015  -0.472  24.860  0.00  0.00    +0.283 C 
ATOM     17  O   UNL     1      -4.388  -0.265  25.566  0.00  0.00    -0.267 OA
BRANCH  16  18
ATOM     18  C   UNL     1      -3.925  -1.265  24.657  0.00  0.00    +0.136 A 
ATOM     19  N   UNL     1      -4.292  -1.562  23.980  0.00  0.00    -0.239 NA
ATOM     20  C   UNL     1      -4.203  -2.357  23.777  0.00  0.00    +0.099 A 
ATOM     21  C   UNL     1      -3.746  -2.854  24.250  0.00  0.00    +0.021 A 
ATOM     22  C   UNL     1      -3.379  -2.558  24.927  0.00  0.00    +0.003 A 
ATOM     23  C   UNL     1      -3.469  -1.764  25.130  0.00  0.00    +0.024 A 
ENDBRANCH  16  18
ENDBRANCH  11  15
BRANCH   7   6
ATOM      6  O   UNL     1      -3.058   3.571  24.967  0.00  0.00    -0.432 OA
BRANCH   6   4
ATOM      3  N   UNL     1      -2.044   4.576  24.900  0.00  0.00    -0.169 NA
ATOM      4  C   UNL     1      -2.433   3.981  25.318  0.00  0.00    +0.421 C 
ATOM      5  O   UNL     1      -2.198   3.795  26.086  0.00  0.00    -0.225 OA
BRANCH   3   2
ATOM      1  C   UNL     1      -1.023   5.574  24.830  0.00  0.00    +0.025 C 
ATOM      2  C   UNL     1      -1.420   4.986  25.251  0.00  0.00    +0.119 C 
ENDBRANCH   3   2
ENDBRANCH   6   4
ENDBRANCH   7   6
TORSDOF 5
ENDMDL
MODEL 2
REMARK VINA RESULT:      -8.9      1.434      5.541
REMARK  Name = 
REMARK  5 active torsions:
REMARK  status: ('A' for Active; 'I' for Inactive)
REMARK    1  A    between atoms: C_2  and  N_3
REMARK    2  A    between atoms: C_4  and  O_6
REMARK    3  A    between atoms: O_6  and  C_7
REMARK    4  A    between atoms: C_11  and  N_15
REMARK    5  A    between atoms: C_16  and  C_18
REMARK                            x       y       z     vdW  Elec       q    Type
REMARK                         _______ _______ _______ _____ _____    ______ ____
ROOT
ATOM      7  C   UNL     1      -2.334  -0.234  25.182  0.00  0.00    +0.229 C 
ATOM      8  C   UNL     1      -3.019   0.144  24.919  0.00  0.00    +0.188 C 
ATOM      9  O   UNL     1      -2.852   0.948  24.843  0.00  0.00    -0.348 OA
ATOM     10  C   UNL     1      -2.065   1.068  25.058  0.00  0.00    +0.168 C 
ATOM     11  C   UNL     1      -1.476   1.638  25.145  0.00  0.00    +0.155 C 
ATOM     12  C   UNL     1      -0.791   1.260  25.408  0.00  0.00    +0.166 C 
ATOM     13  O   UNL     1      -0.958   0.455  25.484  0.00  0.00    -0.348 OA
ATOM     14  C   UNL     1      -1.745   0.337  25.268  0.00  0.00    +0.186 C 
ENDROOT
BRANCH  11  15
ATOM     15  N   UNL     1      -1.557   2.445  24.994  0.00  0.00    -0.197 NA
ATOM     16  C   UNL     1      -1.192   2.996  25.489  0.00  0.00    +0.283 C 
ATOM     17  O   UNL     1      -0.746   2.738  26.134  0.00  0.00    -0.267 OA
BRANCH  16  18
ATOM     18  C   UNL     1      -1.273   3.802  25.338  0.00  0.00    +0.136 A 
ATOM     19  N   UNL     1      -1.962   4.196  25.563  0.00  0.00    -0.239 NA
ATOM     20  C   UNL     1      -2.043   5.004  25.412  0.00  0.00    +0.099 A 
ATOM     21  C   UNL     1      -1.435   5.416  25.037  0.00  0.00    +0.021 A 
ATOM     22  C   UNL     1      -0.746   5.022  24.813  0.00  0.00    +0.003 A 
ATOM     23  C   UNL     1      -0.665   4.216  24.963  0.00  0.00    +0.024 A 
ENDBRANCH  16  18
ENDBRANCH  11  15
BRANCH   7   6
ATOM      6  O   UNL     1      -2.254  -1.041  25.332  0.00  0.00    -0.432 OA
BRANCH   6   4
ATOM      3  N   UNL     1      -2.985  -2.099  24.709  0.00  0.00    -0.169 NA
ATOM      4  C   UNL     1      -2.915  -1.534  25.306  0.00  0.00    +0.421 C 
ATOM      5  O   UNL     1      -3.506  -1.462  25.877  0.00  0.00    -0.225 OA
BRANCH   3   2
ATOM      1  C   UNL     1      -3.728  -3.140  24.072  0.00  0.00    +0.025 C 
ATOM      2  C   UNL     1      -3.646  -2.592  24.683  0.00  0.00    +0.119 C 
ENDBRANCH   3   2
ENDBRANCH   6   4
ENDBRANCH   7   6
TORSDOF 5
ENDMDL
MODEL 3
REMARK VINA RESULT:      -8.1      2.594      4.230
REMARK  Name = 
REMARK  5 active torsions:
REMARK  status: ('A' for Active; 'I' for Inactive)
REMARK    1  A    between atoms: C_2  and  N_3
REMARK    2  A    between atoms: C_4  and  O_6
REMARK    3  A    between atoms: O_6  and  C_7
REMARK    4  A    between atoms: C_11  and  N_15
REMARK    5  A    between atoms: C_16  and  C_18
REMARK                            x       y       z     vdW  Elec       q    Type
REMARK                         _______ _______ _______ _____ _____    ______ ____
ROOT
ATOM      7  C   UNL     1      -0.611   1.004  24.378  0.00  0.00    +0.229 C 
ATOM      8  C   UNL     1      -0.968   0.393  24.803  0.00  0.00    +0.188 C 
ATOM      9  O   UNL     1      -1.726   0.639  25.014  0.00  0.00    -0.348 OA
ATOM     10  C   UNL     1      -1.839   1.402  24.721  0.00  0.00    +0.168 C 
ATOM     11  C   UNL     1      -2.376   2.026  24.670  0.00  0.00    +0.155 C 
ATOM     12  C   UNL     1      -2.019   2.636  24.245  0.00  0.00    +0.166 C 
ATOM     13  O   UNL     1      -1.261   2.390  24.033  0.00  0.00    -0.348 OA
ATOM     14  C   UNL     1      -1.149   1.627  24.327  0.00  0.00    +0.186 C 
ENDROOT
BRANCH  11  15
ATOM     15  N   UNL     1      -3.138   2.036  24.988  0.00  0.00    -0.197 NA
ATOM     16  C   UNL     1      -3.749   2.415  24.583  0.00  0.00    +0.283 C 
ATOM     17  O   UNL     1      -3.598   2.782  23.860  0.00  0.00    -0.267 OA
BRANCH  16  18
ATOM     18  C   UNL     1      -4.509   2.425  24.901  0.00  0.00    +0.136 A 
ATOM     19  N   UNL     1      -4.731   3.028  25.420  0.00  0.00    -0.239 NA
ATOM     20  C   UNL     1      -5.492   3.039  25.738  0.00  0.00    +0.099 A 
ATOM     21  C   UNL     1      -6.031   2.447  25.538  0.00  0.00    +0.021 A 
ATOM     22  C   UNL     1      -5.809   1.844  25.020  0.00  0.00    +0.003 A 
ATOM     23  C   UNL     1      -5.049   1.834  24.702  0.00  0.00    +0.024 A 
ENDBRANCH  16  18
ENDBRANCH  11  15
BRANCH   7   6
ATOM      6  O   UNL     1       0.149   0.993  24.060  0.00  0.00    -0.432 OA
BRANCH   6   4
ATOM      3  N   UNL     1       0.977   0.406  23.054  0.00  0.00    -0.169 NA
ATOM      4  C   UNL     1       0.418   0.326  23.655  0.00  0.00    +0.421 C 
ATOM      5  O   UNL     1       0.127  -0.420  23.851  0.00  0.00    -0.225 OA
BRANCH   3   2
ATOM      1  C   UNL     1       1.904  -0.207  22.155  0.00  0.00    +0.025 C 
ATOM      2  C   UNL     1       1.246  -0.261  22.649  0.00  0.00    +0.119 C 
ENDBRANCH   3   2
ENDBRANCH   6   4
ENDBRANCH   7   6
TORSDOF 5
ENDMDL
