REMARK  Name = 
REMARK  4 active torsions:
REMARK  status: ('A' for Active; 'I' for Inactive)
REMARK    1  A    between atoms: C_6  and  C_7
REMARK    2  A    between atoms: C_13  and  C_15
REMARK    3  A    between atoms: N_17  and  C_18
REMARK    4  A    between atoms: C_25  and  C_27
REMARK                            x       y       z     vdW  Elec       q    Type
REMARK                         _______ _______ _______ _____ _____    ______ ____
ROOT
ATOM      7  C   UNL     1      -4.918  -1.652   0.000  0.00  0.00    +0.265 C 
ATOM      8  O   UNL     1      -5.089  -0.845   0.000  0.00  0.00    -0.268 OA
ATOM      9  N   UNL     1      -5.531  -2.204   0.000  0.00  0.00    -0.271 N 
ATOM     10  C   UNL     1      -5.359  -3.011   0.000  0.00  0.00    +0.115 C 
ATOM     11  C   UNL     1      -5.972  -3.563   0.000  0.00  0.00    +0.116 C 
ATOM     12  N   UNL     1      -6.757  -3.308   0.000  0.00  0.00    -0.265 N 
ATOM     13  C   UNL     1      -6.928  -2.501   0.000  0.00  0.00    +0.174 C 
ATOM     14  C   UNL     1      -6.315  -1.949   0.000  0.00  0.00    +0.123 C 
ATOM     25  C   UNL     1      -7.370  -3.860   0.000  0.00  0.00    +0.269 C 
ATOM     26  O   UNL     1      -8.155  -3.606   0.000  0.00  0.00    -0.268 OA
ENDROOT
BRANCH   7   6
ATOM      1  C   UNL     1      -3.466  -0.597   0.000  0.00  0.00    +0.131 C 
ATOM      2  N   UNL     1      -3.466  -1.422   0.000  0.00  0.00    -0.320 N 
ATOM      3  C   UNL     1      -2.798  -1.907   0.000  0.00  0.00    +0.076 A 
ATOM      4  C   UNL     1      -3.053  -2.692   0.000  0.00  0.00    +0.020 A 
ATOM      5  C   UNL     1      -3.878  -2.692   0.000  0.00  0.00    +0.023 A 
ATOM      6  C   UNL     1      -4.133  -1.907   0.000  0.00  0.00    +0.114 A 
ENDBRANCH   7   6
BRANCH  25  27
ATOM     27  C   UNL     1      -7.199  -4.667   0.000  0.00  0.00    +0.154 A 
ATOM     28  C   UNL     1      -6.414  -4.922   0.000  0.00  0.00    +0.123 A 
ATOM     29  N   UNL     1      -6.242  -5.729   0.000  0.00  0.00    -0.239 NA
ATOM     30  C   UNL     1      -6.856  -6.281   0.000  0.00  0.00    +0.120 A 
ATOM     31  C   UNL     1      -7.640  -6.026   0.000  0.00  0.00    +0.120 A 
ATOM     32  N   UNL     1      -7.812  -5.219   0.000  0.00  0.00    -0.236 NA
ENDBRANCH  25  27
BRANCH  13  15
ATOM     15  C   UNL     1      -7.713  -2.247   0.000  0.00  0.00    +0.262 C 
ATOM     16  O   UNL     1      -7.885  -1.440   0.000  0.00  0.00    -0.271 OA
ATOM     17  N   UNL     1      -8.326  -2.799   0.000  0.00  0.00    -0.196 NA
BRANCH  17  18
ATOM     18  C   UNL     1      -9.111  -2.544   0.000  0.00  0.00    +0.173 C 
ATOM     19  C   UNL     1      -9.724  -3.096   0.000  0.00  0.00    +0.033 C 
ATOM     20  C   UNL     1     -10.509  -2.841   0.000  0.00  0.00    +0.026 C 
ATOM     21  C   UNL     1     -10.680  -2.034   0.000  0.00  0.00    +0.115 C 
ATOM     22  N   UNL     1     -10.067  -1.482   0.000  0.00  0.00    -0.204 NA
ATOM     23  C   UNL     1      -9.282  -1.737   0.000  0.00  0.00    +0.261 C 
ATOM     24  O   UNL     1      -8.669  -1.185   0.000  0.00  0.00    -0.271 OA
ENDBRANCH  17  18
ENDBRANCH  13  15
TORSDOF 4
