MODEL 1
REMARK VINA RESULT:     -12.3      0.000      0.000
REMARK  Name = 
REMARK  5 active torsions:
REMARK  status: ('A' for Active; 'I' for Inactive)
REMARK    1  A    between atoms: C_4  and  C_13
REMARK    2  A    between atoms: N_5  and  C_6
REMARK    3  A    between atoms: C_6  and  C_7
REMARK    4  A    between atoms: C_15  and  C_18
REMARK    5  A    between atoms: C_21  and  C_24
REMARK                            x       y       z     vdW  Elec       q    Type
REMARK                         _______ _______ _______ _____ _____    ______ ____
ROOT
ATOM     13  C   UNL     1      -4.089   1.638  24.529  0.00  0.00    +0.251 A 
ATOM     14  N   UNL     1      -4.118   0.885  24.866  0.00  0.00    -0.190 NA
ATOM     15  C   UNL     1      -3.853   0.343  24.303  0.00  0.00    +0.203 A 
ATOM     16  N   UNL     1      -3.659   0.760  23.619  0.00  0.00    -0.056 NA
ATOM     17  O   UNL     1      -3.805   1.561  23.758  0.00  0.00    -0.336 OA
ENDROOT
BRANCH  13   4
ATOM      1  O   UNL     1      -5.670   3.737  25.763  0.00  0.00    -0.222 OA
ATOM      2  C   UNL     1      -5.032   3.308  25.465  0.00  0.00    +0.170 C 
ATOM      3  C   UNL     1      -5.071   2.562  25.114  0.00  0.00    +0.060 C 
ATOM      4  C   UNL     1      -4.305   2.343  24.898  0.00  0.00    +0.141 C 
ATOM      5  N   UNL     1      -3.794   2.954  25.114  0.00  0.00    -0.258 NA
ATOM     12  C   UNL     1      -4.244   3.550  25.465  0.00  0.00    +0.106 C 
BRANCH   5   6
ATOM      6  C   UNL     1      -2.977   2.966  25.001  0.00  0.00    +0.139 C 
BRANCH   6   7
ATOM      7  C   UNL     1      -2.542   3.634  25.210  0.00  0.00    +0.155 A 
ATOM      8  N   UNL     1      -2.401   4.291  24.731  0.00  0.00    -0.226 NA
ATOM      9  C   UNL     1      -1.942   4.826  25.160  0.00  0.00    +0.121 A 
ATOM     10  C   UNL     1      -1.799   4.499  25.904  0.00  0.00    +0.121 A 
ATOM     11  N   UNL     1      -2.169   3.763  25.934  0.00  0.00    -0.226 NA
ENDBRANCH   6   7
ENDBRANCH   5   6
ENDBRANCH  13   4
BRANCH  15  18
ATOM     18  C   UNL     1      -3.791  -0.473  24.408  0.00  0.00    +0.039 A 
ATOM     19  C   UNL     1      -3.234  -0.781  24.932  0.00  0.00    +0.003 A 
ATOM     20  C   UNL     1      -3.173  -1.597  25.036  0.00  0.00    +0.004 A 
ATOM     21  C   UNL     1      -3.669  -2.105  24.616  0.00  0.00    +0.071 A 
ATOM     22  C   UNL     1      -4.225  -1.797  24.091  0.00  0.00    +0.004 A 
ATOM     23  C   UNL     1      -4.287  -0.981  23.987  0.00  0.00    +0.003 A 
BRANCH  21  24
ATOM     24  C   UNL     1      -3.607  -2.921  24.719  0.00  0.00    +0.419 C 
ATOM     25  F   UNL     1      -3.546  -3.737  24.823  0.00  0.00    -0.166 F 
ATOM     26  F   UNL     1      -3.640  -2.820  25.537  0.00  0.00    -0.166 F 
ATOM     27  F   UNL     1      -3.575  -3.022  23.901  0.00  0.00    -0.166 F 
ENDBRANCH  21  24
ENDBRANCH  15  18
TORSDOF 5
ENDMDL
MODEL 2
REMARK VINA RESULT:     -11.3      2.049      2.837
REMARK  Name = 
REMARK  5 active torsions:
REMARK  status: ('A' for Active; 'I' for Inactive)
REMARK    1  A    between atoms: C_4  and  C_13
REMARK    2  A    between atoms: N_5  and  C_6
REMARK    3  A    between atoms: C_6  and  C_7
REMARK    4  A    between atoms: C_15  and  C_18
REMARK    5  A    between atoms: C_21  and  C_24
REMARK                            x       y       z     vdW  Elec       q    Type
REMARK                         _______ _______ _______ _____ _____    ______ ____
ROOT
ATOM     13  C   UNL     1      -1.194   0.536  25.157  0.00  0.00    +0.251 A 
ATOM     14  N   UNL     1      -1.714   0.130  24.662  0.00  0.00    -0.190 NA
ATOM     15  C   UNL     1      -2.045  -0.491  25.093  0.00  0.00    +0.203 A 
ATOM     16  N   UNL     1      -1.730  -0.468  25.855  0.00  0.00    -0.056 NA
ATOM     17  O   UNL     1      -1.203   0.167  25.895  0.00  0.00    -0.336 OA
ENDROOT
BRANCH  13   4
ATOM      1  O   UNL     1       0.970   2.205  24.176  0.00  0.00    -0.222 OA
ATOM      2  C   UNL     1       0.251   1.963  24.500  0.00  0.00    +0.170 C 
ATOM      3  C   UNL     1       0.010   1.183  24.613  0.00  0.00    +0.060 C 
ATOM      4  C   UNL     1      -0.743   1.196  24.951  0.00  0.00    +0.141 C 
ATOM      5  N   UNL     1      -0.966   1.984  25.046  0.00  0.00    -0.258 NA
ATOM     12  C   UNL     1      -0.351   2.459  24.767  0.00  0.00    +0.106 C 
BRANCH   5   6
ATOM      6  C   UNL     1      -1.678   2.252  25.364  0.00  0.00    +0.139 C 
BRANCH   6   7
ATOM      7  C   UNL     1      -1.864   3.055  25.343  0.00  0.00    +0.155 A 
ATOM      8  N   UNL     1      -1.679   3.611  25.923  0.00  0.00    -0.226 NA
ATOM      9  C   UNL     1      -1.968   4.344  25.676  0.00  0.00    +0.121 A 
ATOM     10  C   UNL     1      -2.332   4.240  24.942  0.00  0.00    +0.121 A 
ATOM     11  N   UNL     1      -2.267   3.444  24.737  0.00  0.00    -0.226 NA
ENDBRANCH   6   7
ENDBRANCH   5   6
ENDBRANCH  13   4
BRANCH  15  18
ATOM     18  C   UNL     1      -2.595  -1.038  24.812  0.00  0.00    +0.039 A 
ATOM     19  C   UNL     1      -2.378  -1.828  24.714  0.00  0.00    +0.003 A 
ATOM     20  C   UNL     1      -2.927  -2.374  24.434  0.00  0.00    +0.004 A 
ATOM     21  C   UNL     1      -3.694  -2.132  24.250  0.00  0.00    +0.071 A 
ATOM     22  C   UNL     1      -3.912  -1.342  24.348  0.00  0.00    +0.004 A 
ATOM     23  C   UNL     1      -3.361  -0.795  24.629  0.00  0.00    +0.003 A 
BRANCH  21  24
ATOM     24  C   UNL     1      -4.244  -2.679  23.969  0.00  0.00    +0.419 C 
ATOM     25  F   UNL     1      -4.794  -3.226  23.688  0.00  0.00    -0.166 F 
ATOM     26  F   UNL     1      -4.613  -2.085  23.533  0.00  0.00    -0.166 F 
ATOM     27  F   UNL     1      -3.875  -3.274  24.406  0.00  0.00    -0.166 F 
ENDBRANCH  21  24
ENDBRANCH  15  18
TORSDOF 5
ENDMDL
MODEL 3
REMARK VINA RESULT:     -11.0      1.170      1.981
REMARK  Name = 
REMARK  5 active torsions:
REMARK  status: ('A' for Active; 'I' for Inactive)
REMARK    1  A    between atoms: C_4  and  C_13
REMARK    2  A    between atoms: N_5  and  C_6
REMARK    3  A    between atoms: C_6  and  C_7
REMARK    4  A    between atoms: C_15  and  C_18
REMARK    5  A    between atoms: C_21  and  C_24
REMARK                            x       y       z     vdW  Elec       q    Type
REMARK                         _______ _______ _______ _____ _____    ______ ____
ROOT
ATOM     13  C   UNL     1      -2.675   1.564  24.482  0.00  0.00    +0.251 A 
ATOM     14  N   UNL     1      -2.880   0.851  24.842  0.00  0.00    -0.190 NA
ATOM     15  C   UNL     1      -2.883   0.264  24.262  0.00  0.00    +0.203 A 
ATOM     16  N   UNL     1      -2.680   0.615  23.543  0.00  0.00    -0.056 NA
ATOM     17  O   UNL     1      -2.551   1.419  23.679  0.00  0.00    -0.336 OA
ENDROOT
BRANCH  13   4
ATOM      1  O   UNL     1      -1.584   3.832  25.931  0.00  0.00    -0.222 OA
ATOM      2  C   UNL     1      -2.105   3.337  25.525  0.00  0.00    +0.170 C 
ATOM      3  C   UNL     1      -1.926   2.592  25.221  0.00  0.00    +0.060 C 
ATOM      4  C   UNL     1      -2.606   2.295  24.859  0.00  0.00    +0.141 C 
ATOM      5  N   UNL     1      -3.204   2.858  24.939  0.00  0.00    -0.258 NA
ATOM     12  C   UNL     1      -2.893   3.502  25.351  0.00  0.00    +0.106 C 
BRANCH   5   6
ATOM      6  C   UNL     1      -3.976   2.789  24.658  0.00  0.00    +0.139 C 
BRANCH   6   7
ATOM      7  C   UNL     1      -4.599   3.130  25.076  0.00  0.00    +0.155 A 
ATOM      8  N   UNL     1      -4.857   3.911  25.011  0.00  0.00    -0.226 NA
ATOM      9  C   UNL     1      -5.492   4.015  25.527  0.00  0.00    +0.121 A 
ATOM     10  C   UNL     1      -5.627   3.297  25.912  0.00  0.00    +0.121 A 
ATOM     11  N   UNL     1      -5.075   2.751  25.632  0.00  0.00    -0.226 NA
ENDBRANCH   6   7
ENDBRANCH   5   6
ENDBRANCH  13   4
BRANCH  15  18
ATOM     18  C   UNL     1      -3.058  -0.534  24.379  0.00  0.00    +0.039 A 
ATOM     19  C   UNL     1      -2.482  -1.042  24.680  0.00  0.00    +0.003 A 
ATOM     20  C   UNL     1      -2.658  -1.839  24.798  0.00  0.00    +0.004 A 
ATOM     21  C   UNL     1      -3.408  -2.129  24.615  0.00  0.00    +0.071 A 
ATOM     22  C   UNL     1      -3.984  -1.620  24.313  0.00  0.00    +0.004 A 
ATOM     23  C   UNL     1      -3.809  -0.822  24.196  0.00  0.00    +0.003 A 
BRANCH  21  24
ATOM     24  C   UNL     1      -3.584  -2.926  24.732  0.00  0.00    +0.419 C 
ATOM     25  F   UNL     1      -3.759  -3.723  24.850  0.00  0.00    -0.166 F 
ATOM     26  F   UNL     1      -3.557  -3.052  23.918  0.00  0.00    -0.166 F 
ATOM     27  F   UNL     1      -3.611  -2.799  25.547  0.00  0.00    -0.166 F 
ENDBRANCH  21  24
ENDBRANCH  15  18
TORSDOF 5
ENDMDL
