MODEL 1
REMARK VINA RESULT:     -12.0      0.000      0.000
REMARK  Name = 
REMARK  7 active torsions:
REMARK  status: ('A' for Active; 'I' for Inactive)
REMARK    1  A    between atoms: C_2  and  C_4
REMARK    2  A    between atoms: C_4  and  C_5
REMARK    3  A    between atoms: C_5  and  N_6
REMARK    4  A    between atoms: C_5  and  C_27
REMARK    5  A    between atoms: C_7  and  C_9
REMARK    6  A    between atoms: C_11  and  N_12
REMARK    7  A    between atoms: N_15  and  C_16
REMARK                            x       y       z     vdW  Elec       q    Type
REMARK                         _______ _______ _______ _____ _____    ______ ____
ROOT
ATOM      9  C   UNL     1      -4.193   1.197  24.742  0.00  0.00    +0.033 C 
ATOM     10  C   UNL     1      -3.793   1.805  25.133  0.00  0.00    -0.002 C 
ATOM     11  C   UNL     1      -4.212   2.456  25.418  0.00  0.00    +0.152 C 
ATOM     22  C   UNL     1      -5.028   2.501  25.313  0.00  0.00    +0.206 C 
ATOM     23  O   UNL     1      -5.446   3.153  25.598  0.00  0.00    -0.218 OA
ATOM     24  C   UNL     1      -5.428   1.894  24.922  0.00  0.00    +0.189 C 
ATOM     25  O   UNL     1      -6.245   1.938  24.817  0.00  0.00    -0.220 OA
ATOM     26  C   UNL     1      -5.009   1.242  24.637  0.00  0.00    +0.066 C 
ENDROOT
BRANCH  11  12
ATOM     12  N   UNL     1      -3.812   3.064  25.809  0.00  0.00    -0.182 NA
ATOM     13  C   UNL     1      -3.139   3.398  25.470  0.00  0.00    +0.340 C 
ATOM     14  O   UNL     1      -2.865   3.126  24.742  0.00  0.00    -0.249 OA
ATOM     15  N   UNL     1      -2.740   4.006  25.861  0.00  0.00    -0.189 NA
BRANCH  15  16
ATOM     16  C   UNL     1      -2.066   4.341  25.522  0.00  0.00    +0.097 C 
ATOM     17  C   UNL     1      -2.090   5.114  25.233  0.00  0.00    +0.022 C 
ATOM     18  C   UNL     1      -1.416   5.448  24.895  0.00  0.00    +0.002 C 
ATOM     19  C   UNL     1      -0.719   5.011  24.845  0.00  0.00    +0.000 C 
ATOM     20  C   UNL     1      -0.694   4.238  25.133  0.00  0.00    +0.002 C 
ATOM     21  C   UNL     1      -1.369   3.903  25.472  0.00  0.00    +0.022 C 
ENDBRANCH  15  16
ENDBRANCH  11  12
BRANCH   9   7
ATOM      6  N   UNL     1      -3.470  -0.011  24.986  0.00  0.00    -0.194 NA
ATOM      7  C   UNL     1      -3.775   0.546  24.458  0.00  0.00    +0.261 C 
ATOM      8  O   UNL     1      -3.660   0.451  23.646  0.00  0.00    -0.269 OA
BRANCH   6   5
ATOM      5  C   UNL     1      -3.052  -0.663  24.701  0.00  0.00    +0.175 C 
BRANCH   5  27
ATOM     27  C   UNL     1      -2.227  -0.666  24.724  0.00  0.00    +0.281 C 
ATOM     28  N   UNL     1      -1.834  -0.538  25.437  0.00  0.00    -0.086 NA
ATOM     29  O   UNL     1      -1.796  -0.797  24.033  0.00  0.00    -0.270 OA
ENDBRANCH   5  27
BRANCH   5   4
ATOM      4  C   UNL     1      -3.459  -1.311  24.393  0.00  0.00    +0.031 C 
BRANCH   4   2
ATOM      1  C   UNL     1      -3.568  -2.734  24.474  0.00  0.00    +0.000 C 
ATOM      2  C   UNL     1      -3.545  -1.996  24.844  0.00  0.00    +0.002 C 
ATOM      3  C   UNL     1      -3.607  -1.944  25.665  0.00  0.00    +0.000 C 
ENDBRANCH   4   2
ENDBRANCH   5   4
ENDBRANCH   6   5
ENDBRANCH   9   7
TORSDOF 7
ENDMDL
MODEL 2
REMARK VINA RESULT:     -11.8      1.168      4.537
REMARK  Name = 
REMARK  7 active torsions:
REMARK  status: ('A' for Active; 'I' for Inactive)
REMARK    1  A    between atoms: C_2  and  C_4
REMARK    2  A    between atoms: C_4  and  C_5
REMARK    3  A    between atoms: C_5  and  N_6
REMARK    4  A    between atoms: C_5  and  C_27
REMARK    5  A    between atoms: C_7  and  C_9
REMARK    6  A    between atoms: C_11  and  N_12
REMARK    7  A    between atoms: N_15  and  C_16
REMARK                            x       y       z     vdW  Elec       q    Type
REMARK                         _______ _______ _______ _____ _____    ______ ____
ROOT
ATOM      9  C   UNL     1      -3.630   2.744  24.888  0.00  0.00    +0.033 C 
ATOM     10  C   UNL     1      -3.852   1.989  24.638  0.00  0.00    -0.002 C 
ATOM     11  C   UNL     1      -4.607   1.704  24.808  0.00  0.00    +0.152 C 
ATOM     22  C   UNL     1      -5.140   2.173  25.226  0.00  0.00    +0.206 C 
ATOM     23  O   UNL     1      -5.896   1.888  25.395  0.00  0.00    -0.218 OA
ATOM     24  C   UNL     1      -4.919   2.928  25.475  0.00  0.00    +0.189 C 
ATOM     25  O   UNL     1      -5.453   3.397  25.894  0.00  0.00    -0.220 OA
ATOM     26  C   UNL     1      -4.163   3.213  25.306  0.00  0.00    +0.066 C 
ENDROOT
BRANCH  11  12
ATOM     12  N   UNL     1      -4.829   0.949  24.559  0.00  0.00    -0.182 NA
ATOM     13  C   UNL     1      -4.343   0.302  24.723  0.00  0.00    +0.340 C 
ATOM     14  O   UNL     1      -3.638   0.410  25.135  0.00  0.00    -0.249 OA
ATOM     15  N   UNL     1      -4.565  -0.452  24.474  0.00  0.00    -0.189 NA
BRANCH  15  16
ATOM     16  C   UNL     1      -4.080  -1.100  24.638  0.00  0.00    +0.097 C 
ATOM     17  C   UNL     1      -3.820  -1.586  24.024  0.00  0.00    +0.022 C 
ATOM     18  C   UNL     1      -3.335  -2.233  24.188  0.00  0.00    +0.002 C 
ATOM     19  C   UNL     1      -3.110  -2.393  24.965  0.00  0.00    +0.000 C 
ATOM     20  C   UNL     1      -3.370  -1.908  25.578  0.00  0.00    +0.002 C 
ATOM     21  C   UNL     1      -3.855  -1.260  25.414  0.00  0.00    +0.022 C 
ENDBRANCH  15  16
ENDBRANCH  11  12
BRANCH   9   7
ATOM      6  N   UNL     1      -2.306   3.069  25.316  0.00  0.00    -0.194 NA
ATOM      7  C   UNL     1      -2.875   3.028  24.718  0.00  0.00    +0.261 C 
ATOM      8  O   UNL     1      -2.687   3.272  23.953  0.00  0.00    -0.269 OA
BRANCH   6   5
ATOM      5  C   UNL     1      -1.551   3.354  25.146  0.00  0.00    +0.175 C 
BRANCH   5  27
ATOM     27  C   UNL     1      -1.392   4.162  25.197  0.00  0.00    +0.281 C 
ATOM     28  N   UNL     1      -0.886   4.518  24.653  0.00  0.00    -0.086 NA
ATOM     29  O   UNL     1      -1.741   4.613  25.794  0.00  0.00    -0.270 OA
ENDBRANCH   5  27
BRANCH   5   4
ATOM      4  C   UNL     1      -0.953   2.829  24.925  0.00  0.00    +0.031 C 
BRANCH   4   2
ATOM      1  C   UNL     1      -0.415   1.572  25.341  0.00  0.00    +0.000 C 
ATOM      2  C   UNL     1      -0.579   2.366  25.496  0.00  0.00    +0.002 C 
ATOM      3  C   UNL     1      -0.368   2.697  26.222  0.00  0.00    +0.000 C 
ENDBRANCH   4   2
ENDBRANCH   5   4
ENDBRANCH   6   5
ENDBRANCH   9   7
TORSDOF 7
ENDMDL
MODEL 3
REMARK VINA RESULT:     -11.8      2.115      3.222
REMARK  Name = 
REMARK  7 active torsions:
REMARK  status: ('A' for Active; 'I' for Inactive)
REMARK    1  A    between atoms: C_2  and  C_4
REMARK    2  A    between atoms: C_4  and  C_5
REMARK    3  A    between atoms: C_5  and  N_6
REMARK    4  A    between atoms: C_5  and  C_27
REMARK    5  A    between atoms: C_7  and  C_9
REMARK    6  A    between atoms: C_11  and  N_12
REMARK    7  A    between atoms: N_15  and  C_16
REMARK                            x       y       z     vdW  Elec       q    Type
REMARK                         _______ _______ _______ _____ _____    ______ ____
ROOT
ATOM      9  C   UNL     1      -1.088  -0.199  24.795  0.00  0.00    +0.033 C 
ATOM     10  C   UNL     1      -0.934   0.518  25.174  0.00  0.00    -0.002 C 
ATOM     11  C   UNL     1      -0.342   1.017  24.888  0.00  0.00    +0.152 C 
ATOM     22  C   UNL     1       0.094   0.800  24.223  0.00  0.00    +0.206 C 
ATOM     23  O   UNL     1       0.686   1.299  23.936  0.00  0.00    -0.218 OA
ATOM     24  C   UNL     1      -0.060   0.084  23.844  0.00  0.00    +0.189 C 
ATOM     25  O   UNL     1       0.377  -0.133  23.178  0.00  0.00    -0.220 OA
ATOM     26  C   UNL     1      -0.651  -0.416  24.130  0.00  0.00    +0.066 C 
ENDROOT
BRANCH  11  12
ATOM     12  N   UNL     1      -0.188   1.733  25.267  0.00  0.00    -0.182 NA
ATOM     13  C   UNL     1      -0.717   2.362  25.191  0.00  0.00    +0.340 C 
ATOM     14  O   UNL     1      -1.399   2.274  24.737  0.00  0.00    -0.249 OA
ATOM     15  N   UNL     1      -0.563   3.078  25.570  0.00  0.00    -0.189 NA
BRANCH  15  16
ATOM     16  C   UNL     1      -1.092   3.707  25.494  0.00  0.00    +0.097 C 
ATOM     17  C   UNL     1      -0.890   4.363  25.035  0.00  0.00    +0.022 C 
ATOM     18  C   UNL     1      -1.419   4.991  24.960  0.00  0.00    +0.002 C 
ATOM     19  C   UNL     1      -2.148   4.965  25.342  0.00  0.00    +0.000 C 
ATOM     20  C   UNL     1      -2.350   4.310  25.801  0.00  0.00    +0.002 C 
ATOM     21  C   UNL     1      -1.821   3.680  25.877  0.00  0.00    +0.022 C 
ENDBRANCH  15  16
ENDBRANCH  11  12
BRANCH   9   7
ATOM      6  N   UNL     1      -2.445  -0.646  24.778  0.00  0.00    -0.194 NA
ATOM      7  C   UNL     1      -1.679  -0.698  25.081  0.00  0.00    +0.261 C 
ATOM      8  O   UNL     1      -1.505  -1.248  25.671  0.00  0.00    -0.269 OA
BRANCH   6   5
ATOM      5  C   UNL     1      -3.036  -1.145  25.065  0.00  0.00    +0.175 C 
BRANCH   5  27
ATOM     27  C   UNL     1      -3.562  -0.874  25.640  0.00  0.00    +0.281 C 
ATOM     28  N   UNL     1      -4.023  -0.207  25.496  0.00  0.00    -0.086 NA
ATOM     29  O   UNL     1      -3.624  -1.272  26.360  0.00  0.00    -0.270 OA
ENDBRANCH   5  27
BRANCH   5   4
ATOM      4  C   UNL     1      -3.102  -1.915  24.775  0.00  0.00    +0.031 C 
BRANCH   4   2
ATOM      1  C   UNL     1      -3.945  -2.875  24.136  0.00  0.00    +0.000 C 
ATOM      2  C   UNL     1      -3.681  -2.097  24.217  0.00  0.00    +0.002 C 
ATOM      3  C   UNL     1      -3.996  -1.503  23.739  0.00  0.00    +0.000 C 
ENDBRANCH   4   2
ENDBRANCH   5   4
ENDBRANCH   6   5
ENDBRANCH   9   7
TORSDOF 7
ENDMDL
MODEL 4
REMARK VINA RESULT:     -11.4      1.859      3.242
REMARK  Name = 
REMARK  7 active torsions:
REMARK  status: ('A' for Active; 'I' for Inactive)
REMARK    1  A    between atoms: C_2  and  C_4
REMARK    2  A    between atoms: C_4  and  C_5
REMARK    3  A    between atoms: C_5  and  N_6
REMARK    4  A    between atoms: C_5  and  C_27
REMARK    5  A    between atoms: C_7  and  C_9
REMARK    6  A    between atoms: C_11  and  N_12
REMARK    7  A    between atoms: N_15  and  C_16
REMARK                            x       y       z     vdW  Elec       q    Type
REMARK                         _______ _______ _______ _____ _____    ______ ____
ROOT
ATOM      9  C   UNL     1      -1.395   0.457  24.722  0.00  0.00    +0.033 C 
ATOM     10  C   UNL     1      -2.003   0.954  24.467  0.00  0.00    -0.002 C 
ATOM     11  C   UNL     1      -1.831   1.720  24.215  0.00  0.00    +0.152 C 
ATOM     22  C   UNL     1      -1.053   1.990  24.218  0.00  0.00    +0.206 C 
ATOM     23  O   UNL     1      -0.881   2.758  23.966  0.00  0.00    -0.218 OA
ATOM     24  C   UNL     1      -0.444   1.495  24.472  0.00  0.00    +0.189 C 
ATOM     25  O   UNL     1       0.335   1.765  24.474  0.00  0.00    -0.220 OA
ATOM     26  C   UNL     1      -0.616   0.727  24.724  0.00  0.00    +0.066 C 
ENDROOT
BRANCH  11  12
ATOM     12  N   UNL     1      -2.440   2.217  23.961  0.00  0.00    -0.182 NA
ATOM     13  C   UNL     1      -3.103   2.333  24.437  0.00  0.00    +0.340 C 
ATOM     14  O   UNL     1      -3.158   1.954  25.167  0.00  0.00    -0.249 OA
ATOM     15  N   UNL     1      -3.711   2.829  24.182  0.00  0.00    -0.189 NA
BRANCH  15  16
ATOM     16  C   UNL     1      -4.375   2.946  24.659  0.00  0.00    +0.097 C 
ATOM     17  C   UNL     1      -4.425   3.615  25.140  0.00  0.00    +0.022 C 
ATOM     18  C   UNL     1      -5.089   3.731  25.616  0.00  0.00    +0.002 C 
ATOM     19  C   UNL     1      -5.701   3.180  25.612  0.00  0.00    +0.000 C 
ATOM     20  C   UNL     1      -5.651   2.511  25.132  0.00  0.00    +0.002 C 
ATOM     21  C   UNL     1      -4.987   2.394  24.655  0.00  0.00    +0.022 C 
ENDBRANCH  15  16
ENDBRANCH  11  12
BRANCH   9   7
ATOM      6  N   UNL     1      -1.942  -0.837  24.461  0.00  0.00    -0.194 NA
ATOM      7  C   UNL     1      -1.567  -0.309  24.973  0.00  0.00    +0.261 C 
ATOM      8  O   UNL     1      -1.365  -0.548  25.736  0.00  0.00    -0.269 OA
BRANCH   6   5
ATOM      5  C   UNL     1      -2.114  -1.603  24.712  0.00  0.00    +0.175 C 
BRANCH   5  27
ATOM     27  C   UNL     1      -1.579  -2.215  24.570  0.00  0.00    +0.281 C 
ATOM     28  N   UNL     1      -1.269  -2.646  25.201  0.00  0.00    -0.086 NA
ATOM     29  O   UNL     1      -1.354  -2.394  23.797  0.00  0.00    -0.270 OA
ENDBRANCH   5  27
BRANCH   5   4
ATOM      4  C   UNL     1      -2.823  -1.758  25.107  0.00  0.00    +0.031 C 
BRANCH   4   2
ATOM      1  C   UNL     1      -3.630  -2.806  24.566  0.00  0.00    +0.000 C 
ATOM      2  C   UNL     1      -3.486  -2.001  24.681  0.00  0.00    +0.002 C 
ATOM      3  C   UNL     1      -4.006  -1.440  24.371  0.00  0.00    +0.000 C 
ENDBRANCH   4   2
ENDBRANCH   5   4
ENDBRANCH   6   5
ENDBRANCH   9   7
TORSDOF 7
ENDMDL
MODEL 5
REMARK VINA RESULT:     -11.2      1.576      5.055
REMARK  Name = 
REMARK  7 active torsions:
REMARK  status: ('A' for Active; 'I' for Inactive)
REMARK    1  A    between atoms: C_2  and  C_4
REMARK    2  A    between atoms: C_4  and  C_5
REMARK    3  A    between atoms: C_5  and  N_6
REMARK    4  A    between atoms: C_5  and  C_27
REMARK    5  A    between atoms: C_7  and  C_9
REMARK    6  A    between atoms: C_11  and  N_12
REMARK    7  A    between atoms: N_15  and  C_16
REMARK                            x       y       z     vdW  Elec       q    Type
REMARK                         _______ _______ _______ _____ _____    ______ ____
ROOT
ATOM      9  C   UNL     1      -2.052   2.075  24.555  0.00  0.00    +0.033 C 
ATOM     10  C   UNL     1      -2.077   1.325  24.901  0.00  0.00    -0.002 C 
ATOM     11  C   UNL     1      -1.378   0.903  25.019  0.00  0.00    +0.152 C 
ATOM     22  C   UNL     1      -0.656   1.229  24.792  0.00  0.00    +0.206 C 
ATOM     23  O   UNL     1       0.043   0.806  24.910  0.00  0.00    -0.218 OA
ATOM     24  C   UNL     1      -0.631   1.977  24.446  0.00  0.00    +0.189 C 
ATOM     25  O   UNL     1       0.092   2.303  24.218  0.00  0.00    -0.220 OA
ATOM     26  C   UNL     1      -1.330   2.400  24.327  0.00  0.00    +0.066 C 
ENDROOT
BRANCH  11  12
ATOM     12  N   UNL     1      -1.403   0.154  25.366  0.00  0.00    -0.182 NA
ATOM     13  C   UNL     1      -1.891  -0.430  25.048  0.00  0.00    +0.340 C 
ATOM     14  O   UNL     1      -2.354  -0.267  24.386  0.00  0.00    -0.249 OA
ATOM     15  N   UNL     1      -1.915  -1.178  25.395  0.00  0.00    -0.189 NA
BRANCH  15  16
ATOM     16  C   UNL     1      -2.404  -1.764  25.078  0.00  0.00    +0.097 C 
ATOM     17  C   UNL     1      -3.198  -1.804  25.301  0.00  0.00    +0.022 C 
ATOM     18  C   UNL     1      -3.686  -2.389  24.984  0.00  0.00    +0.002 C 
ATOM     19  C   UNL     1      -3.381  -2.933  24.445  0.00  0.00    +0.000 C 
ATOM     20  C   UNL     1      -2.588  -2.893  24.222  0.00  0.00    +0.002 C 
ATOM     21  C   UNL     1      -2.099  -2.308  24.539  0.00  0.00    +0.022 C 
ENDBRANCH  15  16
ENDBRANCH  11  12
BRANCH   9   7
ATOM      6  N   UNL     1      -3.293   2.577  25.054  0.00  0.00    -0.194 NA
ATOM      7  C   UNL     1      -2.751   2.497  24.437  0.00  0.00    +0.261 C 
ATOM      8  O   UNL     1      -2.908   2.838  23.702  0.00  0.00    -0.269 OA
BRANCH   6   5
ATOM      5  C   UNL     1      -3.992   3.000  24.936  0.00  0.00    +0.175 C 
BRANCH   5  27
ATOM     27  C   UNL     1      -4.027   3.802  25.126  0.00  0.00    +0.281 C 
ATOM     28  N   UNL     1      -3.815   4.055  25.882  0.00  0.00    -0.086 NA
ATOM     29  O   UNL     1      -4.275   4.349  24.561  0.00  0.00    -0.270 OA
ENDBRANCH   5  27
BRANCH   5   4
ATOM      4  C   UNL     1      -4.656   2.619  24.627  0.00  0.00    +0.031 C 
BRANCH   4   2
ATOM      1  C   UNL     1      -5.364   1.431  24.988  0.00  0.00    +0.000 C 
ATOM      2  C   UNL     1      -5.175   2.222  25.131  0.00  0.00    +0.002 C 
ATOM      3  C   UNL     1      -5.505   2.615  25.777  0.00  0.00    +0.000 C 
ENDBRANCH   4   2
ENDBRANCH   5   4
ENDBRANCH   6   5
ENDBRANCH   9   7
TORSDOF 7
ENDMDL
