MODEL 1
REMARK VINA RESULT:     -12.8      0.000      0.000
REMARK  Name = 
REMARK  4 active torsions:
REMARK  status: ('A' for Active; 'I' for Inactive)
REMARK    1  A    between atoms: C_2  and  C_3
REMARK    2  A    between atoms: C_3  and  C_4
REMARK    3  A    between atoms: C_18  and  N_24
REMARK    4  A    between atoms: C_25  and  C_27
REMARK                            x       y       z     vdW  Elec       q    Type
REMARK                         _______ _______ _______ _____ _____    ______ ____
ROOT
ATOM      1  O   UNL     1      -2.328   2.867  25.230  0.00  0.00    -0.274 OA
ATOM      2  C   UNL     1      -2.784   3.522  25.439  0.00  0.00    +0.231 C 
ATOM      9  N   UNL     1      -3.607   3.464  25.457  0.00  0.00    -0.271 N 
ATOM     10  C   UNL     1      -4.131   4.070  25.656  0.00  0.00    +0.096 C 
ATOM     11  C   UNL     1      -4.898   3.770  25.601  0.00  0.00    +0.045 C 
ATOM     12  C   UNL     1      -4.847   2.981  25.369  0.00  0.00    +0.124 C 
ATOM     13  N   UNL     1      -5.506   2.497  25.256  0.00  0.00    -0.204 NA
ATOM     14  C   UNL     1      -5.530   1.705  25.027  0.00  0.00    +0.260 C 
ATOM     15  O   UNL     1      -6.283   1.373  24.962  0.00  0.00    -0.272 OA
ATOM     16  C   UNL     1      -4.900   1.201  24.853  0.00  0.00    +0.155 C 
ATOM     17  C   UNL     1      -4.998   0.413  24.628  0.00  0.00    +0.053 C 
ATOM     18  C   UNL     1      -4.250   0.089  24.502  0.00  0.00    +0.117 C 
ATOM     19  C   UNL     1      -3.690   0.677  24.650  0.00  0.00    +0.115 C 
ATOM     20  N   UNL     1      -4.092   1.364  24.867  0.00  0.00    -0.270 N 
ATOM     21  C   UNL     1      -3.713   2.072  25.057  0.00  0.00    +0.246 C 
ATOM     22  O   UNL     1      -2.889   2.059  25.018  0.00  0.00    -0.273 OA
ATOM     23  C   UNL     1      -4.049   2.791  25.280  0.00  0.00    +0.172 C 
ENDROOT
BRANCH  18  24
ATOM     24  N   UNL     1      -4.089  -0.685  24.270  0.00  0.00    -0.205 NA
ATOM     25  C   UNL     1      -3.877  -1.249  24.834  0.00  0.00    +0.241 C 
ATOM     26  O   UNL     1      -3.826  -1.038  25.630  0.00  0.00    -0.273 OA
BRANCH  25  27
ATOM     27  C   UNL     1      -3.716  -2.025  24.602  0.00  0.00    +0.078 C 
ATOM     28  C   UNL     1      -3.766  -2.627  24.040  0.00  0.00    +0.010 C 
ATOM     29  C   UNL     1      -3.388  -2.765  24.761  0.00  0.00    +0.010 C 
ENDBRANCH  25  27
ENDBRANCH  18  24
BRANCH   2   3
ATOM      3  C   UNL     1      -2.416   4.235  25.632  0.00  0.00    +0.118 C 
BRANCH   3   4
ATOM      4  C   UNL     1      -1.677   4.417  25.315  0.00  0.00    +0.016 A 
ATOM      5  C   UNL     1      -1.498   5.068  24.840  0.00  0.00    +0.003 A 
ATOM      6  C   UNL     1      -0.697   5.032  24.648  0.00  0.00    +0.007 A 
ATOM      7  C   UNL     1      -0.379   4.360  25.004  0.00  0.00    +0.035 A 
ATOM      8  S   UNL     1      -0.985   3.979  25.416  0.00  0.00    -0.090 S 
ENDBRANCH   3   4
ENDBRANCH   2   3
TORSDOF 4
ENDMDL
MODEL 2
REMARK VINA RESULT:     -12.1      1.546      4.813
REMARK  Name = 
REMARK  4 active torsions:
REMARK  status: ('A' for Active; 'I' for Inactive)
REMARK    1  A    between atoms: C_2  and  C_3
REMARK    2  A    between atoms: C_3  and  C_4
REMARK    3  A    between atoms: C_18  and  N_24
REMARK    4  A    between atoms: C_25  and  C_27
REMARK                            x       y       z     vdW  Elec       q    Type
REMARK                         _______ _______ _______ _____ _____    ______ ____
ROOT
ATOM      1  O   UNL     1      -3.550   0.324  24.486  0.00  0.00    -0.274 OA
ATOM      2  C   UNL     1      -4.310   0.101  24.714  0.00  0.00    +0.231 C 
ATOM      9  N   UNL     1      -4.852   0.672  24.962  0.00  0.00    -0.271 N 
ATOM     10  C   UNL     1      -5.628   0.531  25.205  0.00  0.00    +0.096 C 
ATOM     11  C   UNL     1      -5.968   1.256  25.403  0.00  0.00    +0.045 C 
ATOM     12  C   UNL     1      -5.403   1.844  25.283  0.00  0.00    +0.124 C 
ATOM     13  N   UNL     1      -5.543   2.645  25.423  0.00  0.00    -0.204 NA
ATOM     14  C   UNL     1      -5.028   3.282  25.326  0.00  0.00    +0.260 C 
ATOM     15  O   UNL     1      -5.337   4.024  25.516  0.00  0.00    -0.272 OA
ATOM     16  C   UNL     1      -4.246   3.276  25.064  0.00  0.00    +0.155 C 
ATOM     17  C   UNL     1      -3.786   3.958  24.990  0.00  0.00    +0.053 C 
ATOM     18  C   UNL     1      -3.042   3.734  24.715  0.00  0.00    +0.117 C 
ATOM     19  C   UNL     1      -3.041   2.915  24.619  0.00  0.00    +0.115 C 
ATOM     20  N   UNL     1      -3.786   2.631  24.835  0.00  0.00    -0.270 N 
ATOM     21  C   UNL     1      -3.993   1.834  24.811  0.00  0.00    +0.246 C 
ATOM     22  O   UNL     1      -3.403   1.318  24.553  0.00  0.00    -0.273 OA
ATOM     23  C   UNL     1      -4.713   1.483  25.010  0.00  0.00    +0.172 C 
ENDROOT
BRANCH  18  24
ATOM     24  N   UNL     1      -2.409   4.240  24.563  0.00  0.00    -0.205 NA
ATOM     25  C   UNL     1      -1.854   4.395  25.153  0.00  0.00    +0.241 C 
ATOM     26  O   UNL     1      -1.932   4.043  25.895  0.00  0.00    -0.273 OA
BRANCH  25  27
ATOM     27  C   UNL     1      -1.220   4.901  25.001  0.00  0.00    +0.078 C 
ATOM     28  C   UNL     1      -0.913   5.665  24.949  0.00  0.00    +0.010 C 
ATOM     29  C   UNL     1      -0.430   5.015  24.790  0.00  0.00    +0.010 C 
ENDBRANCH  25  27
ENDBRANCH  18  24
BRANCH   2   3
ATOM      3  C   UNL     1      -4.529  -0.695  24.694  0.00  0.00    +0.118 C 
BRANCH   3   4
ATOM      4  C   UNL     1      -3.951  -1.282  24.711  0.00  0.00    +0.016 A 
ATOM      5  C   UNL     1      -3.512  -1.511  25.371  0.00  0.00    +0.003 A 
ATOM      6  C   UNL     1      -2.999  -2.115  25.140  0.00  0.00    +0.007 A 
ATOM      7  C   UNL     1      -3.122  -2.260  24.338  0.00  0.00    +0.035 A 
ATOM      8  S   UNL     1      -3.710  -1.745  24.072  0.00  0.00    -0.090 S 
ENDBRANCH   3   4
ENDBRANCH   2   3
TORSDOF 4
ENDMDL
MODEL 3
REMARK VINA RESULT:     -10.8      2.953      4.384
REMARK  Name = 
REMARK  4 active torsions:
REMARK  status: ('A' for Active; 'I' for Inactive)
REMARK    1  A    between atoms: C_2  and  C_3
REMARK    2  A    between atoms: C_3  and  C_4
REMARK    3  A    between atoms: C_18  and  N_24
REMARK    4  A    between atoms: C_25  and  C_27
REMARK                            x       y       z     vdW  Elec       q    Type
REMARK                         _______ _______ _______ _____ _____    ______ ____
ROOT
ATOM      1  O   UNL     1      -2.982   1.616  24.521  0.00  0.00    -0.274 OA
ATOM      2  C   UNL     1      -3.618   1.159  24.776  0.00  0.00    +0.231 C 
ATOM      9  N   UNL     1      -3.521   0.349  24.901  0.00  0.00    -0.271 N 
ATOM     10  C   UNL     1      -4.106  -0.176  25.155  0.00  0.00    +0.096 C 
ATOM     11  C   UNL     1      -3.768  -0.927  25.205  0.00  0.00    +0.045 C 
ATOM     12  C   UNL     1      -2.976  -0.866  24.983  0.00  0.00    +0.124 C 
ATOM     13  N   UNL     1      -2.458  -1.509  24.965  0.00  0.00    -0.204 NA
ATOM     14  C   UNL     1      -1.660  -1.521  24.755  0.00  0.00    +0.260 C 
ATOM     15  O   UNL     1      -1.291  -2.258  24.795  0.00  0.00    -0.272 OA
ATOM     16  C   UNL     1      -1.183  -0.894  24.511  0.00  0.00    +0.155 C 
ATOM     17  C   UNL     1      -0.386  -0.979  24.315  0.00  0.00    +0.053 C 
ATOM     18  C   UNL     1      -0.097  -0.237  24.099  0.00  0.00    +0.117 C 
ATOM     19  C   UNL     1      -0.714   0.306  24.162  0.00  0.00    +0.115 C 
ATOM     20  N   UNL     1      -1.387  -0.100  24.417  0.00  0.00    -0.270 N 
ATOM     21  C   UNL     1      -2.116   0.263  24.543  0.00  0.00    +0.246 C 
ATOM     22  O   UNL     1      -2.142   1.075  24.398  0.00  0.00    -0.273 OA
ATOM     23  C   UNL     1      -2.823  -0.078  24.795  0.00  0.00    +0.172 C 
ENDROOT
BRANCH  18  24
ATOM     24  N   UNL     1       0.675  -0.068  23.862  0.00  0.00    -0.205 NA
ATOM     25  C   UNL     1       0.882  -0.121  23.065  0.00  0.00    +0.241 C 
ATOM     26  O   UNL     1       0.318  -0.344  22.507  0.00  0.00    -0.273 OA
BRANCH  25  27
ATOM     27  C   UNL     1       1.655   0.048  22.828  0.00  0.00    +0.078 C 
ATOM     28  C   UNL     1       2.260  -0.014  22.271  0.00  0.00    +0.010 C 
ATOM     29  C   UNL     1       2.386   0.402  22.973  0.00  0.00    +0.010 C 
ENDBRANCH  25  27
ENDBRANCH  18  24
BRANCH   2   3
ATOM      3  C   UNL     1      -4.353   1.511  24.906  0.00  0.00    +0.118 C 
BRANCH   3   4
ATOM      4  C   UNL     1      -4.423   2.332  24.902  0.00  0.00    +0.016 A 
ATOM      5  C   UNL     1      -4.429   2.816  24.234  0.00  0.00    +0.003 A 
ATOM      6  C   UNL     1      -4.509   3.598  24.485  0.00  0.00    +0.007 A 
ATOM      7  C   UNL     1      -4.552   3.598  25.308  0.00  0.00    +0.035 A 
ATOM      8  S   UNL     1      -4.500   2.815  25.567  0.00  0.00    -0.090 S 
ENDBRANCH   3   4
ENDBRANCH   2   3
TORSDOF 4
ENDMDL
MODEL 4
REMARK VINA RESULT:     -10.7      2.659      5.876
REMARK  Name = 
REMARK  4 active torsions:
REMARK  status: ('A' for Active; 'I' for Inactive)
REMARK    1  A    between atoms: C_2  and  C_3
REMARK    2  A    between atoms: C_3  and  C_4
REMARK    3  A    between atoms: C_18  and  N_24
REMARK    4  A    between atoms: C_25  and  C_27
REMARK                            x       y       z     vdW  Elec       q    Type
REMARK                         _______ _______ _______ _____ _____    ______ ____
ROOT
ATOM      1  O   UNL     1      -2.731  -0.273  24.901  0.00  0.00    -0.274 OA
ATOM      2  C   UNL     1      -2.251  -0.937  24.811  0.00  0.00    +0.231 C 
ATOM      9  N   UNL     1      -1.454  -0.849  24.616  0.00  0.00    -0.271 N 
ATOM     10  C   UNL     1      -0.910  -1.460  24.509  0.00  0.00    +0.096 C 
ATOM     11  C   UNL     1      -0.182  -1.122  24.321  0.00  0.00    +0.045 C 
ATOM     12  C   UNL     1      -0.275  -0.303  24.313  0.00  0.00    +0.124 C 
ATOM     13  N   UNL     1       0.338   0.223  24.146  0.00  0.00    -0.204 NA
ATOM     14  C   UNL     1       0.317   1.048  24.120  0.00  0.00    +0.260 C 
ATOM     15  O   UNL     1       1.031   1.419  23.934  0.00  0.00    -0.272 OA
ATOM     16  C   UNL     1      -0.324   1.549  24.254  0.00  0.00    +0.155 C 
ATOM     17  C   UNL     1      -0.273   2.372  24.211  0.00  0.00    +0.053 C 
ATOM     18  C   UNL     1      -1.019   2.682  24.378  0.00  0.00    +0.117 C 
ATOM     19  C   UNL     1      -1.530   2.052  24.525  0.00  0.00    +0.115 C 
ATOM     20  N   UNL     1      -1.101   1.351  24.448  0.00  0.00    -0.270 N 
ATOM     21  C   UNL     1      -1.429   0.602  24.555  0.00  0.00    +0.246 C 
ATOM     22  O   UNL     1      -2.231   0.587  24.748  0.00  0.00    -0.273 OA
ATOM     23  C   UNL     1      -1.062  -0.134  24.495  0.00  0.00    +0.172 C 
ENDROOT
BRANCH  18  24
ATOM     24  N   UNL     1      -1.219   3.482  24.396  0.00  0.00    -0.205 NA
ATOM     25  C   UNL     1      -1.181   3.901  25.106  0.00  0.00    +0.241 C 
ATOM     26  O   UNL     1      -0.943   3.519  25.797  0.00  0.00    -0.273 OA
BRANCH  25  27
ATOM     27  C   UNL     1      -1.381   4.702  25.123  0.00  0.00    +0.078 C 
ATOM     28  C   UNL     1      -1.907   5.301  25.332  0.00  0.00    +0.010 C 
ATOM     29  C   UNL     1      -1.201   5.487  24.946  0.00  0.00    +0.010 C 
ENDBRANCH  25  27
ENDBRANCH  18  24
BRANCH   2   3
ATOM      3  C   UNL     1      -2.569  -1.692  24.916  0.00  0.00    +0.118 C 
BRANCH   3   4
ATOM      4  C   UNL     1      -3.280  -1.895  24.550  0.00  0.00    +0.016 A 
ATOM      5  C   UNL     1      -3.901  -1.380  24.379  0.00  0.00    +0.003 A 
ATOM      6  C   UNL     1      -4.500  -1.815  24.014  0.00  0.00    +0.007 A 
ATOM      7  C   UNL     1      -4.249  -2.598  23.960  0.00  0.00    +0.035 A 
ATOM      8  S   UNL     1      -3.494  -2.648  24.291  0.00  0.00    -0.090 S 
ENDBRANCH   3   4
ENDBRANCH   2   3
TORSDOF 4
ENDMDL
MODEL 5
REMARK VINA RESULT:     -10.7      2.380      3.472
REMARK  Name = 
REMARK  4 active torsions:
REMARK  status: ('A' for Active; 'I' for Inactive)
REMARK    1  A    between atoms: C_2  and  C_3
REMARK    2  A    between atoms: C_3  and  C_4
REMARK    3  A    between atoms: C_18  and  N_24
REMARK    4  A    between atoms: C_25  and  C_27
REMARK                            x       y       z     vdW  Elec       q    Type
REMARK                         _______ _______ _______ _____ _____    ______ ____
ROOT
ATOM      1  O   UNL     1      -1.836   2.208  25.549  0.00  0.00    -0.274 OA
ATOM      2  C   UNL     1      -1.189   2.645  25.284  0.00  0.00    +0.231 C 
ATOM      9  N   UNL     1      -0.588   2.276  24.856  0.00  0.00    -0.271 N 
ATOM     10  C   UNL     1       0.089   2.641  24.557  0.00  0.00    +0.096 C 
ATOM     11  C   UNL     1       0.536   2.067  24.169  0.00  0.00    +0.045 C 
ATOM     12  C   UNL     1       0.136   1.348  24.228  0.00  0.00    +0.124 C 
ATOM     13  N   UNL     1       0.417   0.643  23.904  0.00  0.00    -0.204 NA
ATOM     14  C   UNL     1       0.073  -0.106  23.924  0.00  0.00    +0.260 C 
ATOM     15  O   UNL     1       0.495  -0.705  23.544  0.00  0.00    -0.272 OA
ATOM     16  C   UNL     1      -0.638  -0.336  24.274  0.00  0.00    +0.155 C 
ATOM     17  C   UNL     1      -0.924  -1.109  24.256  0.00  0.00    +0.053 C 
ATOM     18  C   UNL     1      -1.643  -1.125  24.660  0.00  0.00    +0.117 C 
ATOM     19  C   UNL     1      -1.801  -0.361  24.928  0.00  0.00    +0.115 C 
ATOM     20  N   UNL     1      -1.179   0.127  24.690  0.00  0.00    -0.270 N 
ATOM     21  C   UNL     1      -1.144   0.934  24.858  0.00  0.00    +0.246 C 
ATOM     22  O   UNL     1      -1.779   1.237  25.290  0.00  0.00    -0.273 OA
ATOM     23  C   UNL     1      -0.559   1.477  24.653  0.00  0.00    +0.172 C 
ENDROOT
BRANCH  18  24
ATOM     24  N   UNL     1      -2.120  -1.787  24.776  0.00  0.00    -0.205 NA
ATOM     25  C   UNL     1      -2.843  -1.848  24.383  0.00  0.00    +0.241 C 
ATOM     26  O   UNL     1      -3.088  -1.247  23.875  0.00  0.00    -0.273 OA
BRANCH  25  27
ATOM     27  C   UNL     1      -3.321  -2.511  24.499  0.00  0.00    +0.078 C 
ATOM     28  C   UNL     1      -3.926  -3.010  24.241  0.00  0.00    +0.010 C 
ATOM     29  C   UNL     1      -3.544  -3.161  24.957  0.00  0.00    +0.010 C 
ENDBRANCH  25  27
ENDBRANCH  18  24
BRANCH   2   3
ATOM      3  C   UNL     1      -1.143   3.453  25.447  0.00  0.00    +0.118 C 
BRANCH   3   4
ATOM      4  C   UNL     1      -1.829   3.881  25.608  0.00  0.00    +0.016 A 
ATOM      5  C   UNL     1      -2.262   3.858  26.310  0.00  0.00    +0.003 A 
ATOM      6  C   UNL     1      -2.904   4.370  26.232  0.00  0.00    +0.007 A 
ATOM      7  C   UNL     1      -2.868   4.710  25.481  0.00  0.00    +0.035 A 
ATOM      8  S   UNL     1      -2.204   4.408  25.095  0.00  0.00    -0.090 S 
ENDBRANCH   3   4
ENDBRANCH   2   3
TORSDOF 4
ENDMDL
MODEL 6
REMARK VINA RESULT:     -10.1      2.370      4.998
REMARK  Name = 
REMARK  4 active torsions:
REMARK  status: ('A' for Active; 'I' for Inactive)
REMARK    1  A    between atoms: C_2  and  C_3
REMARK    2  A    between atoms: C_3  and  C_4
REMARK    3  A    between atoms: C_18  and  N_24
REMARK    4  A    between atoms: C_25  and  C_27
REMARK                            x       y       z     vdW  Elec       q    Type
REMARK                         _______ _______ _______ _____ _____    ______ ____
ROOT
ATOM      1  O   UNL     1      -1.650   0.291  24.793  0.00  0.00    -0.274 OA
ATOM      2  C   UNL     1      -0.860   0.349  24.564  0.00  0.00    +0.231 C 
ATOM      9  N   UNL     1      -0.499   1.089  24.512  0.00  0.00    -0.271 N 
ATOM     10  C   UNL     1       0.284   1.232  24.292  0.00  0.00    +0.096 C 
ATOM     11  C   UNL     1       0.410   2.047  24.316  0.00  0.00    +0.045 C 
ATOM     12  C   UNL     1      -0.294   2.407  24.551  0.00  0.00    +0.124 C 
ATOM     13  N   UNL     1      -0.380   3.223  24.638  0.00  0.00    -0.204 NA
ATOM     14  C   UNL     1      -1.049   3.648  24.868  0.00  0.00    +0.260 C 
ATOM     15  O   UNL     1      -0.957   4.468  24.903  0.00  0.00    -0.272 OA
ATOM     16  C   UNL     1      -1.796   3.363  25.068  0.00  0.00    +0.155 C 
ATOM     17  C   UNL     1      -2.424   3.849  25.291  0.00  0.00    +0.053 C 
ATOM     18  C   UNL     1      -3.076   3.369  25.447  0.00  0.00    +0.117 C 
ATOM     19  C   UNL     1      -2.851   2.585  25.322  0.00  0.00    +0.115 C 
ATOM     20  N   UNL     1      -2.060   2.581  25.087  0.00  0.00    -0.270 N 
ATOM     21  C   UNL     1      -1.641   1.893  24.911  0.00  0.00    +0.246 C 
ATOM     22  O   UNL     1      -2.064   1.188  24.983  0.00  0.00    -0.273 OA
ATOM     23  C   UNL     1      -0.855   1.815  24.673  0.00  0.00    +0.172 C 
ENDROOT
BRANCH  18  24
ATOM     24  N   UNL     1      -3.822   3.626  25.687  0.00  0.00    -0.205 NA
ATOM     25  C   UNL     1      -4.457   3.594  25.162  0.00  0.00    +0.241 C 
ATOM     26  O   UNL     1      -4.347   3.305  24.398  0.00  0.00    -0.273 OA
BRANCH  25  27
ATOM     27  C   UNL     1      -5.204   3.851  25.403  0.00  0.00    +0.078 C 
ATOM     28  C   UNL     1      -5.760   4.456  25.480  0.00  0.00    +0.010 C 
ATOM     29  C   UNL     1      -5.940   3.693  25.740  0.00  0.00    +0.010 C 
ENDBRANCH  25  27
ENDBRANCH  18  24
BRANCH   2   3
ATOM      3  C   UNL     1      -0.431  -0.333  24.385  0.00  0.00    +0.118 C 
BRANCH   3   4
ATOM      4  C   UNL     1      -0.737  -1.074  24.576  0.00  0.00    +0.016 A 
ATOM      5  C   UNL     1      -0.640  -1.469  25.294  0.00  0.00    +0.003 A 
ATOM      6  C   UNL     1      -1.037  -2.191  25.245  0.00  0.00    +0.007 A 
ATOM      7  C   UNL     1      -1.380  -2.242  24.497  0.00  0.00    +0.035 A 
ATOM      8  S   UNL     1      -1.195  -1.551  24.083  0.00  0.00    -0.090 S 
ENDBRANCH   3   4
ENDBRANCH   2   3
TORSDOF 4
ENDMDL
MODEL 7
REMARK VINA RESULT:     -10.0      2.509      4.094
REMARK  Name = 
REMARK  4 active torsions:
REMARK  status: ('A' for Active; 'I' for Inactive)
REMARK    1  A    between atoms: C_2  and  C_3
REMARK    2  A    between atoms: C_3  and  C_4
REMARK    3  A    between atoms: C_18  and  N_24
REMARK    4  A    between atoms: C_25  and  C_27
REMARK                            x       y       z     vdW  Elec       q    Type
REMARK                         _______ _______ _______ _____ _____    ______ ____
ROOT
ATOM      1  O   UNL     1      -4.011   2.286  24.790  0.00  0.00    -0.274 OA
ATOM      2  C   UNL     1      -4.157   2.952  25.254  0.00  0.00    +0.231 C 
ATOM      9  N   UNL     1      -3.534   3.445  25.476  0.00  0.00    -0.271 N 
ATOM     10  C   UNL     1      -3.596   4.128  25.936  0.00  0.00    +0.096 C 
ATOM     11  C   UNL     1      -2.839   4.446  26.021  0.00  0.00    +0.045 C 
ATOM     12  C   UNL     1      -2.311   3.961  25.615  0.00  0.00    +0.124 C 
ATOM     13  N   UNL     1      -1.499   4.105  25.576  0.00  0.00    -0.204 NA
ATOM     14  C   UNL     1      -0.917   3.666  25.190  0.00  0.00    +0.260 C 
ATOM     15  O   UNL     1      -0.147   3.957  25.256  0.00  0.00    -0.272 OA
ATOM     16  C   UNL     1      -1.002   2.975  24.749  0.00  0.00    +0.155 C 
ATOM     17  C   UNL     1      -0.370   2.585  24.388  0.00  0.00    +0.053 C 
ATOM     18  C   UNL     1      -0.668   1.922  23.999  0.00  0.00    +0.117 C 
ATOM     19  C   UNL     1      -1.484   1.901  24.120  0.00  0.00    +0.115 C 
ATOM     20  N   UNL     1      -1.691   2.552  24.583  0.00  0.00    -0.270 N 
ATOM     21  C   UNL     1      -2.464   2.715  24.818  0.00  0.00    +0.246 C 
ATOM     22  O   UNL     1      -3.037   2.181  24.561  0.00  0.00    -0.273 OA
ATOM     23  C   UNL     1      -2.740   3.343  25.277  0.00  0.00    +0.172 C 
ENDROOT
BRANCH  18  24
ATOM     24  N   UNL     1      -0.228   1.375  23.566  0.00  0.00    -0.205 NA
ATOM     25  C   UNL     1      -0.006   0.659  23.911  0.00  0.00    +0.241 C 
ATOM     26  O   UNL     1      -0.224   0.491  24.689  0.00  0.00    -0.273 OA
BRANCH  25  27
ATOM     27  C   UNL     1       0.434   0.111  23.478  0.00  0.00    +0.078 C 
ATOM     28  C   UNL     1       1.030  -0.054  22.932  0.00  0.00    +0.010 C 
ATOM     29  C   UNL     1       0.601  -0.671  23.274  0.00  0.00    +0.010 C 
ENDBRANCH  25  27
ENDBRANCH  18  24
BRANCH   2   3
ATOM      3  C   UNL     1      -4.927   3.126  25.495  0.00  0.00    +0.118 C 
BRANCH   3   4
ATOM      4  C   UNL     1      -5.511   2.545  25.462  0.00  0.00    +0.016 A 
ATOM      5  C   UNL     1      -5.881   2.268  24.779  0.00  0.00    +0.003 A 
ATOM      6  C   UNL     1      -6.427   1.690  25.000  0.00  0.00    +0.007 A 
ATOM      7  C   UNL     1      -6.394   1.610  25.820  0.00  0.00    +0.035 A 
ATOM      8  S   UNL     1      -5.827   2.138  26.106  0.00  0.00    -0.090 S 
ENDBRANCH   3   4
ENDBRANCH   2   3
TORSDOF 4
ENDMDL
MODEL 8
REMARK VINA RESULT:      -9.9      2.200      3.552
REMARK  Name = 
REMARK  4 active torsions:
REMARK  status: ('A' for Active; 'I' for Inactive)
REMARK    1  A    between atoms: C_2  and  C_3
REMARK    2  A    between atoms: C_3  and  C_4
REMARK    3  A    between atoms: C_18  and  N_24
REMARK    4  A    between atoms: C_25  and  C_27
REMARK                            x       y       z     vdW  Elec       q    Type
REMARK                         _______ _______ _______ _____ _____    ______ ____
ROOT
ATOM      1  O   UNL     1      -3.320   2.518  25.160  0.00  0.00    -0.274 OA
ATOM      2  C   UNL     1      -3.002   3.271  25.268  0.00  0.00    +0.231 C 
ATOM      9  N   UNL     1      -2.188   3.389  25.205  0.00  0.00    -0.271 N 
ATOM     10  C   UNL     1      -1.794   4.109  25.299  0.00  0.00    +0.096 C 
ATOM     11  C   UNL     1      -0.988   3.972  25.190  0.00  0.00    +0.045 C 
ATOM     12  C   UNL     1      -0.884   3.170  25.029  0.00  0.00    +0.124 C 
ATOM     13  N   UNL     1      -0.147   2.827  24.887  0.00  0.00    -0.204 NA
ATOM     14  C   UNL     1       0.030   2.038  24.721  0.00  0.00    +0.260 C 
ATOM     15  O   UNL     1       0.829   1.867  24.606  0.00  0.00    -0.272 OA
ATOM     16  C   UNL     1      -0.487   1.398  24.655  0.00  0.00    +0.155 C 
ATOM     17  C   UNL     1      -0.239   0.630  24.485  0.00  0.00    +0.053 C 
ATOM     18  C   UNL     1      -0.906   0.146  24.464  0.00  0.00    +0.117 C 
ATOM     19  C   UNL     1      -1.566   0.615  24.621  0.00  0.00    +0.115 C 
ATOM     20  N   UNL     1      -1.307   1.389  24.739  0.00  0.00    -0.270 N 
ATOM     21  C   UNL     1      -1.814   2.017  24.909  0.00  0.00    +0.246 C 
ATOM     22  O   UNL     1      -2.616   1.828  24.957  0.00  0.00    -0.273 OA
ATOM     23  C   UNL     1      -1.626   2.810  25.038  0.00  0.00    +0.172 C 
ENDROOT
BRANCH  18  24
ATOM     24  N   UNL     1      -0.913  -0.665  24.313  0.00  0.00    -0.205 NA
ATOM     25  C   UNL     1      -1.091  -1.196  24.919  0.00  0.00    +0.241 C 
ATOM     26  O   UNL     1      -1.263  -0.915  25.675  0.00  0.00    -0.273 OA
BRANCH  25  27
ATOM     27  C   UNL     1      -1.098  -2.007  24.768  0.00  0.00    +0.078 C 
ATOM     28  C   UNL     1      -0.750  -2.751  24.847  0.00  0.00    +0.010 C 
ATOM     29  C   UNL     1      -1.456  -2.668  24.427  0.00  0.00    +0.010 C 
ENDBRANCH  25  27
ENDBRANCH  18  24
BRANCH   2   3
ATOM      3  C   UNL     1      -3.500   3.907  25.439  0.00  0.00    +0.118 C 
BRANCH   3   4
ATOM      4  C   UNL     1      -4.311   3.785  25.525  0.00  0.00    +0.016 A 
ATOM      5  C   UNL     1      -4.683   3.440  26.176  0.00  0.00    +0.003 A 
ATOM      6  C   UNL     1      -5.495   3.428  26.029  0.00  0.00    +0.007 A 
ATOM      7  C   UNL     1      -5.624   3.765  25.288  0.00  0.00    +0.035 A 
ATOM      8  S   UNL     1      -4.892   3.986  24.976  0.00  0.00    -0.090 S 
ENDBRANCH   3   4
ENDBRANCH   2   3
TORSDOF 4
ENDMDL
MODEL 9
REMARK VINA RESULT:      -9.8      3.284      5.315
REMARK  Name = 
REMARK  4 active torsions:
REMARK  status: ('A' for Active; 'I' for Inactive)
REMARK    1  A    between atoms: C_2  and  C_3
REMARK    2  A    between atoms: C_3  and  C_4
REMARK    3  A    between atoms: C_18  and  N_24
REMARK    4  A    between atoms: C_25  and  C_27
REMARK                            x       y       z     vdW  Elec       q    Type
REMARK                         _______ _______ _______ _____ _____    ______ ____
ROOT
ATOM      1  O   UNL     1      -2.163  -0.738  24.544  0.00  0.00    -0.274 OA
ATOM      2  C   UNL     1      -2.833  -0.280  24.691  0.00  0.00    +0.231 C 
ATOM      9  N   UNL     1      -2.781   0.543  24.680  0.00  0.00    -0.271 N 
ATOM     10  C   UNL     1      -3.401   1.070  24.816  0.00  0.00    +0.096 C 
ATOM     11  C   UNL     1      -3.102   1.836  24.751  0.00  0.00    +0.045 C 
ATOM     12  C   UNL     1      -2.299   1.783  24.575  0.00  0.00    +0.124 C 
ATOM     13  N   UNL     1      -1.811   2.441  24.469  0.00  0.00    -0.204 NA
ATOM     14  C   UNL     1      -1.006   2.461  24.293  0.00  0.00    +0.260 C 
ATOM     15  O   UNL     1      -0.674   3.214  24.221  0.00  0.00    -0.272 OA
ATOM     16  C   UNL     1      -0.488   1.829  24.180  0.00  0.00    +0.155 C 
ATOM     17  C   UNL     1       0.313   1.924  24.004  0.00  0.00    +0.053 C 
ATOM     18  C   UNL     1       0.648   1.174  23.931  0.00  0.00    +0.117 C 
ATOM     19  C   UNL     1       0.055   0.616  24.060  0.00  0.00    +0.115 C 
ATOM     20  N   UNL     1      -0.648   1.021  24.214  0.00  0.00    -0.270 N 
ATOM     21  C   UNL     1      -1.365   0.644  24.371  0.00  0.00    +0.246 C 
ATOM     22  O   UNL     1      -1.345  -0.180  24.366  0.00  0.00    -0.273 OA
ATOM     23  C   UNL     1      -2.099   0.984  24.531  0.00  0.00    +0.172 C 
ENDROOT
BRANCH  18  24
ATOM     24  N   UNL     1       1.437   1.010  23.758  0.00  0.00    -0.205 NA
ATOM     25  C   UNL     1       1.631   0.586  23.078  0.00  0.00    +0.241 C 
ATOM     26  O   UNL     1       1.035   0.325  22.571  0.00  0.00    -0.273 OA
BRANCH  25  27
ATOM     27  C   UNL     1       2.421   0.421  22.905  0.00  0.00    +0.078 C 
ATOM     28  C   UNL     1       3.186   0.685  22.743  0.00  0.00    +0.010 C 
ATOM     29  C   UNL     1       3.024  -0.124  22.766  0.00  0.00    +0.010 C 
ENDBRANCH  25  27
ENDBRANCH  18  24
BRANCH   2   3
ATOM      3  C   UNL     1      -3.556  -0.646  24.849  0.00  0.00    +0.118 C 
BRANCH   3   4
ATOM      4  C   UNL     1      -3.670  -1.438  24.649  0.00  0.00    +0.016 A 
ATOM      5  C   UNL     1      -4.025  -1.718  23.960  0.00  0.00    +0.003 A 
ATOM      6  C   UNL     1      -4.024  -2.543  23.988  0.00  0.00    +0.007 A 
ATOM      7  C   UNL     1      -3.668  -2.772  24.695  0.00  0.00    +0.035 A 
ATOM      8  S   UNL     1      -3.449  -2.089  25.104  0.00  0.00    -0.090 S 
ENDBRANCH   3   4
ENDBRANCH   2   3
TORSDOF 4
ENDMDL
MODEL 10
REMARK VINA RESULT:      -9.0      2.800      4.603
REMARK  Name = 
REMARK  4 active torsions:
REMARK  status: ('A' for Active; 'I' for Inactive)
REMARK    1  A    between atoms: C_2  and  C_3
REMARK    2  A    between atoms: C_3  and  C_4
REMARK    3  A    between atoms: C_18  and  N_24
REMARK    4  A    between atoms: C_25  and  C_27
REMARK                            x       y       z     vdW  Elec       q    Type
REMARK                         _______ _______ _______ _____ _____    ______ ____
ROOT
ATOM      1  O   UNL     1      -0.484   0.399  23.828  0.00  0.00    -0.274 OA
ATOM      2  C   UNL     1      -0.312  -0.378  24.045  0.00  0.00    +0.231 C 
ATOM      9  N   UNL     1      -0.885  -0.839  24.419  0.00  0.00    -0.271 N 
ATOM     10  C   UNL     1      -0.793  -1.621  24.666  0.00  0.00    +0.096 C 
ATOM     11  C   UNL     1      -1.502  -1.864  25.011  0.00  0.00    +0.045 C 
ATOM     12  C   UNL     1      -2.031  -1.233  24.977  0.00  0.00    +0.124 C 
ATOM     13  N   UNL     1      -2.802  -1.269  25.270  0.00  0.00    -0.204 NA
ATOM     14  C   UNL     1      -3.381  -0.682  25.270  0.00  0.00    +0.260 C 
ATOM     15  O   UNL     1      -4.104  -0.892  25.608  0.00  0.00    -0.272 OA
ATOM     16  C   UNL     1      -3.333   0.087  24.976  0.00  0.00    +0.155 C 
ATOM     17  C   UNL     1      -3.957   0.626  25.009  0.00  0.00    +0.053 C 
ATOM     18  C   UNL     1      -3.704   1.331  24.664  0.00  0.00    +0.117 C 
ATOM     19  C   UNL     1      -2.923   1.228  24.418  0.00  0.00    +0.115 C 
ATOM     20  N   UNL     1      -2.694   0.459  24.610  0.00  0.00    -0.270 N 
ATOM     21  C   UNL     1      -1.945   0.154  24.448  0.00  0.00    +0.246 C 
ATOM     22  O   UNL     1      -1.422   0.669  24.072  0.00  0.00    -0.273 OA
ATOM     23  C   UNL     1      -1.651  -0.599  24.611  0.00  0.00    +0.172 C 
ENDROOT
BRANCH  18  24
ATOM     24  N   UNL     1      -4.152   2.018  24.580  0.00  0.00    -0.205 NA
ATOM     25  C   UNL     1      -4.094   2.619  25.143  0.00  0.00    +0.241 C 
ATOM     26  O   UNL     1      -3.589   2.532  25.789  0.00  0.00    -0.273 OA
BRANCH  25  27
ATOM     27  C   UNL     1      -4.542   3.307  25.059  0.00  0.00    +0.078 C 
ATOM     28  C   UNL     1      -5.147   3.802  25.324  0.00  0.00    +0.010 C 
ATOM     29  C   UNL     1      -4.714   4.003  24.651  0.00  0.00    +0.010 C 
ENDBRANCH  25  27
ENDBRANCH  18  24
BRANCH   2   3
ATOM      3  C   UNL     1       0.434  -0.694  23.887  0.00  0.00    +0.118 C 
BRANCH   3   4
ATOM      4  C   UNL     1       0.907  -0.361  23.300  0.00  0.00    +0.016 A 
ATOM      5  C   UNL     1       0.845  -0.501  22.489  0.00  0.00    +0.003 A 
ATOM      6  C   UNL     1       1.426  -0.056  22.108  0.00  0.00    +0.007 A 
ATOM      7  C   UNL     1       1.847   0.359  22.683  0.00  0.00    +0.035 A 
ATOM      8  S   UNL     1       1.527   0.170  23.420  0.00  0.00    -0.090 S 
ENDBRANCH   3   4
ENDBRANCH   2   3
TORSDOF 4
ENDMDL
