MODEL 1
REMARK VINA RESULT:      -9.6      0.000      0.000
REMARK  Name = 
REMARK  3 active torsions:
REMARK  status: ('A' for Active; 'I' for Inactive)
REMARK    1  A    between atoms: C_2  and  C_4
REMARK    2  A    between atoms: N_6  and  C_7
REMARK    3  A    between atoms: C_13  and  C_14
REMARK                            x       y       z     vdW  Elec       q    Type
REMARK                         _______ _______ _______ _____ _____    ______ ____
ROOT
ATOM      7  C   UNL     1      -4.209   1.286  24.408  0.00  0.00    +0.132 C 
ATOM      8  C   UNL     1      -4.672   1.938  24.606  0.00  0.00    +0.202 C 
ATOM      9  O   UNL     1      -4.586   2.704  24.310  0.00  0.00    -0.219 OA
ATOM     10  C   UNL     1      -5.238   1.691  25.154  0.00  0.00    +0.184 C 
ATOM     11  O   UNL     1      -5.817   2.167  25.502  0.00  0.00    -0.220 OA
ATOM     12  C   UNL     1      -5.124   0.886  25.293  0.00  0.00    +0.042 C 
ATOM     13  C   UNL     1      -4.488   0.635  24.832  0.00  0.00    +0.049 C 
ENDROOT
BRANCH  13  14
ATOM     14  C   UNL     1      -4.185  -0.131  24.801  0.00  0.00    -0.002 A 
ATOM     15  C   UNL     1      -4.382  -0.629  24.174  0.00  0.00    -0.001 A 
ATOM     16  C   UNL     1      -4.079  -1.395  24.144  0.00  0.00    +0.020 A 
ATOM     17  C   UNL     1      -3.577  -1.664  24.742  0.00  0.00    +0.099 A 
ATOM     18  N   UNL     1      -3.380  -1.167  25.369  0.00  0.00    -0.243 NA
ATOM     19  C   UNL     1      -3.683  -0.400  25.400  0.00  0.00    +0.095 A 
ENDBRANCH  13  14
BRANCH   7   6
ATOM      4  C   UNL     1      -2.973   1.839  23.953  0.00  0.00    +0.241 C 
ATOM      5  O   UNL     1      -3.000   2.398  24.559  0.00  0.00    -0.273 OA
ATOM      6  N   UNL     1      -3.577   1.284  23.877  0.00  0.00    -0.204 NA
BRANCH   4   2
ATOM      1  C   UNL     1      -1.567   1.775  23.702  0.00  0.00    +0.010 C 
ATOM      2  C   UNL     1      -2.341   1.837  23.422  0.00  0.00    +0.078 C 
ATOM      3  C   UNL     1      -2.482   1.897  22.612  0.00  0.00    +0.010 C 
ENDBRANCH   4   2
ENDBRANCH   7   6
TORSDOF 3
ENDMDL
MODEL 2
REMARK VINA RESULT:      -9.4      1.013      2.783
REMARK  Name = 
REMARK  3 active torsions:
REMARK  status: ('A' for Active; 'I' for Inactive)
REMARK    1  A    between atoms: C_2  and  C_4
REMARK    2  A    between atoms: N_6  and  C_7
REMARK    3  A    between atoms: C_13  and  C_14
REMARK                            x       y       z     vdW  Elec       q    Type
REMARK                         _______ _______ _______ _____ _____    ______ ____
ROOT
ATOM      7  C   UNL     1      -4.334   1.310  24.520  0.00  0.00    +0.132 C 
ATOM      8  C   UNL     1      -5.048   1.554  24.854  0.00  0.00    +0.202 C 
ATOM      9  O   UNL     1      -5.677   1.065  25.067  0.00  0.00    -0.219 OA
ATOM     10  C   UNL     1      -5.023   2.375  24.937  0.00  0.00    +0.184 C 
ATOM     11  O   UNL     1      -5.622   2.850  25.248  0.00  0.00    -0.220 OA
ATOM     12  C   UNL     1      -4.293   2.637  24.654  0.00  0.00    +0.042 C 
ATOM     13  C   UNL     1      -3.868   1.979  24.397  0.00  0.00    +0.049 C 
ENDROOT
BRANCH  13  14
ATOM     14  C   UNL     1      -3.109   1.990  24.073  0.00  0.00    -0.002 A 
ATOM     15  C   UNL     1      -3.007   1.945  23.256  0.00  0.00    -0.001 A 
ATOM     16  C   UNL     1      -2.249   1.956  22.933  0.00  0.00    +0.020 A 
ATOM     17  C   UNL     1      -1.591   2.011  23.427  0.00  0.00    +0.099 A 
ATOM     18  N   UNL     1      -1.692   2.056  24.245  0.00  0.00    -0.243 NA
ATOM     19  C   UNL     1      -2.451   2.045  24.569  0.00  0.00    +0.095 A 
ENDBRANCH  13  14
BRANCH   7   6
ATOM      4  C   UNL     1      -4.189  -0.055  24.916  0.00  0.00    +0.241 C 
ATOM      5  O   UNL     1      -4.465   0.134  25.669  0.00  0.00    -0.273 OA
ATOM      6  N   UNL     1      -4.123   0.532  24.341  0.00  0.00    -0.204 NA
BRANCH   4   2
ATOM      1  C   UNL     1      -4.255  -1.187  24.045  0.00  0.00    +0.010 C 
ATOM      2  C   UNL     1      -3.978  -0.833  24.737  0.00  0.00    +0.078 C 
ATOM      3  C   UNL     1      -3.490  -1.257  25.249  0.00  0.00    +0.010 C 
ENDBRANCH   4   2
ENDBRANCH   7   6
TORSDOF 3
ENDMDL
MODEL 3
REMARK VINA RESULT:      -9.3      0.863      2.443
REMARK  Name = 
REMARK  3 active torsions:
REMARK  status: ('A' for Active; 'I' for Inactive)
REMARK    1  A    between atoms: C_2  and  C_4
REMARK    2  A    between atoms: N_6  and  C_7
REMARK    3  A    between atoms: C_13  and  C_14
REMARK                            x       y       z     vdW  Elec       q    Type
REMARK                         _______ _______ _______ _____ _____    ______ ____
ROOT
ATOM      7  C   UNL     1      -3.594   1.530  24.339  0.00  0.00    +0.132 C 
ATOM      8  C   UNL     1      -3.221   2.122  23.904  0.00  0.00    +0.202 C 
ATOM      9  O   UNL     1      -3.388   2.929  23.937  0.00  0.00    -0.219 OA
ATOM     10  C   UNL     1      -2.649   1.765  23.427  0.00  0.00    +0.184 C 
ATOM     11  O   UNL     1      -2.144   2.153  22.901  0.00  0.00    -0.220 OA
ATOM     12  C   UNL     1      -2.669   0.953  23.569  0.00  0.00    +0.042 C 
ATOM     13  C   UNL     1      -3.254   0.807  24.133  0.00  0.00    +0.049 C 
ENDROOT
BRANCH  13  14
ATOM     14  C   UNL     1      -3.461   0.068  24.437  0.00  0.00    -0.002 A 
ATOM     15  C   UNL     1      -3.927  -0.446  23.992  0.00  0.00    -0.001 A 
ATOM     16  C   UNL     1      -4.133  -1.184  24.295  0.00  0.00    +0.020 A 
ATOM     17  C   UNL     1      -3.874  -1.409  25.045  0.00  0.00    +0.099 A 
ATOM     18  N   UNL     1      -3.407  -0.894  25.491  0.00  0.00    -0.243 NA
ATOM     19  C   UNL     1      -3.201  -0.156  25.188  0.00  0.00    +0.095 A 
ENDBRANCH  13  14
BRANCH   7   6
ATOM      4  C   UNL     1      -4.858   2.100  24.686  0.00  0.00    +0.241 C 
ATOM      5  O   UNL     1      -4.905   2.448  23.941  0.00  0.00    -0.273 OA
ATOM      6  N   UNL     1      -4.203   1.641  24.886  0.00  0.00    -0.204 NA
BRANCH   4   2
ATOM      1  C   UNL     1      -6.204   1.867  25.105  0.00  0.00    +0.010 C 
ATOM      2  C   UNL     1      -5.466   2.211  25.233  0.00  0.00    +0.078 C 
ATOM      3  C   UNL     1      -5.336   2.667  25.908  0.00  0.00    +0.010 C 
ENDBRANCH   4   2
ENDBRANCH   7   6
TORSDOF 3
ENDMDL
MODEL 4
REMARK VINA RESULT:      -9.2      1.918      2.753
REMARK  Name = 
REMARK  3 active torsions:
REMARK  status: ('A' for Active; 'I' for Inactive)
REMARK    1  A    between atoms: C_2  and  C_4
REMARK    2  A    between atoms: N_6  and  C_7
REMARK    3  A    between atoms: C_13  and  C_14
REMARK                            x       y       z     vdW  Elec       q    Type
REMARK                         _______ _______ _______ _____ _____    ______ ____
ROOT
ATOM      7  C   UNL     1      -3.519   3.353  24.971  0.00  0.00    +0.132 C 
ATOM      8  C   UNL     1      -4.101   3.607  25.496  0.00  0.00    +0.202 C 
ATOM      9  O   UNL     1      -4.058   4.270  25.985  0.00  0.00    -0.219 OA
ATOM     10  C   UNL     1      -4.735   3.081  25.447  0.00  0.00    +0.184 C 
ATOM     11  O   UNL     1      -5.438   3.127  25.878  0.00  0.00    -0.220 OA
ATOM     12  C   UNL     1      -4.544   2.502  24.891  0.00  0.00    +0.042 C 
ATOM     13  C   UNL     1      -3.792   2.670  24.597  0.00  0.00    +0.049 C 
ENDROOT
BRANCH  13  14
ATOM     14  C   UNL     1      -3.386   2.231  24.028  0.00  0.00    -0.002 A 
ATOM     15  C   UNL     1      -3.345   2.500  23.250  0.00  0.00    -0.001 A 
ATOM     16  C   UNL     1      -2.939   2.062  22.682  0.00  0.00    +0.020 A 
ATOM     17  C   UNL     1      -2.573   1.353  22.892  0.00  0.00    +0.099 A 
ATOM     18  N   UNL     1      -2.613   1.083  23.671  0.00  0.00    -0.243 NA
ATOM     19  C   UNL     1      -3.020   1.522  24.240  0.00  0.00    +0.095 A 
ENDBRANCH  13  14
BRANCH   7   6
ATOM      4  C   UNL     1      -2.301   3.900  25.481  0.00  0.00    +0.241 C 
ATOM      5  O   UNL     1      -2.541   3.720  26.248  0.00  0.00    -0.273 OA
ATOM      6  N   UNL     1      -2.789   3.717  24.842  0.00  0.00    -0.204 NA
BRANCH   4   2
ATOM      1  C   UNL     1      -1.541   5.058  25.127  0.00  0.00    +0.010 C 
ATOM      2  C   UNL     1      -1.572   4.265  25.352  0.00  0.00    +0.078 C 
ATOM      3  C   UNL     1      -0.874   3.836  25.448  0.00  0.00    +0.010 C 
ENDBRANCH   4   2
ENDBRANCH   7   6
TORSDOF 3
ENDMDL
MODEL 5
REMARK VINA RESULT:      -9.1      2.289      3.411
REMARK  Name = 
REMARK  3 active torsions:
REMARK  status: ('A' for Active; 'I' for Inactive)
REMARK    1  A    between atoms: C_2  and  C_4
REMARK    2  A    between atoms: N_6  and  C_7
REMARK    3  A    between atoms: C_13  and  C_14
REMARK                            x       y       z     vdW  Elec       q    Type
REMARK                         _______ _______ _______ _____ _____    ______ ____
ROOT
ATOM      7  C   UNL     1      -3.227  -1.184  24.707  0.00  0.00    +0.132 C 
ATOM      8  C   UNL     1      -3.329  -1.983  24.530  0.00  0.00    +0.202 C 
ATOM      9  O   UNL     1      -2.831  -2.599  24.761  0.00  0.00    -0.219 OA
ATOM     10  C   UNL     1      -4.017  -2.059  24.081  0.00  0.00    +0.184 C 
ATOM     11  O   UNL     1      -4.328  -2.763  23.784  0.00  0.00    -0.220 OA
ATOM     12  C   UNL     1      -4.340  -1.306  23.981  0.00  0.00    +0.042 C 
ATOM     13  C   UNL     1      -3.852  -0.765  24.368  0.00  0.00    +0.049 C 
ENDROOT
BRANCH  13  14
ATOM     14  C   UNL     1      -3.969   0.050  24.408  0.00  0.00    -0.002 A 
ATOM     15  C   UNL     1      -4.378   0.379  25.043  0.00  0.00    -0.001 A 
ATOM     16  C   UNL     1      -4.495   1.194  25.083  0.00  0.00    +0.020 A 
ATOM     17  C   UNL     1      -4.202   1.682  24.486  0.00  0.00    +0.099 A 
ATOM     18  N   UNL     1      -3.792   1.354  23.849  0.00  0.00    -0.243 NA
ATOM     19  C   UNL     1      -3.675   0.538  23.810  0.00  0.00    +0.095 A 
ENDBRANCH  13  14
BRANCH   7   6
ATOM      4  C   UNL     1      -1.827  -1.041  24.956  0.00  0.00    +0.241 C 
ATOM      5  O   UNL     1      -1.664  -1.546  24.325  0.00  0.00    -0.273 OA
ATOM      6  N   UNL     1      -2.608  -0.860  25.147  0.00  0.00    -0.204 NA
BRANCH   4   2
ATOM      1  C   UNL     1      -0.589  -0.330  25.013  0.00  0.00    +0.010 C 
ATOM      2  C   UNL     1      -1.209  -0.717  25.395  0.00  0.00    +0.078 C 
ATOM      3  C   UNL     1      -1.210  -0.779  26.218  0.00  0.00    +0.010 C 
ENDBRANCH   4   2
ENDBRANCH   7   6
TORSDOF 3
ENDMDL
MODEL 6
REMARK VINA RESULT:      -9.0      1.447      3.131
REMARK  Name = 
REMARK  3 active torsions:
REMARK  status: ('A' for Active; 'I' for Inactive)
REMARK    1  A    between atoms: C_2  and  C_4
REMARK    2  A    between atoms: N_6  and  C_7
REMARK    3  A    between atoms: C_13  and  C_14
REMARK                            x       y       z     vdW  Elec       q    Type
REMARK                         _______ _______ _______ _____ _____    ______ ____
ROOT
ATOM      7  C   UNL     1      -3.689   1.262  24.111  0.00  0.00    +0.132 C 
ATOM      8  C   UNL     1      -3.064   1.373  23.585  0.00  0.00    +0.202 C 
ATOM      9  O   UNL     1      -2.587   0.781  23.265  0.00  0.00    -0.219 OA
ATOM     10  C   UNL     1      -2.998   2.182  23.434  0.00  0.00    +0.184 C 
ATOM     11  O   UNL     1      -2.445   2.540  22.938  0.00  0.00    -0.220 OA
ATOM     12  C   UNL     1      -3.583   2.570  23.868  0.00  0.00    +0.042 C 
ATOM     13  C   UNL     1      -4.011   2.001  24.286  0.00  0.00    +0.049 C 
ENDROOT
BRANCH  13  14
ATOM     14  C   UNL     1      -4.647   2.147  24.790  0.00  0.00    -0.002 A 
ATOM     15  C   UNL     1      -5.410   1.930  24.567  0.00  0.00    -0.001 A 
ATOM     16  C   UNL     1      -6.046   2.077  25.070  0.00  0.00    +0.020 A 
ATOM     17  C   UNL     1      -5.919   2.441  25.800  0.00  0.00    +0.099 A 
ATOM     18  N   UNL     1      -5.155   2.659  26.024  0.00  0.00    -0.243 NA
ATOM     19  C   UNL     1      -4.519   2.512  25.520  0.00  0.00    +0.095 A 
ENDBRANCH  13  14
BRANCH   7   6
ATOM      4  C   UNL     1      -3.406   0.007  24.733  0.00  0.00    +0.241 C 
ATOM      5  O   UNL     1      -2.605   0.200  24.757  0.00  0.00    -0.273 OA
ATOM      6  N   UNL     1      -3.948   0.537  24.410  0.00  0.00    -0.204 NA
BRANCH   4   2
ATOM      1  C   UNL     1      -4.095  -1.232  24.552  0.00  0.00    +0.010 C 
ATOM      2  C   UNL     1      -3.665  -0.717  25.032  0.00  0.00    +0.078 C 
ATOM      3  C   UNL     1      -3.494  -0.927  25.811  0.00  0.00    +0.010 C 
ENDBRANCH   4   2
ENDBRANCH   7   6
TORSDOF 3
ENDMDL
MODEL 7
REMARK VINA RESULT:      -9.0      2.069      3.415
REMARK  Name = 
REMARK  3 active torsions:
REMARK  status: ('A' for Active; 'I' for Inactive)
REMARK    1  A    between atoms: C_2  and  C_4
REMARK    2  A    between atoms: N_6  and  C_7
REMARK    3  A    between atoms: C_13  and  C_14
REMARK                            x       y       z     vdW  Elec       q    Type
REMARK                         _______ _______ _______ _____ _____    ______ ____
ROOT
ATOM      7  C   UNL     1      -3.502   2.918  24.967  0.00  0.00    +0.132 C 
ATOM      8  C   UNL     1      -4.310   2.941  25.126  0.00  0.00    +0.202 C 
ATOM      9  O   UNL     1      -4.884   2.445  24.800  0.00  0.00    -0.219 OA
ATOM     10  C   UNL     1      -4.446   3.548  25.668  0.00  0.00    +0.184 C 
ATOM     11  O   UNL     1      -5.179   3.765  25.980  0.00  0.00    -0.220 OA
ATOM     12  C   UNL     1      -3.721   3.899  25.844  0.00  0.00    +0.042 C 
ATOM     13  C   UNL     1      -3.137   3.509  25.410  0.00  0.00    +0.049 C 
ENDROOT
BRANCH  13  14
ATOM     14  C   UNL     1      -2.330   3.683  25.419  0.00  0.00    -0.002 A 
ATOM     15  C   UNL     1      -2.050   4.368  25.057  0.00  0.00    -0.001 A 
ATOM     16  C   UNL     1      -1.244   4.541  25.066  0.00  0.00    +0.020 A 
ATOM     17  C   UNL     1      -0.717   4.027  25.439  0.00  0.00    +0.099 A 
ATOM     18  N   UNL     1      -0.996   3.341  25.802  0.00  0.00    -0.243 NA
ATOM     19  C   UNL     1      -1.803   3.168  25.792  0.00  0.00    +0.095 A 
ENDBRANCH  13  14
BRANCH   7   6
ATOM      4  C   UNL     1      -3.372   2.333  23.669  0.00  0.00    +0.241 C 
ATOM      5  O   UNL     1      -3.998   2.795  23.398  0.00  0.00    -0.273 OA
ATOM      6  N   UNL     1      -3.124   2.393  24.453  0.00  0.00    -0.204 NA
BRANCH   4   2
ATOM      1  C   UNL     1      -2.675   2.084  22.447  0.00  0.00    +0.010 C 
ATOM      2  C   UNL     1      -2.994   1.809  23.156  0.00  0.00    +0.078 C 
ATOM      3  C   UNL     1      -2.935   1.010  23.351  0.00  0.00    +0.010 C 
ENDBRANCH   4   2
ENDBRANCH   7   6
TORSDOF 3
ENDMDL
