REMARK  Name = 
REMARK  7 active torsions:
REMARK  status: ('A' for Active; 'I' for Inactive)
REMARK    1  A    between atoms: C_2  and  C_4
REMARK    2  A    between atoms: C_4  and  S_5
REMARK    3  A    between atoms: S_5  and  C_6
REMARK    4  A    between atoms: C_6  and  C_7
REMARK    5  A    between atoms: N_9  and  C_10
REMARK    6  A    between atoms: C_14  and  N_18
REMARK    7  A    between atoms: C_21  and  C_25
REMARK                            x       y       z     vdW  Elec       q    Type
REMARK                         _______ _______ _______ _____ _____    ______ ____
ROOT
ATOM     10  C   UNL     1       9.136   1.354   0.000  0.00  0.00    +0.154 C 
ATOM     11  C   UNL     1       9.222   2.174   0.000  0.00  0.00    +0.166 C 
ATOM     12  O   UNL     1      10.029   2.346   0.000  0.00  0.00    -0.350 OA
ATOM     13  C   UNL     1      10.442   1.631   0.000  0.00  0.00    +0.166 C 
ATOM     14  C   UNL     1      11.196   1.296   0.000  0.00  0.00    +0.154 C 
ATOM     15  C   UNL     1      11.109   0.475   0.000  0.00  0.00    +0.166 C 
ATOM     16  O   UNL     1      10.302   0.304   0.000  0.00  0.00    -0.350 OA
ATOM     17  C   UNL     1       9.890   1.018   0.000  0.00  0.00    +0.166 C 
ENDROOT
BRANCH  14  18
ATOM     18  N   UNL     1      11.910   1.708   0.000  0.00  0.00    -0.200 NA
ATOM     19  C   UNL     1      12.624   1.296   0.000  0.00  0.00    +0.237 A 
ATOM     20  N   UNL     1      13.339   1.708   0.000  0.00  0.00    -0.212 NA
ATOM     21  C   UNL     1      14.053   1.296   0.000  0.00  0.00    +0.086 A 
ATOM     22  C   UNL     1      14.053   0.471   0.000  0.00  0.00    +0.040 A 
ATOM     23  C   UNL     1      13.339   0.058   0.000  0.00  0.00    +0.103 A 
ATOM     24  N   UNL     1      12.624   0.471   0.000  0.00  0.00    -0.211 NA
BRANCH  21  25
ATOM     25  C   UNL     1      14.768   1.708   0.000  0.00  0.00    +0.020 A 
ATOM     26  C   UNL     1      14.768   2.533   0.000  0.00  0.00    +0.002 A 
ATOM     27  C   UNL     1      15.482   2.946   0.000  0.00  0.00    +0.002 A 
ATOM     28  C   UNL     1      16.197   2.533   0.000  0.00  0.00    +0.030 A 
ATOM     29  C   UNL     1      16.197   1.708   0.000  0.00  0.00    +0.140 A 
ATOM     30  F   UNL     1      16.911   1.296   0.000  0.00  0.00    -0.204 F 
ATOM     31  C   UNL     1      15.482   1.296   0.000  0.00  0.00    +0.031 A 
ENDBRANCH  21  25
ENDBRANCH  14  18
BRANCH  10   9
ATOM      7  C   UNL     1       7.707   1.354   0.000  0.00  0.00    +0.252 C 
ATOM      8  O   UNL     1       7.707   2.179   0.000  0.00  0.00    -0.272 OA
ATOM      9  N   UNL     1       8.422   0.941   0.000  0.00  0.00    -0.201 NA
BRANCH   7   6
ATOM      6  C   UNL     1       6.993   0.941   0.000  0.00  0.00    +0.145 C 
BRANCH   6   5
ATOM      5  S   UNL     1       6.278   1.354   0.000  0.00  0.00    -0.119 S 
BRANCH   5   4
ATOM      4  C   UNL     1       5.564   0.941   0.000  0.00  0.00    +0.172 C 
BRANCH   4   2
ATOM      1  O   UNL     1       4.135   0.941   0.000  0.00  0.00    -0.245 OA
ATOM      2  C   UNL     1       4.849   1.354   0.000  0.00  0.00    +0.376 C 
ATOM      3  O   UNL     1       4.849   2.179   0.000  0.00  0.00    -0.245 OA
ENDBRANCH   4   2
ENDBRANCH   5   4
ENDBRANCH   6   5
ENDBRANCH   7   6
ENDBRANCH  10   9
TORSDOF 7
