MODEL 1
REMARK VINA RESULT:     -13.4      0.000      0.000
REMARK  Name = 
REMARK  7 active torsions:
REMARK  status: ('A' for Active; 'I' for Inactive)
REMARK    1  A    between atoms: C_5  and  C_6
REMARK    2  A    between atoms: C_6  and  C_7
REMARK    3  A    between atoms: C_10  and  C_12
REMARK    4  A    between atoms: C_19  and  C_20
REMARK    5  A    between atoms: C_20  and  N_21
REMARK    6  A    between atoms: N_21  and  C_22
REMARK    7  A    between atoms: C_22  and  C_23
REMARK                            x       y       z     vdW  Elec       q    Type
REMARK                         _______ _______ _______ _____ _____    ______ ____
ROOT
ATOM      1  O   UNL     1      -5.608   3.276  26.453  0.00  0.00    -0.220 OA
ATOM      2  C   UNL     1      -5.318   2.802  25.844  0.00  0.00    +0.180 C 
ATOM      3  C   UNL     1      -5.769   2.170  25.564  0.00  0.00    +0.038 C 
ATOM      4  C   UNL     1      -5.479   1.695  24.954  0.00  0.00    +0.033 C 
ATOM      5  C   UNL     1      -4.739   1.852  24.625  0.00  0.00    +0.121 C 
ATOM     18  O   UNL     1      -4.289   2.484  24.905  0.00  0.00    -0.354 OA
ATOM     19  C   UNL     1      -4.578   2.958  25.514  0.00  0.00    +0.163 C 
ENDROOT
BRANCH   5   6
ATOM      6  C   UNL     1      -4.450   1.377  24.015  0.00  0.00    +0.079 C 
BRANCH   6   7
ATOM      7  C   UNL     1      -3.995   0.711  24.191  0.00  0.00    +0.103 A 
ATOM      8  N   UNL     1      -3.193   0.709  24.385  0.00  0.00    -0.081 NA
ATOM      9  O   UNL     1      -2.965  -0.072  24.517  0.00  0.00    -0.354 OA
ATOM     10  C   UNL     1      -3.626  -0.553  24.406  0.00  0.00    +0.177 A 
ATOM     11  C   UNL     1      -4.262  -0.069  24.204  0.00  0.00    +0.058 A 
BRANCH  10  12
ATOM     12  C   UNL     1      -3.647  -1.374  24.483  0.00  0.00    +0.037 A 
ATOM     13  C   UNL     1      -3.297  -1.736  25.136  0.00  0.00    +0.003 A 
ATOM     14  C   UNL     1      -3.318  -2.558  25.213  0.00  0.00    +0.000 A 
ATOM     15  C   UNL     1      -3.688  -3.017  24.637  0.00  0.00    +0.000 A 
ATOM     16  C   UNL     1      -4.038  -2.655  23.982  0.00  0.00    +0.000 A 
ATOM     17  C   UNL     1      -4.017  -1.833  23.905  0.00  0.00    +0.003 A 
ENDBRANCH  10  12
ENDBRANCH   6   7
ENDBRANCH   5   6
BRANCH  19  20
ATOM     20  C   UNL     1      -4.128   3.590  25.794  0.00  0.00    +0.121 C 
BRANCH  20  21
ATOM     21  N   UNL     1      -3.377   3.733  25.481  0.00  0.00    -0.211 NA
BRANCH  21  22
ATOM     22  C   UNL     1      -2.827   4.173  25.911  0.00  0.00    +0.115 C 
BRANCH  22  23
ATOM     23  C   UNL     1      -2.093   4.351  25.582  0.00  0.00    -0.005 A 
ATOM     24  C   UNL     1      -1.504   3.775  25.553  0.00  0.00    -0.003 A 
ATOM     25  C   UNL     1      -0.768   3.952  25.223  0.00  0.00    -0.000 A 
ATOM     26  C   UNL     1      -0.623   4.707  24.922  0.00  0.00    -0.000 A 
ATOM     27  C   UNL     1      -1.213   5.283  24.951  0.00  0.00    -0.000 A 
ATOM     28  C   UNL     1      -1.947   5.105  25.280  0.00  0.00    -0.003 A 
ENDBRANCH  22  23
ENDBRANCH  21  22
ENDBRANCH  20  21
ENDBRANCH  19  20
TORSDOF 7
ENDMDL
MODEL 2
REMARK VINA RESULT:     -13.0      1.604      3.362
REMARK  Name = 
REMARK  7 active torsions:
REMARK  status: ('A' for Active; 'I' for Inactive)
REMARK    1  A    between atoms: C_5  and  C_6
REMARK    2  A    between atoms: C_6  and  C_7
REMARK    3  A    between atoms: C_10  and  C_12
REMARK    4  A    between atoms: C_19  and  C_20
REMARK    5  A    between atoms: C_20  and  N_21
REMARK    6  A    between atoms: N_21  and  C_22
REMARK    7  A    between atoms: C_22  and  C_23
REMARK                            x       y       z     vdW  Elec       q    Type
REMARK                         _______ _______ _______ _____ _____    ______ ____
ROOT
ATOM      1  O   UNL     1      -1.127   3.722  25.809  0.00  0.00    -0.220 OA
ATOM      2  C   UNL     1      -1.030   2.940  25.568  0.00  0.00    +0.180 C 
ATOM      3  C   UNL     1      -0.354   2.521  25.786  0.00  0.00    +0.038 C 
ATOM      4  C   UNL     1      -0.256   1.738  25.544  0.00  0.00    +0.033 C 
ATOM      5  C   UNL     1      -0.836   1.374  25.084  0.00  0.00    +0.121 C 
ATOM     18  O   UNL     1      -1.513   1.792  24.866  0.00  0.00    -0.354 OA
ATOM     19  C   UNL     1      -1.610   2.574  25.107  0.00  0.00    +0.163 C 
ENDROOT
BRANCH   5   6
ATOM      6  C   UNL     1      -0.739   0.591  24.842  0.00  0.00    +0.079 C 
BRANCH   6   7
ATOM      7  C   UNL     1      -1.291   0.019  25.063  0.00  0.00    +0.103 A 
ATOM      8  N   UNL     1      -1.407  -0.274  25.827  0.00  0.00    -0.081 NA
ATOM      9  O   UNL     1      -2.011  -0.834  25.795  0.00  0.00    -0.354 OA
ATOM     10  C   UNL     1      -2.269  -0.888  25.014  0.00  0.00    +0.177 A 
ATOM     11  C   UNL     1      -1.824  -0.361  24.562  0.00  0.00    +0.058 A 
BRANCH  10  12
ATOM     12  C   UNL     1      -2.867  -1.382  24.733  0.00  0.00    +0.037 A 
ATOM     13  C   UNL     1      -3.544  -1.059  24.393  0.00  0.00    +0.003 A 
ATOM     14  C   UNL     1      -4.143  -1.553  24.113  0.00  0.00    +0.000 A 
ATOM     15  C   UNL     1      -4.063  -2.372  24.173  0.00  0.00    +0.000 A 
ATOM     16  C   UNL     1      -3.385  -2.696  24.514  0.00  0.00    +0.000 A 
ATOM     17  C   UNL     1      -2.787  -2.202  24.794  0.00  0.00    +0.003 A 
ENDBRANCH  10  12
ENDBRANCH   6   7
ENDBRANCH   5   6
BRANCH  19  20
ATOM     20  C   UNL     1      -2.287   2.993  24.889  0.00  0.00    +0.121 C 
BRANCH  20  21
ATOM     21  N   UNL     1      -3.033   2.716  25.110  0.00  0.00    -0.211 NA
BRANCH  21  22
ATOM     22  C   UNL     1      -3.710   3.029  24.758  0.00  0.00    +0.115 C 
BRANCH  22  23
ATOM     23  C   UNL     1      -4.454   2.752  24.978  0.00  0.00    -0.005 A 
ATOM     24  C   UNL     1      -4.830   3.063  25.644  0.00  0.00    -0.003 A 
ATOM     25  C   UNL     1      -5.575   2.785  25.865  0.00  0.00    -0.000 A 
ATOM     26  C   UNL     1      -5.944   2.197  25.420  0.00  0.00    -0.000 A 
ATOM     27  C   UNL     1      -5.569   1.886  24.754  0.00  0.00    -0.000 A 
ATOM     28  C   UNL     1      -4.825   2.163  24.534  0.00  0.00    -0.003 A 
ENDBRANCH  22  23
ENDBRANCH  21  22
ENDBRANCH  20  21
ENDBRANCH  19  20
TORSDOF 7
ENDMDL
MODEL 3
REMARK VINA RESULT:     -12.8      1.942      2.726
REMARK  Name = 
REMARK  7 active torsions:
REMARK  status: ('A' for Active; 'I' for Inactive)
REMARK    1  A    between atoms: C_5  and  C_6
REMARK    2  A    between atoms: C_6  and  C_7
REMARK    3  A    between atoms: C_10  and  C_12
REMARK    4  A    between atoms: C_19  and  C_20
REMARK    5  A    between atoms: C_20  and  N_21
REMARK    6  A    between atoms: N_21  and  C_22
REMARK    7  A    between atoms: C_22  and  C_23
REMARK                            x       y       z     vdW  Elec       q    Type
REMARK                         _______ _______ _______ _____ _____    ______ ____
ROOT
ATOM      1  O   UNL     1      -2.217   4.277  25.581  0.00  0.00    -0.220 OA
ATOM      2  C   UNL     1      -2.764   3.743  25.271  0.00  0.00    +0.180 C 
ATOM      3  C   UNL     1      -3.572   3.887  25.351  0.00  0.00    +0.038 C 
ATOM      4  C   UNL     1      -4.120   3.353  25.041  0.00  0.00    +0.033 C 
ATOM      5  C   UNL     1      -3.858   2.676  24.650  0.00  0.00    +0.121 C 
ATOM     18  O   UNL     1      -3.050   2.531  24.570  0.00  0.00    -0.354 OA
ATOM     19  C   UNL     1      -2.503   3.065  24.880  0.00  0.00    +0.163 C 
ENDROOT
BRANCH   5   6
ATOM      6  C   UNL     1      -4.406   2.141  24.339  0.00  0.00    +0.079 C 
BRANCH   6   7
ATOM      7  C   UNL     1      -4.463   1.380  24.652  0.00  0.00    +0.103 A 
ATOM      8  N   UNL     1      -4.849   1.171  25.351  0.00  0.00    -0.081 NA
ATOM      9  O   UNL     1      -4.769   0.357  25.452  0.00  0.00    -0.354 OA
ATOM     10  C   UNL     1      -4.334   0.062  24.816  0.00  0.00    +0.177 A 
ATOM     11  C   UNL     1      -4.145   0.695  24.322  0.00  0.00    +0.058 A 
BRANCH  10  12
ATOM     12  C   UNL     1      -4.124  -0.727  24.695  0.00  0.00    +0.037 A 
ATOM     13  C   UNL     1      -3.749  -1.150  25.294  0.00  0.00    +0.003 A 
ATOM     14  C   UNL     1      -3.539  -1.940  25.173  0.00  0.00    +0.000 A 
ATOM     15  C   UNL     1      -3.706  -2.305  24.453  0.00  0.00    +0.000 A 
ATOM     16  C   UNL     1      -4.082  -1.881  23.853  0.00  0.00    +0.000 A 
ATOM     17  C   UNL     1      -4.291  -1.092  23.974  0.00  0.00    +0.003 A 
ENDBRANCH  10  12
ENDBRANCH   6   7
ENDBRANCH   5   6
BRANCH  19  20
ATOM     20  C   UNL     1      -1.695   2.921  24.799  0.00  0.00    +0.121 C 
BRANCH  20  21
ATOM     21  N   UNL     1      -1.433   2.219  24.452  0.00  0.00    -0.211 NA
BRANCH  21  22
ATOM     22  C   UNL     1      -0.687   1.920  24.638  0.00  0.00    +0.115 C 
BRANCH  22  23
ATOM     23  C   UNL     1      -0.503   1.135  24.466  0.00  0.00    -0.005 A 
ATOM     24  C   UNL     1      -0.265   0.924  23.705  0.00  0.00    -0.003 A 
ATOM     25  C   UNL     1      -0.080   0.138  23.533  0.00  0.00    -0.000 A 
ATOM     26  C   UNL     1      -0.136  -0.436  24.122  0.00  0.00    -0.000 A 
ATOM     27  C   UNL     1      -0.375  -0.226  24.883  0.00  0.00    -0.000 A 
ATOM     28  C   UNL     1      -0.558   0.559  25.055  0.00  0.00    -0.003 A 
ENDBRANCH  22  23
ENDBRANCH  21  22
ENDBRANCH  20  21
ENDBRANCH  19  20
TORSDOF 7
ENDMDL
MODEL 4
REMARK VINA RESULT:     -12.8      1.628      3.933
REMARK  Name = 
REMARK  7 active torsions:
REMARK  status: ('A' for Active; 'I' for Inactive)
REMARK    1  A    between atoms: C_5  and  C_6
REMARK    2  A    between atoms: C_6  and  C_7
REMARK    3  A    between atoms: C_10  and  C_12
REMARK    4  A    between atoms: C_19  and  C_20
REMARK    5  A    between atoms: C_20  and  N_21
REMARK    6  A    between atoms: N_21  and  C_22
REMARK    7  A    between atoms: C_22  and  C_23
REMARK                            x       y       z     vdW  Elec       q    Type
REMARK                         _______ _______ _______ _____ _____    ______ ____
ROOT
ATOM      1  O   UNL     1      -0.091  -1.175  24.407  0.00  0.00    -0.220 OA
ATOM      2  C   UNL     1      -0.872  -1.148  24.669  0.00  0.00    +0.180 C 
ATOM      3  C   UNL     1      -1.377  -1.784  24.525  0.00  0.00    +0.038 C 
ATOM      4  C   UNL     1      -2.160  -1.757  24.787  0.00  0.00    +0.033 C 
ATOM      5  C   UNL     1      -2.435  -1.095  25.193  0.00  0.00    +0.121 C 
ATOM     18  O   UNL     1      -1.930  -0.459  25.337  0.00  0.00    -0.354 OA
ATOM     19  C   UNL     1      -1.149  -0.485  25.075  0.00  0.00    +0.163 C 
ENDROOT
BRANCH   5   6
ATOM      6  C   UNL     1      -3.218  -1.068  25.455  0.00  0.00    +0.079 C 
BRANCH   6   7
ATOM      7  C   UNL     1      -3.749  -0.536  25.116  0.00  0.00    +0.103 A 
ATOM      8  N   UNL     1      -4.207  -0.671  24.442  0.00  0.00    -0.081 NA
ATOM      9  O   UNL     1      -4.656   0.006  24.301  0.00  0.00    -0.354 OA
ATOM     10  C   UNL     1      -4.476   0.559  24.886  0.00  0.00    +0.177 A 
ATOM     11  C   UNL     1      -3.916   0.224  25.390  0.00  0.00    +0.058 A 
BRANCH  10  12
ATOM     12  C   UNL     1      -4.801   1.315  24.955  0.00  0.00    +0.037 A 
ATOM     13  C   UNL     1      -4.473   1.944  24.536  0.00  0.00    +0.003 A 
ATOM     14  C   UNL     1      -4.798   2.700  24.605  0.00  0.00    +0.000 A 
ATOM     15  C   UNL     1      -5.450   2.826  25.094  0.00  0.00    +0.000 A 
ATOM     16  C   UNL     1      -5.779   2.195  25.514  0.00  0.00    +0.000 A 
ATOM     17  C   UNL     1      -5.454   1.439  25.444  0.00  0.00    +0.003 A 
ENDBRANCH  10  12
ENDBRANCH   6   7
ENDBRANCH   5   6
BRANCH  19  20
ATOM     20  C   UNL     1      -0.644   0.151  25.219  0.00  0.00    +0.121 C 
BRANCH  20  21
ATOM     21  N   UNL     1      -0.929   0.924  25.171  0.00  0.00    -0.211 NA
BRANCH  21  22
ATOM     22  C   UNL     1      -0.448   1.556  25.394  0.00  0.00    +0.115 C 
BRANCH  22  23
ATOM     23  C   UNL     1      -0.730   2.328  25.337  0.00  0.00    -0.005 A 
ATOM     24  C   UNL     1      -0.634   2.752  24.636  0.00  0.00    -0.003 A 
ATOM     25  C   UNL     1      -0.916   3.526  24.579  0.00  0.00    -0.000 A 
ATOM     26  C   UNL     1      -1.294   3.875  25.224  0.00  0.00    -0.000 A 
ATOM     27  C   UNL     1      -1.390   3.451  25.925  0.00  0.00    -0.000 A 
ATOM     28  C   UNL     1      -1.108   2.679  25.982  0.00  0.00    -0.003 A 
ENDBRANCH  22  23
ENDBRANCH  21  22
ENDBRANCH  20  21
ENDBRANCH  19  20
TORSDOF 7
ENDMDL
MODEL 5
REMARK VINA RESULT:     -12.7      1.557      4.907
REMARK  Name = 
REMARK  7 active torsions:
REMARK  status: ('A' for Active; 'I' for Inactive)
REMARK    1  A    between atoms: C_5  and  C_6
REMARK    2  A    between atoms: C_6  and  C_7
REMARK    3  A    between atoms: C_10  and  C_12
REMARK    4  A    between atoms: C_19  and  C_20
REMARK    5  A    between atoms: C_20  and  N_21
REMARK    6  A    between atoms: N_21  and  C_22
REMARK    7  A    between atoms: C_22  and  C_23
REMARK                            x       y       z     vdW  Elec       q    Type
REMARK                         _______ _______ _______ _____ _____    ______ ____
ROOT
ATOM      1  O   UNL     1       0.503   1.511  24.295  0.00  0.00    -0.220 OA
ATOM      2  C   UNL     1      -0.075   1.993  24.630  0.00  0.00    +0.180 C 
ATOM      3  C   UNL     1      -0.031   2.812  24.542  0.00  0.00    +0.038 C 
ATOM      4  C   UNL     1      -0.611   3.295  24.878  0.00  0.00    +0.033 C 
ATOM      5  C   UNL     1      -1.233   2.958  25.301  0.00  0.00    +0.121 C 
ATOM     18  O   UNL     1      -1.277   2.139  25.389  0.00  0.00    -0.354 OA
ATOM     19  C   UNL     1      -0.699   1.657  25.054  0.00  0.00    +0.163 C 
ENDROOT
BRANCH   5   6
ATOM      6  C   UNL     1      -1.813   3.442  25.637  0.00  0.00    +0.079 C 
BRANCH   6   7
ATOM      7  C   UNL     1      -2.580   3.438  25.333  0.00  0.00    +0.103 A 
ATOM      8  N   UNL     1      -2.868   3.932  24.738  0.00  0.00    -0.081 NA
ATOM      9  O   UNL     1      -3.659   3.740  24.608  0.00  0.00    -0.354 OA
ATOM     10  C   UNL     1      -3.860   3.127  25.123  0.00  0.00    +0.177 A 
ATOM     11  C   UNL     1      -3.193   2.941  25.571  0.00  0.00    +0.058 A 
BRANCH  10  12
ATOM     12  C   UNL     1      -4.599   2.764  25.180  0.00  0.00    +0.037 A 
ATOM     13  C   UNL     1      -5.126   2.991  25.772  0.00  0.00    +0.003 A 
ATOM     14  C   UNL     1      -5.865   2.628  25.829  0.00  0.00    +0.000 A 
ATOM     15  C   UNL     1      -6.077   2.039  25.292  0.00  0.00    +0.000 A 
ATOM     16  C   UNL     1      -5.550   1.811  24.699  0.00  0.00    +0.000 A 
ATOM     17  C   UNL     1      -4.811   2.174  24.642  0.00  0.00    +0.003 A 
ENDBRANCH  10  12
ENDBRANCH   6   7
ENDBRANCH   5   6
BRANCH  19  20
ATOM     20  C   UNL     1      -0.743   0.838  25.142  0.00  0.00    +0.121 C 
BRANCH  20  21
ATOM     21  N   UNL     1      -1.462   0.448  25.026  0.00  0.00    -0.211 NA
BRANCH  21  22
ATOM     22  C   UNL     1      -1.552  -0.333  25.276  0.00  0.00    +0.115 C 
BRANCH  22  23
ATOM     23  C   UNL     1      -2.290  -0.697  25.229  0.00  0.00    -0.005 A 
ATOM     24  C   UNL     1      -2.719  -0.850  25.917  0.00  0.00    -0.003 A 
ATOM     25  C   UNL     1      -3.458  -1.215  25.871  0.00  0.00    -0.000 A 
ATOM     26  C   UNL     1      -3.767  -1.427  25.136  0.00  0.00    -0.000 A 
ATOM     27  C   UNL     1      -3.338  -1.275  24.448  0.00  0.00    -0.000 A 
ATOM     28  C   UNL     1      -2.600  -0.910  24.494  0.00  0.00    -0.003 A 
ENDBRANCH  22  23
ENDBRANCH  21  22
ENDBRANCH  20  21
ENDBRANCH  19  20
TORSDOF 7
ENDMDL
MODEL 6
REMARK VINA RESULT:     -12.7      1.763      5.177
REMARK  Name = 
REMARK  7 active torsions:
REMARK  status: ('A' for Active; 'I' for Inactive)
REMARK    1  A    between atoms: C_5  and  C_6
REMARK    2  A    between atoms: C_6  and  C_7
REMARK    3  A    between atoms: C_10  and  C_12
REMARK    4  A    between atoms: C_19  and  C_20
REMARK    5  A    between atoms: C_20  and  N_21
REMARK    6  A    between atoms: N_21  and  C_22
REMARK    7  A    between atoms: C_22  and  C_23
REMARK                            x       y       z     vdW  Elec       q    Type
REMARK                         _______ _______ _______ _____ _____    ______ ____
ROOT
ATOM      1  O   UNL     1      -2.354  -1.727  25.228  0.00  0.00    -0.220 OA
ATOM      2  C   UNL     1      -1.880  -1.080  25.036  0.00  0.00    +0.180 C 
ATOM      3  C   UNL     1      -1.063  -1.124  25.136  0.00  0.00    +0.038 C 
ATOM      4  C   UNL     1      -0.588  -0.476  24.943  0.00  0.00    +0.033 C 
ATOM      5  C   UNL     1      -0.932   0.214  24.650  0.00  0.00    +0.121 C 
ATOM     18  O   UNL     1      -1.750   0.258  24.550  0.00  0.00    -0.354 OA
ATOM     19  C   UNL     1      -2.223  -0.389  24.743  0.00  0.00    +0.163 C 
ENDROOT
BRANCH   5   6
ATOM      6  C   UNL     1      -0.457   0.862  24.457  0.00  0.00    +0.079 C 
BRANCH   6   7
ATOM      7  C   UNL     1      -0.508   1.557  24.899  0.00  0.00    +0.103 A 
ATOM      8  N   UNL     1      -0.189   1.678  25.651  0.00  0.00    -0.081 NA
ATOM      9  O   UNL     1      -0.371   2.448  25.883  0.00  0.00    -0.354 OA
ATOM     10  C   UNL     1      -0.801   2.803  25.275  0.00  0.00    +0.177 A 
ATOM     11  C   UNL     1      -0.886   2.252  24.667  0.00  0.00    +0.058 A 
BRANCH  10  12
ATOM     12  C   UNL     1      -1.096   3.574  25.275  0.00  0.00    +0.037 A 
ATOM     13  C   UNL     1      -0.674   4.177  24.905  0.00  0.00    +0.003 A 
ATOM     14  C   UNL     1      -0.968   4.948  24.905  0.00  0.00    +0.000 A 
ATOM     15  C   UNL     1      -1.685   5.115  25.276  0.00  0.00    +0.000 A 
ATOM     16  C   UNL     1      -2.108   4.512  25.648  0.00  0.00    +0.000 A 
ATOM     17  C   UNL     1      -1.814   3.741  25.648  0.00  0.00    +0.003 A 
ENDBRANCH  10  12
ENDBRANCH   6   7
ENDBRANCH   5   6
BRANCH  19  20
ATOM     20  C   UNL     1      -3.041  -0.346  24.643  0.00  0.00    +0.121 C 
BRANCH  20  21
ATOM     21  N   UNL     1      -3.445   0.346  24.841  0.00  0.00    -0.211 NA
BRANCH  21  22
ATOM     22  C   UNL     1      -4.234   0.441  24.620  0.00  0.00    +0.115 C 
BRANCH  22  23
ATOM     23  C   UNL     1      -4.622   1.153  24.772  0.00  0.00    -0.005 A 
ATOM     24  C   UNL     1      -4.491   1.806  24.285  0.00  0.00    -0.003 A 
ATOM     25  C   UNL     1      -4.880   2.518  24.437  0.00  0.00    -0.000 A 
ATOM     26  C   UNL     1      -5.398   2.577  25.076  0.00  0.00    -0.000 A 
ATOM     27  C   UNL     1      -5.528   1.924  25.563  0.00  0.00    -0.000 A 
ATOM     28  C   UNL     1      -5.141   1.213  25.411  0.00  0.00    -0.003 A 
ENDBRANCH  22  23
ENDBRANCH  21  22
ENDBRANCH  20  21
ENDBRANCH  19  20
TORSDOF 7
ENDMDL
MODEL 7
REMARK VINA RESULT:     -12.6      1.743      4.358
REMARK  Name = 
REMARK  7 active torsions:
REMARK  status: ('A' for Active; 'I' for Inactive)
REMARK    1  A    between atoms: C_5  and  C_6
REMARK    2  A    between atoms: C_6  and  C_7
REMARK    3  A    between atoms: C_10  and  C_12
REMARK    4  A    between atoms: C_19  and  C_20
REMARK    5  A    between atoms: C_20  and  N_21
REMARK    6  A    between atoms: N_21  and  C_22
REMARK    7  A    between atoms: C_22  and  C_23
REMARK                            x       y       z     vdW  Elec       q    Type
REMARK                         _______ _______ _______ _____ _____    ______ ____
ROOT
ATOM      1  O   UNL     1      -4.568  -1.743  23.947  0.00  0.00    -0.220 OA
ATOM      2  C   UNL     1      -3.864  -1.573  24.341  0.00  0.00    +0.180 C 
ATOM      3  C   UNL     1      -3.268  -2.141  24.384  0.00  0.00    +0.038 C 
ATOM      4  C   UNL     1      -2.563  -1.972  24.779  0.00  0.00    +0.033 C 
ATOM      5  C   UNL     1      -2.456  -1.233  25.131  0.00  0.00    +0.121 C 
ATOM     18  O   UNL     1      -3.052  -0.665  25.088  0.00  0.00    -0.354 OA
ATOM     19  C   UNL     1      -3.756  -0.835  24.694  0.00  0.00    +0.163 C 
ENDROOT
BRANCH   5   6
ATOM      6  C   UNL     1      -1.751  -1.064  25.526  0.00  0.00    +0.079 C 
BRANCH   6   7
ATOM      7  C   UNL     1      -1.270  -0.447  25.265  0.00  0.00    +0.103 A 
ATOM      8  N   UNL     1      -0.670  -0.506  24.700  0.00  0.00    -0.081 NA
ATOM      9  O   UNL     1      -0.333   0.241  24.608  0.00  0.00    -0.354 OA
ATOM     10  C   UNL     1      -0.724   0.761  25.116  0.00  0.00    +0.177 A 
ATOM     11  C   UNL     1      -1.302   0.336  25.521  0.00  0.00    +0.058 A 
BRANCH  10  12
ATOM     12  C   UNL     1      -0.564   1.566  25.202  0.00  0.00    +0.037 A 
ATOM     13  C   UNL     1      -0.563   1.909  25.952  0.00  0.00    +0.003 A 
ATOM     14  C   UNL     1      -0.403   2.714  26.038  0.00  0.00    +0.000 A 
ATOM     15  C   UNL     1      -0.243   3.176  25.374  0.00  0.00    +0.000 A 
ATOM     16  C   UNL     1      -0.243   2.834  24.623  0.00  0.00    +0.000 A 
ATOM     17  C   UNL     1      -0.404   2.028  24.537  0.00  0.00    +0.003 A 
ENDBRANCH  10  12
ENDBRANCH   6   7
ENDBRANCH   5   6
BRANCH  19  20
ATOM     20  C   UNL     1      -4.352  -0.266  24.651  0.00  0.00    +0.121 C 
BRANCH  20  21
ATOM     21  N   UNL     1      -4.159   0.525  24.514  0.00  0.00    -0.211 NA
BRANCH  21  22
ATOM     22  C   UNL     1      -4.724   1.114  24.635  0.00  0.00    +0.115 C 
BRANCH  22  23
ATOM     23  C   UNL     1      -4.499   1.907  24.634  0.00  0.00    -0.005 A 
ATOM     24  C   UNL     1      -4.180   2.245  23.953  0.00  0.00    -0.003 A 
ATOM     25  C   UNL     1      -3.955   3.039  23.952  0.00  0.00    -0.000 A 
ATOM     26  C   UNL     1      -4.049   3.495  24.633  0.00  0.00    -0.000 A 
ATOM     27  C   UNL     1      -4.368   3.157  25.315  0.00  0.00    -0.000 A 
ATOM     28  C   UNL     1      -4.593   2.364  25.315  0.00  0.00    -0.003 A 
ENDBRANCH  22  23
ENDBRANCH  21  22
ENDBRANCH  20  21
ENDBRANCH  19  20
TORSDOF 7
ENDMDL
