MODEL 1
REMARK VINA RESULT:     -16.1      0.000      0.000
REMARK  Name = 
REMARK  3 active torsions:
REMARK  status: ('A' for Active; 'I' for Inactive)
REMARK    1  A    between atoms: O_2  and  C_3
REMARK    2  A    between atoms: C_6  and  C_9
REMARK    3  A    between atoms: N_21  and  C_22
REMARK                            x       y       z     vdW  Elec       q    Type
REMARK                         _______ _______ _______ _____ _____    ______ ____
ROOT
ATOM      9  C   UNL     1      -3.588   0.170  24.248  0.00  0.00    +0.056 A 
ATOM     10  C   UNL     1      -4.305  -0.214  24.107  0.00  0.00    +0.006 A 
ATOM     11  C   UNL     1      -4.348  -1.037  24.150  0.00  0.00    +0.013 A 
ATOM     12  C   UNL     1      -3.675  -1.476  24.334  0.00  0.00    +0.041 A 
ATOM     13  C   UNL     1      -3.400  -2.344  24.454  0.00  0.00    +0.058 C 
ATOM     14  C   UNL     1      -3.639  -3.004  24.441  0.00  0.00    +0.011 C 
ATOM     15  C   UNL     1      -2.933  -2.622  24.581  0.00  0.00    +0.043 C 
ATOM     16  C   UNL     1      -2.004  -2.350  24.779  0.00  0.00    +0.097 C 
ATOM     17  N   UNL     1      -2.083  -1.521  24.707  0.00  0.00    -0.262 N 
ATOM     18  C   UNL     1      -2.498  -2.097  24.648  0.00  0.00    +0.101 C 
ATOM     19  C   UNL     1      -1.867  -0.724  24.706  0.00  0.00    +0.327 C 
ATOM     20  O   UNL     1      -2.430  -0.144  24.537  0.00  0.00    -0.250 OA
ATOM     21  N   UNL     1      -1.089  -0.508  24.872  0.00  0.00    -0.162 NA
ATOM     29  C   UNL     1      -3.211  -1.712  24.457  0.00  0.00    +0.110 C 
ATOM     30  N   UNL     1      -2.958  -1.092  24.476  0.00  0.00    -0.299 N 
ATOM     31  C   UNL     1      -2.915  -0.269  24.433  0.00  0.00    +0.261 A 
ATOM     32  O   UNL     1      -2.346   0.320  24.527  0.00  0.00    -0.267 OA
ENDROOT
BRANCH  21  22
ATOM     22  C   UNL     1      -0.873   0.288  24.871  0.00  0.00    +0.077 A 
ATOM     23  C   UNL     1      -0.612   0.644  24.173  0.00  0.00    +0.017 A 
ATOM     24  C   UNL     1      -0.397   1.440  24.173  0.00  0.00    +0.004 A 
ATOM     25  C   UNL     1      -0.441   1.881  24.869  0.00  0.00    +0.030 A 
ATOM     26  C   UNL     1      -0.701   1.525  25.566  0.00  0.00    +0.141 A 
ATOM     27  F   UNL     1      -0.745   1.966  26.263  0.00  0.00    -0.204 F 
ATOM     28  C   UNL     1      -0.917   0.729  25.568  0.00  0.00    +0.046 A 
ENDBRANCH  21  22
BRANCH   9   6
ATOM      3  C   UNL     1      -3.462   2.637  24.120  0.00  0.00    +0.139 A 
ATOM      4  C   UNL     1      -3.294   2.182  23.453  0.00  0.00    +0.037 A 
ATOM      5  C   UNL     1      -3.337   1.358  23.496  0.00  0.00    +0.003 A 
ATOM      6  C   UNL     1      -3.546   0.992  24.205  0.00  0.00    +0.005 A 
ATOM      7  C   UNL     1      -3.713   1.449  24.871  0.00  0.00    +0.003 A 
ATOM      8  C   UNL     1      -3.671   2.272  24.829  0.00  0.00    +0.037 A 
BRANCH   3   2
ATOM      1  C   UNL     1      -3.477   3.912  24.764  0.00  0.00    +0.252 C 
ATOM      2  O   UNL     1      -3.419   3.461  24.077  0.00  0.00    -0.471 OA
ENDBRANCH   3   2
ENDBRANCH   9   6
TORSDOF 3
ENDMDL
MODEL 2
REMARK VINA RESULT:     -16.1      1.527      3.747
REMARK  Name = 
REMARK  3 active torsions:
REMARK  status: ('A' for Active; 'I' for Inactive)
REMARK    1  A    between atoms: O_2  and  C_3
REMARK    2  A    between atoms: C_6  and  C_9
REMARK    3  A    between atoms: N_21  and  C_22
REMARK                            x       y       z     vdW  Elec       q    Type
REMARK                         _______ _______ _______ _____ _____    ______ ____
ROOT
ATOM      9  C   UNL     1      -4.388   0.796  24.865  0.00  0.00    +0.056 A 
ATOM     10  C   UNL     1      -5.188   0.985  24.940  0.00  0.00    +0.006 A 
ATOM     11  C   UNL     1      -5.417   1.765  25.078  0.00  0.00    +0.013 A 
ATOM     12  C   UNL     1      -4.846   2.357  25.140  0.00  0.00    +0.041 A 
ATOM     13  C   UNL     1      -4.769   3.262  25.280  0.00  0.00    +0.058 C 
ATOM     14  C   UNL     1      -5.156   3.837  25.394  0.00  0.00    +0.011 C 
ATOM     15  C   UNL     1      -4.368   3.647  25.319  0.00  0.00    +0.043 C 
ATOM     16  C   UNL     1      -3.382   3.619  25.258  0.00  0.00    +0.097 C 
ATOM     17  N   UNL     1      -3.273   2.802  25.122  0.00  0.00    -0.262 N 
ATOM     18  C   UNL     1      -3.816   3.251  25.224  0.00  0.00    +0.101 C 
ATOM     19  C   UNL     1      -2.878   2.090  24.986  0.00  0.00    +0.327 C 
ATOM     20  O   UNL     1      -3.307   1.390  24.899  0.00  0.00    -0.250 OA
ATOM     21  N   UNL     1      -2.055   2.078  24.937  0.00  0.00    -0.162 NA
ATOM     29  C   UNL     1      -4.438   2.701  25.172  0.00  0.00    +0.110 C 
ATOM     30  N   UNL     1      -4.047   2.169  25.065  0.00  0.00    -0.299 N 
ATOM     31  C   UNL     1      -3.818   1.388  24.927  0.00  0.00    +0.261 A 
ATOM     32  O   UNL     1      -3.118   0.965  24.820  0.00  0.00    -0.267 OA
ENDROOT
BRANCH  21  22
ATOM     22  C   UNL     1      -1.660   1.367  24.802  0.00  0.00    +0.077 A 
ATOM     23  C   UNL     1      -1.505   1.122  24.028  0.00  0.00    +0.017 A 
ATOM     24  C   UNL     1      -1.110   0.410  23.893  0.00  0.00    +0.004 A 
ATOM     25  C   UNL     1      -0.870  -0.057  24.531  0.00  0.00    +0.030 A 
ATOM     26  C   UNL     1      -1.025   0.189  25.302  0.00  0.00    +0.141 A 
ATOM     27  F   UNL     1      -0.784  -0.278  25.939  0.00  0.00    -0.204 F 
ATOM     28  C   UNL     1      -1.419   0.900  25.439  0.00  0.00    +0.046 A 
ENDBRANCH  21  22
BRANCH   9   6
ATOM      3  C   UNL     1      -3.704  -1.546  24.454  0.00  0.00    +0.139 A 
ATOM      4  C   UNL     1      -3.862  -1.046  23.818  0.00  0.00    +0.037 A 
ATOM      5  C   UNL     1      -4.090  -0.264  23.955  0.00  0.00    +0.003 A 
ATOM      6  C   UNL     1      -4.160   0.016  24.728  0.00  0.00    +0.005 A 
ATOM      7  C   UNL     1      -4.002  -0.485  25.364  0.00  0.00    +0.003 A 
ATOM      8  C   UNL     1      -3.774  -1.266  25.227  0.00  0.00    +0.037 A 
BRANCH   3   2
ATOM      1  C   UNL     1      -3.319  -2.828  24.953  0.00  0.00    +0.252 C 
ATOM      2  O   UNL     1      -3.476  -2.328  24.317  0.00  0.00    -0.471 OA
ENDBRANCH   3   2
ENDBRANCH   9   6
TORSDOF 3
ENDMDL
MODEL 3
REMARK VINA RESULT:     -15.6      0.979      2.515
REMARK  Name = 
REMARK  3 active torsions:
REMARK  status: ('A' for Active; 'I' for Inactive)
REMARK    1  A    between atoms: O_2  and  C_3
REMARK    2  A    between atoms: C_6  and  C_9
REMARK    3  A    between atoms: N_21  and  C_22
REMARK                            x       y       z     vdW  Elec       q    Type
REMARK                         _______ _______ _______ _____ _____    ______ ____
ROOT
ATOM      9  C   UNL     1      -1.658  -0.553  24.823  0.00  0.00    +0.056 A 
ATOM     10  C   UNL     1      -1.327  -1.290  24.991  0.00  0.00    +0.006 A 
ATOM     11  C   UNL     1      -1.777  -1.975  24.900  0.00  0.00    +0.013 A 
ATOM     12  C   UNL     1      -2.559  -1.924  24.641  0.00  0.00    +0.041 A 
ATOM     13  C   UNL     1      -3.283  -2.455  24.449  0.00  0.00    +0.058 C 
ATOM     14  C   UNL     1      -3.485  -3.127  24.438  0.00  0.00    +0.011 C 
ATOM     15  C   UNL     1      -3.809  -2.398  24.273  0.00  0.00    +0.043 C 
ATOM     16  C   UNL     1      -4.371  -1.623  24.027  0.00  0.00    +0.097 C 
ATOM     17  N   UNL     1      -3.822  -1.007  24.155  0.00  0.00    -0.262 N 
ATOM     18  C   UNL     1      -3.838  -1.717  24.208  0.00  0.00    +0.101 C 
ATOM     19  C   UNL     1      -3.522  -0.239  24.190  0.00  0.00    +0.327 C 
ATOM     20  O   UNL     1      -2.743  -0.111  24.433  0.00  0.00    -0.250 OA
ATOM     21  N   UNL     1      -3.999   0.401  23.982  0.00  0.00    -0.162 NA
ATOM     29  C   UNL     1      -3.058  -1.835  24.472  0.00  0.00    +0.110 C 
ATOM     30  N   UNL     1      -2.890  -1.187  24.473  0.00  0.00    -0.299 N 
ATOM     31  C   UNL     1      -2.440  -0.501  24.564  0.00  0.00    +0.261 A 
ATOM     32  O   UNL     1      -2.535   0.312  24.466  0.00  0.00    -0.267 OA
ENDROOT
BRANCH  21  22
ATOM     22  C   UNL     1      -3.699   1.169  24.017  0.00  0.00    +0.077 A 
ATOM     23  C   UNL     1      -3.308   1.489  23.365  0.00  0.00    +0.017 A 
ATOM     24  C   UNL     1      -3.008   2.257  23.400  0.00  0.00    +0.004 A 
ATOM     25  C   UNL     1      -3.099   2.704  24.088  0.00  0.00    +0.030 A 
ATOM     26  C   UNL     1      -3.489   2.383  24.740  0.00  0.00    +0.141 A 
ATOM     27  F   UNL     1      -3.579   2.831  25.428  0.00  0.00    -0.204 F 
ATOM     28  C   UNL     1      -3.789   1.616  24.705  0.00  0.00    +0.046 A 
ENDBRANCH  21  22
BRANCH   9   6
ATOM      3  C   UNL     1      -0.307   1.502  25.097  0.00  0.00    +0.139 A 
ATOM      4  C   UNL     1      -0.312   1.106  24.373  0.00  0.00    +0.037 A 
ATOM      5  C   UNL     1      -0.764   0.421  24.281  0.00  0.00    +0.003 A 
ATOM      6  C   UNL     1      -1.208   0.132  24.913  0.00  0.00    +0.005 A 
ATOM      7  C   UNL     1      -1.201   0.528  25.637  0.00  0.00    +0.003 A 
ATOM      8  C   UNL     1      -0.751   1.213  25.729  0.00  0.00    +0.037 A 
BRANCH   3   2
ATOM      1  C   UNL     1       0.087   2.628  25.882  0.00  0.00    +0.252 C 
ATOM      2  O   UNL     1       0.145   2.187  25.188  0.00  0.00    -0.471 OA
ENDBRANCH   3   2
ENDBRANCH   9   6
TORSDOF 3
ENDMDL
MODEL 4
REMARK VINA RESULT:     -15.6      1.688      4.130
REMARK  Name = 
REMARK  3 active torsions:
REMARK  status: ('A' for Active; 'I' for Inactive)
REMARK    1  A    between atoms: O_2  and  C_3
REMARK    2  A    between atoms: C_6  and  C_9
REMARK    3  A    between atoms: N_21  and  C_22
REMARK                            x       y       z     vdW  Elec       q    Type
REMARK                         _______ _______ _______ _____ _____    ______ ____
ROOT
ATOM      9  C   UNL     1      -2.642   1.944  24.866  0.00  0.00    +0.056 A 
ATOM     10  C   UNL     1      -2.484   2.751  24.932  0.00  0.00    +0.006 A 
ATOM     11  C   UNL     1      -3.100   3.284  25.064  0.00  0.00    +0.013 A 
ATOM     12  C   UNL     1      -3.875   3.009  25.130  0.00  0.00    +0.041 A 
ATOM     13  C   UNL     1      -4.731   3.314  25.267  0.00  0.00    +0.058 C 
ATOM     14  C   UNL     1      -5.094   3.905  25.374  0.00  0.00    +0.011 C 
ATOM     15  C   UNL     1      -5.247   3.107  25.308  0.00  0.00    +0.043 C 
ATOM     16  C   UNL     1      -5.629   2.197  25.259  0.00  0.00    +0.097 C 
ATOM     17  N   UNL     1      -4.929   1.759  25.127  0.00  0.00    -0.262 N 
ATOM     18  C   UNL     1      -5.115   2.441  25.222  0.00  0.00    +0.101 C 
ATOM     19  C   UNL     1      -4.444   1.104  24.999  0.00  0.00    +0.327 C 
ATOM     20  O   UNL     1      -3.630   1.205  24.909  0.00  0.00    -0.250 OA
ATOM     21  N   UNL     1      -4.773   0.349  24.959  0.00  0.00    -0.162 NA
ATOM     29  C   UNL     1      -4.356   2.780  25.164  0.00  0.00    +0.110 C 
ATOM     30  N   UNL     1      -4.033   2.202  25.064  0.00  0.00    -0.299 N 
ATOM     31  C   UNL     1      -3.417   1.670  24.932  0.00  0.00    +0.261 A 
ATOM     32  O   UNL     1      -3.320   0.856  24.835  0.00  0.00    -0.267 OA
ENDROOT
BRANCH  21  22
ATOM     22  C   UNL     1      -4.288  -0.306  24.831  0.00  0.00    +0.077 A 
ATOM     23  C   UNL     1      -4.122  -0.552  24.060  0.00  0.00    +0.017 A 
ATOM     24  C   UNL     1      -3.637  -1.207  23.933  0.00  0.00    +0.004 A 
ATOM     25  C   UNL     1      -3.318  -1.616  24.574  0.00  0.00    +0.030 A 
ATOM     26  C   UNL     1      -3.485  -1.371  25.344  0.00  0.00    +0.141 A 
ATOM     27  F   UNL     1      -3.166  -1.780  25.985  0.00  0.00    -0.204 F 
ATOM     28  C   UNL     1      -3.970  -0.716  25.473  0.00  0.00    +0.046 A 
ENDBRANCH  21  22
BRANCH   9   6
ATOM      3  C   UNL     1      -0.792   0.350  24.469  0.00  0.00    +0.139 A 
ATOM      4  C   UNL     1      -1.010   0.543  25.241  0.00  0.00    +0.037 A 
ATOM      5  C   UNL     1      -1.628   1.076  25.373  0.00  0.00    +0.003 A 
ATOM      6  C   UNL     1      -2.026   1.413  24.735  0.00  0.00    +0.005 A 
ATOM      7  C   UNL     1      -1.807   1.219  23.963  0.00  0.00    +0.003 A 
ATOM      8  C   UNL     1      -1.190   0.687  23.830  0.00  0.00    +0.037 A 
BRANCH   3   2
ATOM      1  C   UNL     1       0.155  -0.250  23.585  0.00  0.00    +0.252 C 
ATOM      2  O   UNL     1      -0.175  -0.182  24.337  0.00  0.00    -0.471 OA
ENDBRANCH   3   2
ENDBRANCH   9   6
TORSDOF 3
ENDMDL
MODEL 5
REMARK VINA RESULT:     -15.1      1.991      3.555
REMARK  Name = 
REMARK  3 active torsions:
REMARK  status: ('A' for Active; 'I' for Inactive)
REMARK    1  A    between atoms: O_2  and  C_3
REMARK    2  A    between atoms: C_6  and  C_9
REMARK    3  A    between atoms: N_21  and  C_22
REMARK                            x       y       z     vdW  Elec       q    Type
REMARK                         _______ _______ _______ _____ _____    ______ ____
ROOT
ATOM      9  C   UNL     1      -3.244   0.936  24.655  0.00  0.00    +0.056 A 
ATOM     10  C   UNL     1      -3.860   0.403  24.522  0.00  0.00    +0.006 A 
ATOM     11  C   UNL     1      -4.643   0.643  24.624  0.00  0.00    +0.013 A 
ATOM     12  C   UNL     1      -4.810   1.415  24.859  0.00  0.00    +0.041 A 
ATOM     13  C   UNL     1      -5.521   1.965  25.049  0.00  0.00    +0.058 C 
ATOM     14  C   UNL     1      -6.222   1.969  25.078  0.00  0.00    +0.011 C 
ATOM     15  C   UNL     1      -5.612   2.492  25.209  0.00  0.00    +0.043 C 
ATOM     16  C   UNL     1      -5.023   3.259  25.412  0.00  0.00    +0.097 C 
ATOM     17  N   UNL     1      -4.279   2.904  25.278  0.00  0.00    -0.262 N 
ATOM     18  C   UNL     1      -4.965   2.716  25.249  0.00  0.00    +0.101 C 
ATOM     19  C   UNL     1      -3.458   2.833  25.224  0.00  0.00    +0.327 C 
ATOM     20  O   UNL     1      -3.120   2.115  24.999  0.00  0.00    -0.250 OA
ATOM     21  N   UNL     1      -2.976   3.480  25.397  0.00  0.00    -0.162 NA
ATOM     29  C   UNL     1      -4.863   1.925  25.011  0.00  0.00    +0.110 C 
ATOM     30  N   UNL     1      -4.194   1.948  24.992  0.00  0.00    -0.299 N 
ATOM     31  C   UNL     1      -3.411   1.708  24.890  0.00  0.00    +0.261 A 
ATOM     32  O   UNL     1      -2.657   2.034  24.956  0.00  0.00    -0.267 OA
ENDROOT
BRANCH  21  22
ATOM     22  C   UNL     1      -2.156   3.409  25.343  0.00  0.00    +0.077 A 
ATOM     23  C   UNL     1      -1.772   3.582  24.633  0.00  0.00    +0.017 A 
ATOM     24  C   UNL     1      -0.952   3.511  24.580  0.00  0.00    +0.004 A 
ATOM     25  C   UNL     1      -0.515   3.267  25.237  0.00  0.00    +0.030 A 
ATOM     26  C   UNL     1      -0.899   3.094  25.946  0.00  0.00    +0.141 A 
ATOM     27  F   UNL     1      -0.463   2.849  26.602  0.00  0.00    -0.204 F 
ATOM     28  C   UNL     1      -1.719   3.165  26.000  0.00  0.00    +0.046 A 
ENDBRANCH  21  22
BRANCH   9   6
ATOM      3  C   UNL     1      -0.898   0.213  24.350  0.00  0.00    +0.139 A 
ATOM      4  C   UNL     1      -1.304   0.567  23.725  0.00  0.00    +0.037 A 
ATOM      5  C   UNL     1      -2.087   0.808  23.827  0.00  0.00    +0.003 A 
ATOM      6  C   UNL     1      -2.462   0.695  24.553  0.00  0.00    +0.005 A 
ATOM      7  C   UNL     1      -2.055   0.341  25.177  0.00  0.00    +0.003 A 
ATOM      8  C   UNL     1      -1.273   0.100  25.076  0.00  0.00    +0.037 A 
BRANCH   3   2
ATOM      1  C   UNL     1       0.246   0.043  23.511  0.00  0.00    +0.252 C 
ATOM      2  O   UNL     1      -0.114  -0.028  24.248  0.00  0.00    -0.471 OA
ENDBRANCH   3   2
ENDBRANCH   9   6
TORSDOF 3
ENDMDL
MODEL 6
REMARK VINA RESULT:     -15.0      1.761      4.639
REMARK  Name = 
REMARK  3 active torsions:
REMARK  status: ('A' for Active; 'I' for Inactive)
REMARK    1  A    between atoms: O_2  and  C_3
REMARK    2  A    between atoms: C_6  and  C_9
REMARK    3  A    between atoms: N_21  and  C_22
REMARK                            x       y       z     vdW  Elec       q    Type
REMARK                         _______ _______ _______ _____ _____    ______ ____
ROOT
ATOM      9  C   UNL     1      -1.072   1.786  25.122  0.00  0.00    +0.056 A 
ATOM     10  C   UNL     1      -0.433   2.276  25.303  0.00  0.00    +0.006 A 
ATOM     11  C   UNL     1      -0.547   3.089  25.387  0.00  0.00    +0.013 A 
ATOM     12  C   UNL     1      -1.300   3.412  25.290  0.00  0.00    +0.041 A 
ATOM     13  C   UNL     1      -1.739   4.219  25.314  0.00  0.00    +0.058 C 
ATOM     14  C   UNL     1      -1.628   4.903  25.423  0.00  0.00    +0.011 C 
ATOM     15  C   UNL     1      -2.256   4.416  25.245  0.00  0.00    +0.043 C 
ATOM     16  C   UNL     1      -3.127   4.001  25.031  0.00  0.00    +0.097 C 
ATOM     17  N   UNL     1      -2.890   3.202  24.971  0.00  0.00    -0.262 N 
ATOM     18  C   UNL     1      -2.588   3.832  25.108  0.00  0.00    +0.101 C 
ATOM     19  C   UNL     1      -2.953   2.387  24.854  0.00  0.00    +0.327 C 
ATOM     20  O   UNL     1      -2.283   1.909  24.915  0.00  0.00    -0.250 OA
ATOM     21  N   UNL     1      -3.685   2.052  24.676  0.00  0.00    -0.162 NA
ATOM     29  C   UNL     1      -1.806   3.569  25.218  0.00  0.00    +0.110 C 
ATOM     30  N   UNL     1      -1.939   2.922  25.109  0.00  0.00    -0.299 N 
ATOM     31  C   UNL     1      -1.825   2.109  25.025  0.00  0.00    +0.261 A 
ATOM     32  O   UNL     1      -2.278   1.441  24.855  0.00  0.00    -0.267 OA
ENDROOT
BRANCH  21  22
ATOM     22  C   UNL     1      -3.747   1.237  24.559  0.00  0.00    +0.077 A 
ATOM     23  C   UNL     1      -3.618   0.916  23.809  0.00  0.00    +0.017 A 
ATOM     24  C   UNL     1      -3.681   0.102  23.693  0.00  0.00    +0.004 A 
ATOM     25  C   UNL     1      -3.872  -0.392  24.326  0.00  0.00    +0.030 A 
ATOM     26  C   UNL     1      -4.001  -0.071  25.074  0.00  0.00    +0.141 A 
ATOM     27  F   UNL     1      -4.193  -0.565  25.707  0.00  0.00    -0.204 F 
ATOM     28  C   UNL     1      -3.939   0.743  25.192  0.00  0.00    +0.046 A 
ENDBRANCH  21  22
BRANCH   9   6
ATOM      3  C   UNL     1      -0.726  -0.651  24.868  0.00  0.00    +0.139 A 
ATOM      4  C   UNL     1      -0.922  -0.337  25.606  0.00  0.00    +0.037 A 
ATOM      5  C   UNL     1      -1.037   0.476  25.690  0.00  0.00    +0.003 A 
ATOM      6  C   UNL     1      -0.957   0.974  25.038  0.00  0.00    +0.005 A 
ATOM      7  C   UNL     1      -0.761   0.660  24.300  0.00  0.00    +0.003 A 
ATOM      8  C   UNL     1      -0.646  -0.153  24.215  0.00  0.00    +0.037 A 
BRANCH   3   2
ATOM      1  C   UNL     1      -0.905  -1.983  25.352  0.00  0.00    +0.252 C 
ATOM      2  O   UNL     1      -0.611  -1.464  24.783  0.00  0.00    -0.471 OA
ENDBRANCH   3   2
ENDBRANCH   9   6
TORSDOF 3
ENDMDL
