MODEL 1
REMARK VINA RESULT:     -11.4      0.000      0.000
REMARK  Name = 
REMARK  3 active torsions:
REMARK  status: ('A' for Active; 'I' for Inactive)
REMARK    1  A    between atoms: C_2  and  C_19
REMARK    2  A    between atoms: C_6  and  C_8
REMARK    3  A    between atoms: C_11  and  C_13
REMARK                            x       y       z     vdW  Elec       q    Type
REMARK                         _______ _______ _______ _____ _____    ______ ____
ROOT
ATOM      1  O   UNL     1      -4.149  -0.367  25.682  0.00  0.00    -0.270 OA
ATOM      2  C   UNL     1      -3.568  -0.669  25.180  0.00  0.00    +0.249 C 
ATOM      3  N   UNL     1      -2.881  -0.236  25.037  0.00  0.00    -0.276 N 
ATOM      4  C   UNL     1      -2.256  -0.465  24.550  0.00  0.00    +0.094 C 
ATOM      5  C   UNL     1      -1.686   0.133  24.568  0.00  0.00    +0.033 C 
ATOM      6  C   UNL     1      -1.960   0.731  25.066  0.00  0.00    +0.100 C 
ATOM      7  C   UNL     1      -2.699   0.503  25.356  0.00  0.00    +0.103 C 
ENDROOT
BRANCH   2  19
ATOM     19  C   UNL     1      -3.675  -1.403  24.820  0.00  0.00    +0.057 A 
ATOM     20  C   UNL     1      -4.088  -1.458  24.108  0.00  0.00    +0.025 A 
ATOM     21  C   UNL     1      -4.195  -2.193  23.748  0.00  0.00    +0.099 A 
ATOM     22  N   UNL     1      -3.888  -2.873  24.100  0.00  0.00    -0.242 NA
ATOM     23  C   UNL     1      -3.474  -2.818  24.812  0.00  0.00    +0.099 A 
ATOM     24  C   UNL     1      -3.368  -2.084  25.171  0.00  0.00    +0.025 A 
ENDBRANCH   2  19
BRANCH   6   8
ATOM      8  C   UNL     1      -1.566   1.433  25.244  0.00  0.00    +0.228 A 
ATOM      9  N   UNL     1      -0.852   1.498  25.653  0.00  0.00    -0.111 NA
ATOM     10  N   UNL     1      -0.660   2.298  25.706  0.00  0.00    -0.107 NA
ATOM     11  C   UNL     1      -1.254   2.729  25.328  0.00  0.00    +0.251 A 
ATOM     12  O   UNL     1      -1.814   2.193  25.042  0.00  0.00    -0.419 OA
BRANCH  11  13
ATOM     13  C   UNL     1      -1.284   3.549  25.250  0.00  0.00    +0.074 A 
ATOM     14  C   UNL     1      -0.659   3.953  24.894  0.00  0.00    +0.104 A 
ATOM     15  N   UNL     1      -0.688   4.773  24.815  0.00  0.00    -0.242 NA
ATOM     16  C   UNL     1      -1.344   5.191  25.094  0.00  0.00    +0.099 A 
ATOM     17  C   UNL     1      -1.969   4.787  25.450  0.00  0.00    +0.021 A 
ATOM     18  C   UNL     1      -1.939   3.966  25.528  0.00  0.00    +0.008 A 
ENDBRANCH  11  13
ENDBRANCH   6   8
TORSDOF 3
ENDMDL
MODEL 2
REMARK VINA RESULT:     -11.4      1.133      5.559
REMARK  Name = 
REMARK  3 active torsions:
REMARK  status: ('A' for Active; 'I' for Inactive)
REMARK    1  A    between atoms: C_2  and  C_19
REMARK    2  A    between atoms: C_6  and  C_8
REMARK    3  A    between atoms: C_11  and  C_13
REMARK                            x       y       z     vdW  Elec       q    Type
REMARK                         _______ _______ _______ _____ _____    ______ ____
ROOT
ATOM      1  O   UNL     1      -1.253   2.656  26.106  0.00  0.00    -0.270 OA
ATOM      2  C   UNL     1      -1.661   3.035  25.497  0.00  0.00    +0.249 C 
ATOM      3  N   UNL     1      -2.278   2.647  25.111  0.00  0.00    -0.276 N 
ATOM      4  C   UNL     1      -2.734   2.953  24.496  0.00  0.00    +0.094 C 
ATOM      5  C   UNL     1      -3.285   2.379  24.276  0.00  0.00    +0.033 C 
ATOM      6  C   UNL     1      -3.169   1.718  24.756  0.00  0.00    +0.100 C 
ATOM      7  C   UNL     1      -2.547   1.883  25.272  0.00  0.00    +0.103 C 
ENDROOT
BRANCH   2  19
ATOM     19  C   UNL     1      -1.453   3.801  25.275  0.00  0.00    +0.057 A 
ATOM     20  C   UNL     1      -0.785   3.928  24.807  0.00  0.00    +0.025 A 
ATOM     21  C   UNL     1      -0.577   4.695  24.584  0.00  0.00    +0.099 A 
ATOM     22  N   UNL     1      -1.036   5.334  24.830  0.00  0.00    -0.242 NA
ATOM     23  C   UNL     1      -1.704   5.208  25.298  0.00  0.00    +0.099 A 
ATOM     24  C   UNL     1      -1.912   4.442  25.520  0.00  0.00    +0.025 A 
ENDBRANCH   2  19
BRANCH   6   8
ATOM      8  C   UNL     1      -3.600   1.016  24.726  0.00  0.00    +0.228 A 
ATOM      9  N   UNL     1      -4.423   0.949  24.753  0.00  0.00    -0.111 NA
ATOM     10  N   UNL     1      -4.616   0.149  24.707  0.00  0.00    -0.107 NA
ATOM     11  C   UNL     1      -3.913  -0.280  24.651  0.00  0.00    +0.251 A 
ATOM     12  O   UNL     1      -3.285   0.256  24.662  0.00  0.00    -0.419 OA
BRANCH  11  13
ATOM     13  C   UNL     1      -3.849  -1.100  24.593  0.00  0.00    +0.074 A 
ATOM     14  C   UNL     1      -3.511  -1.533  25.210  0.00  0.00    +0.104 A 
ATOM     15  N   UNL     1      -3.447  -2.353  25.152  0.00  0.00    -0.242 NA
ATOM     16  C   UNL     1      -3.722  -2.742  24.477  0.00  0.00    +0.099 A 
ATOM     17  C   UNL     1      -4.059  -2.310  23.862  0.00  0.00    +0.021 A 
ATOM     18  C   UNL     1      -4.123  -1.489  23.919  0.00  0.00    +0.008 A 
ENDBRANCH  11  13
ENDBRANCH   6   8
TORSDOF 3
ENDMDL
MODEL 3
REMARK VINA RESULT:      -8.9      2.924      4.135
REMARK  Name = 
REMARK  3 active torsions:
REMARK  status: ('A' for Active; 'I' for Inactive)
REMARK    1  A    between atoms: C_2  and  C_19
REMARK    2  A    between atoms: C_6  and  C_8
REMARK    3  A    between atoms: C_11  and  C_13
REMARK                            x       y       z     vdW  Elec       q    Type
REMARK                         _______ _______ _______ _____ _____    ______ ____
ROOT
ATOM      1  O   UNL     1      -0.576   0.696  25.214  0.00  0.00    -0.270 OA
ATOM      2  C   UNL     1      -0.576   0.846  24.402  0.00  0.00    +0.249 C 
ATOM      3  N   UNL     1      -1.214   1.237  24.055  0.00  0.00    -0.276 N 
ATOM      4  C   UNL     1      -1.292   1.424  23.256  0.00  0.00    +0.094 C 
ATOM      5  C   UNL     1      -2.013   1.813  23.154  0.00  0.00    +0.033 C 
ATOM      6  C   UNL     1      -2.381   1.865  23.890  0.00  0.00    +0.100 C 
ATOM      7  C   UNL     1      -1.888   1.509  24.448  0.00  0.00    +0.103 C 
ENDROOT
BRANCH   2  19
ATOM     19  C   UNL     1       0.061   0.605  23.938  0.00  0.00    +0.057 A 
ATOM     20  C   UNL     1       0.057  -0.141  23.587  0.00  0.00    +0.025 A 
ATOM     21  C   UNL     1       0.696  -0.382  23.122  0.00  0.00    +0.099 A 
ATOM     22  N   UNL     1       1.337   0.124  23.009  0.00  0.00    -0.242 NA
ATOM     23  C   UNL     1       1.341   0.870  23.360  0.00  0.00    +0.099 A 
ATOM     24  C   UNL     1       0.704   1.111  23.824  0.00  0.00    +0.025 A 
ENDBRANCH   2  19
BRANCH   6   8
ATOM      8  C   UNL     1      -3.114   2.212  24.043  0.00  0.00    +0.228 A 
ATOM      9  N   UNL     1      -3.438   2.857  23.642  0.00  0.00    -0.111 NA
ATOM     10  N   UNL     1      -4.175   3.019  23.974  0.00  0.00    -0.107 NA
ATOM     11  C   UNL     1      -4.308   2.474  24.579  0.00  0.00    +0.251 A 
ATOM     12  O   UNL     1      -3.651   1.975  24.622  0.00  0.00    -0.419 OA
BRANCH  11  13
ATOM     13  C   UNL     1      -4.978   2.435  25.058  0.00  0.00    +0.074 A 
ATOM     14  C   UNL     1      -5.056   2.944  25.702  0.00  0.00    +0.104 A 
ATOM     15  N   UNL     1      -5.726   2.905  26.181  0.00  0.00    -0.242 NA
ATOM     16  C   UNL     1      -6.320   2.355  26.015  0.00  0.00    +0.099 A 
ATOM     17  C   UNL     1      -6.242   1.846  25.372  0.00  0.00    +0.021 A 
ATOM     18  C   UNL     1      -5.571   1.885  24.893  0.00  0.00    +0.008 A 
ENDBRANCH  11  13
ENDBRANCH   6   8
TORSDOF 3
ENDMDL
MODEL 4
REMARK VINA RESULT:      -8.1      2.580      3.975
REMARK  Name = 
REMARK  3 active torsions:
REMARK  status: ('A' for Active; 'I' for Inactive)
REMARK    1  A    between atoms: C_2  and  C_19
REMARK    2  A    between atoms: C_6  and  C_8
REMARK    3  A    between atoms: C_11  and  C_13
REMARK                            x       y       z     vdW  Elec       q    Type
REMARK                         _______ _______ _______ _____ _____    ______ ____
ROOT
ATOM      1  O   UNL     1      -4.419   0.651  24.158  0.00  0.00    -0.270 OA
ATOM      2  C   UNL     1      -4.073   1.282  24.563  0.00  0.00    +0.249 C 
ATOM      3  N   UNL     1      -3.255   1.301  24.674  0.00  0.00    -0.276 N 
ATOM      4  C   UNL     1      -2.833   1.892  25.065  0.00  0.00    +0.094 C 
ATOM      5  C   UNL     1      -2.033   1.689  25.046  0.00  0.00    +0.033 C 
ATOM      6  C   UNL     1      -1.961   0.972  24.643  0.00  0.00    +0.100 C 
ATOM      7  C   UNL     1      -2.717   0.732  24.413  0.00  0.00    +0.103 C 
ENDROOT
BRANCH   2  19
ATOM     19  C   UNL     1      -4.543   1.893  24.856  0.00  0.00    +0.057 A 
ATOM     20  C   UNL     1      -4.536   2.631  24.488  0.00  0.00    +0.025 A 
ATOM     21  C   UNL     1      -5.007   3.243  24.781  0.00  0.00    +0.099 A 
ATOM     22  N   UNL     1      -5.483   3.115  25.442  0.00  0.00    -0.242 NA
ATOM     23  C   UNL     1      -5.490   2.377  25.810  0.00  0.00    +0.099 A 
ATOM     24  C   UNL     1      -5.020   1.766  25.517  0.00  0.00    +0.025 A 
ENDBRANCH   2  19
BRANCH   6   8
ATOM      8  C   UNL     1      -1.259   0.566  24.496  0.00  0.00    +0.228 A 
ATOM      9  N   UNL     1      -0.986  -0.096  24.907  0.00  0.00    -0.111 NA
ATOM     10  N   UNL     1      -0.264  -0.320  24.578  0.00  0.00    -0.107 NA
ATOM     11  C   UNL     1      -0.090   0.203  23.964  0.00  0.00    +0.251 A 
ATOM     12  O   UNL     1      -0.705   0.751  23.913  0.00  0.00    -0.419 OA
BRANCH  11  13
ATOM     13  C   UNL     1       0.581   0.181  23.484  0.00  0.00    +0.074 A 
ATOM     14  C   UNL     1       1.207   0.700  23.626  0.00  0.00    +0.104 A 
ATOM     15  N   UNL     1       1.877   0.678  23.147  0.00  0.00    -0.242 NA
ATOM     16  C   UNL     1       1.923   0.137  22.524  0.00  0.00    +0.099 A 
ATOM     17  C   UNL     1       1.297  -0.381  22.383  0.00  0.00    +0.021 A 
ATOM     18  C   UNL     1       0.626  -0.359  22.863  0.00  0.00    +0.008 A 
ENDBRANCH  11  13
ENDBRANCH   6   8
TORSDOF 3
ENDMDL
MODEL 5
REMARK VINA RESULT:      -8.0     17.503     19.483
REMARK  Name = 
REMARK  3 active torsions:
REMARK  status: ('A' for Active; 'I' for Inactive)
REMARK    1  A    between atoms: C_2  and  C_19
REMARK    2  A    between atoms: C_6  and  C_8
REMARK    3  A    between atoms: C_11  and  C_13
REMARK                            x       y       z     vdW  Elec       q    Type
REMARK                         _______ _______ _______ _____ _____    ______ ____
ROOT
ATOM      1  O   UNL     1      15.797   6.140  18.788  0.00  0.00    -0.270 OA
ATOM      2  C   UNL     1      15.734   6.797  19.283  0.00  0.00    +0.249 C 
ATOM      3  N   UNL     1      15.246   7.427  19.070  0.00  0.00    -0.276 N 
ATOM      4  C   UNL     1      15.126   8.117  19.506  0.00  0.00    +0.094 C 
ATOM      5  C   UNL     1      14.598   8.595  19.089  0.00  0.00    +0.033 C 
ATOM      6  C   UNL     1      14.391   8.200  18.395  0.00  0.00    +0.100 C 
ATOM      7  C   UNL     1      14.791   7.478  18.383  0.00  0.00    +0.103 C 
ENDROOT
BRANCH   2  19
ATOM     19  C   UNL     1      16.157   6.824  19.990  0.00  0.00    +0.057 A 
ATOM     20  C   UNL     1      16.882   7.216  20.022  0.00  0.00    +0.025 A 
ATOM     21  C   UNL     1      17.306   7.243  20.729  0.00  0.00    +0.099 A 
ATOM     22  N   UNL     1      17.004   6.879  21.405  0.00  0.00    -0.242 NA
ATOM     23  C   UNL     1      16.279   6.487  21.373  0.00  0.00    +0.099 A 
ATOM     24  C   UNL     1      15.856   6.460  20.666  0.00  0.00    +0.025 A 
ENDBRANCH   2  19
BRANCH   6   8
ATOM      8  C   UNL     1      13.874   8.477  17.815  0.00  0.00    +0.228 A 
ATOM      9  N   UNL     1      14.079   8.946  17.167  0.00  0.00    -0.111 NA
ATOM     10  N   UNL     1      13.394   9.093  16.732  0.00  0.00    -0.107 NA
ATOM     11  C   UNL     1      12.765   8.715  17.111  0.00  0.00    +0.251 A 
ATOM     12  O   UNL     1      13.062   8.334  17.780  0.00  0.00    -0.419 OA
BRANCH  11  13
ATOM     13  C   UNL     1      11.979   8.718  16.863  0.00  0.00    +0.074 A 
ATOM     14  C   UNL     1      11.400   8.348  17.321  0.00  0.00    +0.104 A 
ATOM     15  N   UNL     1      10.614   8.351  17.074  0.00  0.00    -0.242 NA
ATOM     16  C   UNL     1      10.405   8.724  16.367  0.00  0.00    +0.099 A 
ATOM     17  C   UNL     1      10.982   9.094  15.910  0.00  0.00    +0.021 A 
ATOM     18  C   UNL     1      11.770   9.091  16.158  0.00  0.00    +0.008 A 
ENDBRANCH  11  13
ENDBRANCH   6   8
TORSDOF 3
ENDMDL
