MODEL 1
REMARK VINA RESULT:     -11.4      0.000      0.000
REMARK  Name = 
REMARK  7 active torsions:
REMARK  status: ('A' for Active; 'I' for Inactive)
REMARK    1  A    between atoms: C_8  and  C_10
REMARK    2  A    between atoms: C_10  and  C_11
REMARK    3  A    between atoms: C_16  and  C_17
REMARK    4  A    between atoms: C_17  and  C_18
REMARK    5  A    between atoms: C_21  and  C_22
REMARK    6  A    between atoms: C_22  and  S_23
REMARK    7  A    between atoms: S_23  and  C_24
REMARK                            x       y       z     vdW  Elec       q    Type
REMARK                         _______ _______ _______ _____ _____    ______ ____
ROOT
ATOM     11  C   UNL     1      -2.844   3.382  25.169  0.00  0.00    +0.012 C 
ATOM     12  C   UNL     1      -2.618   3.858  25.804  0.00  0.00    +0.019 C 
ATOM     13  C   UNL     1      -3.187   4.154  26.321  0.00  0.00    +0.089 C 
ATOM     14  N   UNL     1      -3.985   3.974  26.205  0.00  0.00    -0.218 NA
ATOM     15  C   UNL     1      -4.211   3.499  25.570  0.00  0.00    +0.089 C 
ATOM     16  C   UNL     1      -3.642   3.202  25.052  0.00  0.00    +0.024 C 
ENDROOT
BRANCH  11  10
ATOM     10  C   UNL     1      -2.275   3.086  24.651  0.00  0.00    +0.085 C 
BRANCH  10   8
ATOM      1  C   UNL     1       0.974   1.287  23.944  0.00  0.00    +0.090 C 
ATOM      2  N   UNL     1       0.357   1.801  24.135  0.00  0.00    -0.269 NA
ATOM      3  C   UNL     1      -0.425   1.546  24.078  0.00  0.00    +0.094 C 
ATOM      4  C   UNL     1      -1.042   2.059  24.269  0.00  0.00    +0.111 C 
ATOM      5  N   UNL     1      -0.876   2.828  24.517  0.00  0.00    -0.277 N 
ATOM      6  C   UNL     1      -0.094   3.083  24.575  0.00  0.00    +0.111 C 
ATOM      7  C   UNL     1       0.523   2.569  24.384  0.00  0.00    +0.094 C 
ATOM      8  C   UNL     1      -1.493   3.341  24.708  0.00  0.00    +0.226 C 
ATOM      9  O   UNL     1      -1.326   4.110  24.957  0.00  0.00    -0.275 OA
ENDBRANCH  10   8
ENDBRANCH  11  10
BRANCH  16  17
ATOM     17  C   UNL     1      -3.868   2.727  24.418  0.00  0.00    +0.051 C 
BRANCH  17  18
ATOM     18  C   UNL     1      -4.299   2.036  24.553  0.00  0.00    +0.100 A 
ATOM     19  N   UNL     1      -5.100   1.993  24.744  0.00  0.00    -0.082 NA
ATOM     20  O   UNL     1      -5.299   1.198  24.831  0.00  0.00    -0.357 OA
ATOM     21  C   UNL     1      -4.621   0.749  24.693  0.00  0.00    +0.165 A 
ATOM     30  C   UNL     1      -4.003   1.266  24.522  0.00  0.00    +0.054 A 
BRANCH  21  22
ATOM     22  C   UNL     1      -4.571  -0.075  24.722  0.00  0.00    +0.129 C 
BRANCH  22  23
ATOM     23  S   UNL     1      -3.902  -0.458  24.428  0.00  0.00    -0.105 S 
BRANCH  23  24
ATOM     24  C   UNL     1      -3.857  -1.282  24.447  0.00  0.00    +0.026 A 
ATOM     25  C   UNL     1      -4.220  -1.727  23.854  0.00  0.00    +0.006 A 
ATOM     26  C   UNL     1      -4.175  -2.550  23.872  0.00  0.00    +0.001 A 
ATOM     27  C   UNL     1      -3.769  -2.929  24.483  0.00  0.00    +0.000 A 
ATOM     28  C   UNL     1      -3.407  -2.483  25.075  0.00  0.00    +0.001 A 
ATOM     29  C   UNL     1      -3.452  -1.660  25.057  0.00  0.00    +0.006 A 
ENDBRANCH  23  24
ENDBRANCH  22  23
ENDBRANCH  21  22
ENDBRANCH  17  18
ENDBRANCH  16  17
TORSDOF 7
ENDMDL
MODEL 2
REMARK VINA RESULT:     -11.1      1.426      3.396
REMARK  Name = 
REMARK  7 active torsions:
REMARK  status: ('A' for Active; 'I' for Inactive)
REMARK    1  A    between atoms: C_8  and  C_10
REMARK    2  A    between atoms: C_10  and  C_11
REMARK    3  A    between atoms: C_16  and  C_17
REMARK    4  A    between atoms: C_17  and  C_18
REMARK    5  A    between atoms: C_21  and  C_22
REMARK    6  A    between atoms: C_22  and  S_23
REMARK    7  A    between atoms: S_23  and  C_24
REMARK                            x       y       z     vdW  Elec       q    Type
REMARK                         _______ _______ _______ _____ _____    ______ ____
ROOT
ATOM     11  C   UNL     1      -1.105   2.648  25.331  0.00  0.00    +0.012 C 
ATOM     12  C   UNL     1      -0.847   3.062  25.996  0.00  0.00    +0.019 C 
ATOM     13  C   UNL     1      -0.092   2.927  26.299  0.00  0.00    +0.089 C 
ATOM     14  N   UNL     1       0.406   2.376  25.937  0.00  0.00    -0.218 NA
ATOM     15  C   UNL     1       0.148   1.962  25.272  0.00  0.00    +0.089 C 
ATOM     16  C   UNL     1      -0.608   2.097  24.968  0.00  0.00    +0.024 C 
ENDROOT
BRANCH  11  10
ATOM     10  C   UNL     1      -1.860   2.783  25.028  0.00  0.00    +0.085 C 
BRANCH  10   8
ATOM      1  C   UNL     1      -5.592   3.164  25.495  0.00  0.00    +0.090 C 
ATOM      2  N   UNL     1      -4.770   3.228  25.447  0.00  0.00    -0.269 NA
ATOM      3  C   UNL     1      -4.323   2.593  25.171  0.00  0.00    +0.094 C 
ATOM      4  C   UNL     1      -3.502   2.656  25.123  0.00  0.00    +0.111 C 
ATOM      5  N   UNL     1      -3.129   3.356  25.352  0.00  0.00    -0.277 N 
ATOM      6  C   UNL     1      -3.576   3.990  25.629  0.00  0.00    +0.111 C 
ATOM      7  C   UNL     1      -4.397   3.927  25.677  0.00  0.00    +0.094 C 
ATOM      8  C   UNL     1      -2.308   3.419  25.305  0.00  0.00    +0.226 C 
ATOM      9  O   UNL     1      -1.935   4.118  25.534  0.00  0.00    -0.275 OA
ENDBRANCH  10   8
ENDBRANCH  11  10
BRANCH  16  17
ATOM     17  C   UNL     1      -0.866   1.684  24.304  0.00  0.00    +0.051 C 
BRANCH  17  18
ATOM     18  C   UNL     1      -0.832   0.859  24.293  0.00  0.00    +0.100 A 
ATOM     19  N   UNL     1      -0.150   0.403  24.212  0.00  0.00    -0.082 NA
ATOM     20  O   UNL     1      -0.371  -0.391  24.230  0.00  0.00    -0.357 OA
ATOM     21  C   UNL     1      -1.190  -0.426  24.321  0.00  0.00    +0.165 A 
ATOM     30  C   UNL     1      -1.475   0.347  24.360  0.00  0.00    +0.054 A 
BRANCH  21  22
ATOM     22  C   UNL     1      -1.644  -1.114  24.366  0.00  0.00    +0.129 C 
BRANCH  22  23
ATOM     23  S   UNL     1      -2.391  -1.093  24.716  0.00  0.00    -0.105 S 
BRANCH  23  24
ATOM     24  C   UNL     1      -2.946  -1.676  24.537  0.00  0.00    +0.026 A 
ATOM     25  C   UNL     1      -2.807  -2.459  24.758  0.00  0.00    +0.006 A 
ATOM     26  C   UNL     1      -3.362  -3.042  24.579  0.00  0.00    +0.001 A 
ATOM     27  C   UNL     1      -4.056  -2.844  24.179  0.00  0.00    +0.000 A 
ATOM     28  C   UNL     1      -4.195  -2.061  23.958  0.00  0.00    +0.001 A 
ATOM     29  C   UNL     1      -3.640  -1.478  24.137  0.00  0.00    +0.006 A 
ENDBRANCH  23  24
ENDBRANCH  22  23
ENDBRANCH  21  22
ENDBRANCH  17  18
ENDBRANCH  16  17
TORSDOF 7
ENDMDL
MODEL 3
REMARK VINA RESULT:     -10.4      1.610      2.420
REMARK  Name = 
REMARK  7 active torsions:
REMARK  status: ('A' for Active; 'I' for Inactive)
REMARK    1  A    between atoms: C_8  and  C_10
REMARK    2  A    between atoms: C_10  and  C_11
REMARK    3  A    between atoms: C_16  and  C_17
REMARK    4  A    between atoms: C_17  and  C_18
REMARK    5  A    between atoms: C_21  and  C_22
REMARK    6  A    between atoms: C_22  and  S_23
REMARK    7  A    between atoms: S_23  and  C_24
REMARK                            x       y       z     vdW  Elec       q    Type
REMARK                         _______ _______ _______ _____ _____    ______ ____
ROOT
ATOM     11  C   UNL     1      -4.578   2.707  25.207  0.00  0.00    +0.012 C 
ATOM     12  C   UNL     1      -4.988   3.100  25.805  0.00  0.00    +0.019 C 
ATOM     13  C   UNL     1      -5.704   2.799  26.082  0.00  0.00    +0.089 C 
ATOM     14  N   UNL     1      -6.011   2.103  25.760  0.00  0.00    -0.218 NA
ATOM     15  C   UNL     1      -5.602   1.710  25.163  0.00  0.00    +0.089 C 
ATOM     16  C   UNL     1      -4.885   2.011  24.885  0.00  0.00    +0.024 C 
ENDROOT
BRANCH  11  10
ATOM     10  C   UNL     1      -3.863   3.008  24.930  0.00  0.00    +0.085 C 
BRANCH  10   8
ATOM      1  C   UNL     1      -0.392   4.508  24.878  0.00  0.00    +0.090 C 
ATOM      2  N   UNL     1      -1.190   4.313  24.962  0.00  0.00    -0.269 NA
ATOM      3  C   UNL     1      -1.471   3.591  24.679  0.00  0.00    +0.094 C 
ATOM      4  C   UNL     1      -2.268   3.397  24.762  0.00  0.00    +0.111 C 
ATOM      5  N   UNL     1      -2.785   3.925  25.129  0.00  0.00    -0.277 N 
ATOM      6  C   UNL     1      -2.505   4.647  25.412  0.00  0.00    +0.111 C 
ATOM      7  C   UNL     1      -1.707   4.842  25.328  0.00  0.00    +0.094 C 
ATOM      8  C   UNL     1      -3.582   3.731  25.213  0.00  0.00    +0.226 C 
ATOM      9  O   UNL     1      -4.099   4.259  25.579  0.00  0.00    -0.275 OA
ENDBRANCH  10   8
ENDBRANCH  11  10
BRANCH  16  17
ATOM     17  C   UNL     1      -4.476   1.618  24.287  0.00  0.00    +0.051 C 
BRANCH  17  18
ATOM     18  C   UNL     1      -4.332   0.808  24.350  0.00  0.00    +0.100 A 
ATOM     19  N   UNL     1      -4.900   0.222  24.470  0.00  0.00    -0.082 NA
ATOM     20  O   UNL     1      -4.513  -0.506  24.498  0.00  0.00    -0.357 OA
ATOM     21  C   UNL     1      -3.706  -0.370  24.396  0.00  0.00    +0.165 A 
ATOM     30  C   UNL     1      -3.593   0.442  24.304  0.00  0.00    +0.054 A 
BRANCH  21  22
ATOM     22  C   UNL     1      -3.115  -0.946  24.387  0.00  0.00    +0.129 C 
BRANCH  22  23
ATOM     23  S   UNL     1      -2.723  -1.146  25.085  0.00  0.00    -0.105 S 
BRANCH  23  24
ATOM     24  C   UNL     1      -1.979  -1.501  25.053  0.00  0.00    +0.026 A 
ATOM     25  C   UNL     1      -1.325  -1.120  25.382  0.00  0.00    +0.006 A 
ATOM     26  C   UNL     1      -0.582  -1.475  25.350  0.00  0.00    +0.001 A 
ATOM     27  C   UNL     1      -0.491  -2.212  24.989  0.00  0.00    +0.000 A 
ATOM     28  C   UNL     1      -1.146  -2.593  24.661  0.00  0.00    +0.001 A 
ATOM     29  C   UNL     1      -1.889  -2.237  24.693  0.00  0.00    +0.006 A 
ENDBRANCH  23  24
ENDBRANCH  22  23
ENDBRANCH  21  22
ENDBRANCH  17  18
ENDBRANCH  16  17
TORSDOF 7
ENDMDL
MODEL 4
REMARK VINA RESULT:     -10.3      1.967      4.703
REMARK  Name = 
REMARK  7 active torsions:
REMARK  status: ('A' for Active; 'I' for Inactive)
REMARK    1  A    between atoms: C_8  and  C_10
REMARK    2  A    between atoms: C_10  and  C_11
REMARK    3  A    between atoms: C_16  and  C_17
REMARK    4  A    between atoms: C_17  and  C_18
REMARK    5  A    between atoms: C_21  and  C_22
REMARK    6  A    between atoms: C_22  and  S_23
REMARK    7  A    between atoms: S_23  and  C_24
REMARK                            x       y       z     vdW  Elec       q    Type
REMARK                         _______ _______ _______ _____ _____    ______ ____
ROOT
ATOM     11  C   UNL     1      -0.382   0.562  24.501  0.00  0.00    +0.012 C 
ATOM     12  C   UNL     1       0.032   0.337  23.824  0.00  0.00    +0.019 C 
ATOM     13  C   UNL     1       0.566   0.858  23.474  0.00  0.00    +0.089 C 
ATOM     14  N   UNL     1       0.687   1.607  23.801  0.00  0.00    -0.218 NA
ATOM     15  C   UNL     1       0.273   1.833  24.477  0.00  0.00    +0.089 C 
ATOM     16  C   UNL     1      -0.262   1.311  24.828  0.00  0.00    +0.024 C 
ENDROOT
BRANCH  11  10
ATOM     10  C   UNL     1      -0.916   0.041  24.851  0.00  0.00    +0.085 C 
BRANCH  10   8
ATOM      1  C   UNL     1      -3.510  -2.704  24.665  0.00  0.00    +0.090 C 
ATOM      2  N   UNL     1      -2.841  -2.220  24.682  0.00  0.00    -0.269 NA
ATOM      3  C   UNL     1      -2.922  -1.408  24.798  0.00  0.00    +0.094 C 
ATOM      4  C   UNL     1      -2.254  -0.925  24.816  0.00  0.00    +0.111 C 
ATOM      5  N   UNL     1      -1.503  -1.255  24.718  0.00  0.00    -0.277 N 
ATOM      6  C   UNL     1      -1.422  -2.067  24.602  0.00  0.00    +0.111 C 
ATOM      7  C   UNL     1      -2.091  -2.550  24.585  0.00  0.00    +0.094 C 
ATOM      8  C   UNL     1      -0.835  -0.772  24.735  0.00  0.00    +0.226 C 
ATOM      9  O   UNL     1      -0.086  -1.102  24.638  0.00  0.00    -0.275 OA
ENDBRANCH  10   8
ENDBRANCH  11  10
BRANCH  16  17
ATOM     17  C   UNL     1      -0.676   1.537  25.504  0.00  0.00    +0.051 C 
BRANCH  17  18
ATOM     18  C   UNL     1      -1.113   2.237  25.505  0.00  0.00    +0.100 A 
ATOM     19  N   UNL     1      -0.805   3.001  25.513  0.00  0.00    -0.082 NA
ATOM     20  O   UNL     1      -1.437   3.531  25.511  0.00  0.00    -0.357 OA
ATOM     21  C   UNL     1      -2.137   3.093  25.503  0.00  0.00    +0.165 A 
ATOM     30  C   UNL     1      -1.937   2.293  25.499  0.00  0.00    +0.054 A 
BRANCH  21  22
ATOM     22  C   UNL     1      -2.902   3.402  25.499  0.00  0.00    +0.129 C 
BRANCH  22  23
ATOM     23  S   UNL     1      -3.443   3.159  24.925  0.00  0.00    -0.105 S 
BRANCH  23  24
ATOM     24  C   UNL     1      -4.248   3.134  25.101  0.00  0.00    +0.026 A 
ATOM     25  C   UNL     1      -4.690   2.462  24.915  0.00  0.00    +0.006 A 
ATOM     26  C   UNL     1      -5.495   2.437  25.091  0.00  0.00    +0.001 A 
ATOM     27  C   UNL     1      -5.859   3.084  25.453  0.00  0.00    +0.000 A 
ATOM     28  C   UNL     1      -5.417   3.755  25.639  0.00  0.00    +0.001 A 
ATOM     29  C   UNL     1      -4.611   3.780  25.463  0.00  0.00    +0.006 A 
ENDBRANCH  23  24
ENDBRANCH  22  23
ENDBRANCH  21  22
ENDBRANCH  17  18
ENDBRANCH  16  17
TORSDOF 7
ENDMDL
MODEL 5
REMARK VINA RESULT:     -10.2      2.139      5.198
REMARK  Name = 
REMARK  7 active torsions:
REMARK  status: ('A' for Active; 'I' for Inactive)
REMARK    1  A    between atoms: C_8  and  C_10
REMARK    2  A    between atoms: C_10  and  C_11
REMARK    3  A    between atoms: C_16  and  C_17
REMARK    4  A    between atoms: C_17  and  C_18
REMARK    5  A    between atoms: C_21  and  C_22
REMARK    6  A    between atoms: C_22  and  S_23
REMARK    7  A    between atoms: S_23  and  C_24
REMARK                            x       y       z     vdW  Elec       q    Type
REMARK                         _______ _______ _______ _____ _____    ______ ____
ROOT
ATOM     11  C   UNL     1      -3.713  -0.356  24.579  0.00  0.00    +0.012 C 
ATOM     12  C   UNL     1      -4.337  -0.784  24.248  0.00  0.00    +0.019 C 
ATOM     13  C   UNL     1      -4.249  -1.588  24.091  0.00  0.00    +0.089 C 
ATOM     14  N   UNL     1      -3.535  -1.967  24.265  0.00  0.00    -0.218 NA
ATOM     15  C   UNL     1      -2.912  -1.540  24.595  0.00  0.00    +0.089 C 
ATOM     16  C   UNL     1      -3.000  -0.735  24.752  0.00  0.00    +0.024 C 
ENDROOT
BRANCH  11  10
ATOM     10  C   UNL     1      -3.801   0.448  24.736  0.00  0.00    +0.085 C 
BRANCH  10   8
ATOM      1  C   UNL     1      -4.952   3.998  25.344  0.00  0.00    +0.090 C 
ATOM      2  N   UNL     1      -4.848   3.184  25.247  0.00  0.00    -0.269 NA
ATOM      3  C   UNL     1      -4.113   2.886  25.025  0.00  0.00    +0.094 C 
ATOM      4  C   UNL     1      -4.008   2.074  24.929  0.00  0.00    +0.111 C 
ATOM      5  N   UNL     1      -4.642   1.559  25.055  0.00  0.00    -0.277 N 
ATOM      6  C   UNL     1      -5.377   1.857  25.277  0.00  0.00    +0.111 C 
ATOM      7  C   UNL     1      -5.481   2.671  25.373  0.00  0.00    +0.094 C 
ATOM      8  C   UNL     1      -4.537   0.747  24.958  0.00  0.00    +0.226 C 
ATOM      9  O   UNL     1      -5.170   0.233  25.084  0.00  0.00    -0.275 OA
ENDBRANCH  10   8
ENDBRANCH  11  10
BRANCH  16  17
ATOM     17  C   UNL     1      -2.376  -0.308  25.082  0.00  0.00    +0.051 C 
BRANCH  17  18
ATOM     18  C   UNL     1      -1.597  -0.528  24.923  0.00  0.00    +0.100 A 
ATOM     19  N   UNL     1      -1.106  -0.968  25.419  0.00  0.00    -0.082 NA
ATOM     20  O   UNL     1      -0.378  -1.057  25.043  0.00  0.00    -0.357 OA
ATOM     21  C   UNL     1      -0.418  -0.673  24.315  0.00  0.00    +0.165 A 
ATOM     30  C   UNL     1      -1.171  -0.345  24.240  0.00  0.00    +0.054 A 
BRANCH  21  22
ATOM     22  C   UNL     1       0.189  -0.624  23.758  0.00  0.00    +0.129 C 
BRANCH  22  23
ATOM     23  S   UNL     1       0.500   0.111  23.549  0.00  0.00    -0.105 S 
BRANCH  23  24
ATOM     24  C   UNL     1       1.213   0.155  23.136  0.00  0.00    +0.026 A 
ATOM     25  C   UNL     1       1.295  -0.234  22.413  0.00  0.00    +0.006 A 
ATOM     26  C   UNL     1       2.007  -0.191  22.000  0.00  0.00    +0.001 A 
ATOM     27  C   UNL     1       2.639   0.242  22.310  0.00  0.00    +0.000 A 
ATOM     28  C   UNL     1       2.556   0.631  23.033  0.00  0.00    +0.001 A 
ATOM     29  C   UNL     1       1.843   0.587  23.446  0.00  0.00    +0.006 A 
ENDBRANCH  23  24
ENDBRANCH  22  23
ENDBRANCH  21  22
ENDBRANCH  17  18
ENDBRANCH  16  17
TORSDOF 7
ENDMDL
MODEL 6
REMARK VINA RESULT:      -9.9      1.891      4.462
REMARK  Name = 
REMARK  7 active torsions:
REMARK  status: ('A' for Active; 'I' for Inactive)
REMARK    1  A    between atoms: C_8  and  C_10
REMARK    2  A    between atoms: C_10  and  C_11
REMARK    3  A    between atoms: C_16  and  C_17
REMARK    4  A    between atoms: C_17  and  C_18
REMARK    5  A    between atoms: C_21  and  C_22
REMARK    6  A    between atoms: C_22  and  S_23
REMARK    7  A    between atoms: S_23  and  C_24
REMARK                            x       y       z     vdW  Elec       q    Type
REMARK                         _______ _______ _______ _____ _____    ______ ____
ROOT
ATOM     11  C   UNL     1      -2.847  -0.423  24.886  0.00  0.00    +0.012 C 
ATOM     12  C   UNL     1      -2.794  -1.032  25.440  0.00  0.00    +0.019 C 
ATOM     13  C   UNL     1      -3.440  -1.212  25.919  0.00  0.00    +0.089 C 
ATOM     14  N   UNL     1      -4.141  -0.781  25.845  0.00  0.00    -0.218 NA
ATOM     15  C   UNL     1      -4.194  -0.172  25.292  0.00  0.00    +0.089 C 
ATOM     16  C   UNL     1      -3.548   0.008  24.812  0.00  0.00    +0.024 C 
ENDROOT
BRANCH  11  10
ATOM     10  C   UNL     1      -2.200  -0.243  24.406  0.00  0.00    +0.085 C 
BRANCH  10   8
ATOM      1  C   UNL     1       1.329   0.315  23.172  0.00  0.00    +0.090 C 
ATOM      2  N   UNL     1       0.609   0.049  23.476  0.00  0.00    -0.269 NA
ATOM      3  C   UNL     1      -0.042   0.554  23.496  0.00  0.00    +0.094 C 
ATOM      4  C   UNL     1      -0.761   0.289  23.799  0.00  0.00    +0.111 C 
ATOM      5  N   UNL     1      -0.829  -0.484  24.083  0.00  0.00    -0.277 N 
ATOM      6  C   UNL     1      -0.179  -0.989  24.063  0.00  0.00    +0.111 C 
ATOM      7  C   UNL     1       0.542  -0.723  23.759  0.00  0.00    +0.094 C 
ATOM      8  C   UNL     1      -1.549  -0.749  24.386  0.00  0.00    +0.226 C 
ATOM      9  O   UNL     1      -1.616  -1.521  24.670  0.00  0.00    -0.275 OA
ENDBRANCH  10   8
ENDBRANCH  11  10
BRANCH  16  17
ATOM     17  C   UNL     1      -3.601   0.617  24.259  0.00  0.00    +0.051 C 
BRANCH  17  18
ATOM     18  C   UNL     1      -3.761   1.387  24.507  0.00  0.00    +0.100 A 
ATOM     19  N   UNL     1      -4.478   1.661  24.807  0.00  0.00    -0.082 NA
ATOM     20  O   UNL     1      -4.392   2.461  24.985  0.00  0.00    -0.357 OA
ATOM     21  C   UNL     1      -3.620   2.683  24.795  0.00  0.00    +0.165 A 
ATOM     30  C   UNL     1      -3.230   2.019  24.499  0.00  0.00    +0.054 A 
BRANCH  21  22
ATOM     22  C   UNL     1      -3.296   3.436  24.884  0.00  0.00    +0.129 C 
BRANCH  22  23
ATOM     23  S   UNL     1      -2.673   3.558  25.412  0.00  0.00    -0.105 S 
BRANCH  23  24
ATOM     24  C   UNL     1      -2.126   4.159  25.273  0.00  0.00    +0.026 A 
ATOM     25  C   UNL     1      -1.349   3.970  25.067  0.00  0.00    +0.006 A 
ATOM     26  C   UNL     1      -0.802   4.571  24.927  0.00  0.00    +0.001 A 
ATOM     27  C   UNL     1      -1.031   5.362  24.993  0.00  0.00    +0.000 A 
ATOM     28  C   UNL     1      -1.808   5.550  25.199  0.00  0.00    +0.001 A 
ATOM     29  C   UNL     1      -2.354   4.948  25.339  0.00  0.00    +0.006 A 
ENDBRANCH  23  24
ENDBRANCH  22  23
ENDBRANCH  21  22
ENDBRANCH  17  18
ENDBRANCH  16  17
TORSDOF 7
ENDMDL
