REMARK  Name = 
REMARK  9 active torsions:
REMARK  status: ('A' for Active; 'I' for Inactive)
REMARK    1  A    between atoms: C_2  and  C_3
REMARK    2  A    between atoms: C_3  and  C_4
REMARK    3  A    between atoms: C_4  and  C_5
REMARK    4  A    between atoms: C_7  and  C_8
REMARK    5  A    between atoms: C_8  and  C_9
REMARK    6  A    between atoms: C_14  and  C_15
REMARK    7  A    between atoms: C_15  and  C_16
REMARK    8  A    between atoms: C_21  and  C_22
REMARK    9  A    between atoms: C_22  and  C_23
REMARK                            x       y       z     vdW  Elec       q    Type
REMARK                         _______ _______ _______ _____ _____    ______ ____
ROOT
ATOM      9  C   UNL     1      -0.425  -8.038   0.000  0.00  0.00    +0.024 C 
ATOM     10  C   UNL     1      -0.090  -7.285   0.000  0.00  0.00    +0.089 C 
ATOM     11  N   UNL     1       0.731  -7.198   0.000  0.00  0.00    -0.218 NA
ATOM     12  C   UNL     1       1.216  -7.866   0.000  0.00  0.00    +0.089 C 
ATOM     13  C   UNL     1       0.880  -8.620   0.000  0.00  0.00    +0.019 C 
ATOM     14  C   UNL     1       0.059  -8.706   0.000  0.00  0.00    +0.012 C 
ENDROOT
BRANCH   9   8
ATOM      8  C   UNL     1      -1.246  -8.124   0.000  0.00  0.00    +0.051 C 
BRANCH   8   7
ATOM      5  C   UNL     1      -2.143  -6.188   0.000  0.00  0.00    +0.154 A 
ATOM      6  C   UNL     1      -1.476  -6.672   0.000  0.00  0.00    +0.054 A 
ATOM      7  C   UNL     1      -1.731  -7.457   0.000  0.00  0.00    +0.100 A 
ATOM     31  N   UNL     1      -2.556  -7.457   0.000  0.00  0.00    -0.082 NA
ATOM     32  O   UNL     1      -2.811  -6.672   0.000  0.00  0.00    -0.358 OA
BRANCH   5   4
ATOM      4  C   UNL     1      -2.143  -5.362   0.000  0.00  0.00    +0.067 C 
BRANCH   4   3
ATOM      3  C   UNL     1      -2.858  -4.950   0.000  0.00  0.00    +0.008 C 
BRANCH   3   2
ATOM      1  C   UNL     1      -3.572  -3.712   0.000  0.00  0.00    +0.000 C 
ATOM      2  C   UNL     1      -2.858  -4.125   0.000  0.00  0.00    +0.000 C 
ENDBRANCH   3   2
ENDBRANCH   4   3
ENDBRANCH   5   4
ENDBRANCH   8   7
ENDBRANCH   9   8
BRANCH  14  15
ATOM     15  C   UNL     1      -0.276  -9.459   0.000  0.00  0.00    +0.085 C 
BRANCH  15  16
ATOM     16  C   UNL     1       0.209 -10.127   0.000  0.00  0.00    +0.226 C 
ATOM     17  O   UNL     1       1.029 -10.041   0.000  0.00  0.00    -0.275 OA
ATOM     18  N   UNL     1      -0.127 -10.880   0.000  0.00  0.00    -0.280 N 
ATOM     19  C   UNL     1       0.358 -11.548   0.000  0.00  0.00    +0.093 C 
ATOM     20  C   UNL     1       0.023 -12.302   0.000  0.00  0.00    +0.022 C 
ATOM     21  C   UNL     1      -0.798 -12.388   0.000  0.00  0.00    +0.008 C 
ATOM     29  C   UNL     1      -1.283 -11.720   0.000  0.00  0.00    +0.022 C 
ATOM     30  C   UNL     1      -0.947 -10.967   0.000  0.00  0.00    +0.093 C 
BRANCH  21  22
ATOM     22  C   UNL     1      -1.133 -13.142   0.000  0.00  0.00    +0.026 C 
BRANCH  22  23
ATOM     23  C   UNL     1      -0.648 -13.809   0.000  0.00  0.00    -0.022 A 
ATOM     24  C   UNL     1       0.172 -13.723   0.000  0.00  0.00    -0.004 A 
ATOM     25  C   UNL     1       0.657 -14.390   0.000  0.00  0.00    -0.000 A 
ATOM     26  C   UNL     1       0.321 -15.144   0.000  0.00  0.00    -0.000 A 
ATOM     27  C   UNL     1      -0.499 -15.230   0.000  0.00  0.00    -0.000 A 
ATOM     28  C   UNL     1      -0.984 -14.563   0.000  0.00  0.00    -0.004 A 
ENDBRANCH  22  23
ENDBRANCH  21  22
ENDBRANCH  15  16
ENDBRANCH  14  15
TORSDOF 9
