MODEL 1
REMARK VINA RESULT:      -8.5      0.000      0.000
REMARK  Name = 
REMARK  9 active torsions:
REMARK  status: ('A' for Active; 'I' for Inactive)
REMARK    1  A    between atoms: O_2  and  C_3
REMARK    2  A    between atoms: C_3  and  C_4
REMARK    3  A    between atoms: N_6  and  C_7
REMARK    4  A    between atoms: C_7  and  C_8
REMARK    5  A    between atoms: C_10  and  C_11
REMARK    6  A    between atoms: C_15  and  N_16
REMARK    7  A    between atoms: N_16  and  C_18
REMARK    8  A    between atoms: C_18  and  C_19
REMARK    9  A    between atoms: C_19  and  C_20
REMARK                            x       y       z     vdW  Elec       q    Type
REMARK                         _______ _______ _______ _____ _____    ______ ____
ROOT
ATOM      8  C   UNL     1      -3.773   2.453  25.065  0.00  0.00    +0.154 C 
ATOM      9  O   UNL     1      -4.284   2.945  25.484  0.00  0.00    -0.350 OA
ATOM     10  C   UNL     1      -5.053   2.667  25.376  0.00  0.00    +0.180 C 
ATOM     13  C   UNL     1      -5.017   2.002  24.889  0.00  0.00    +0.198 C 
ATOM     14  O   UNL     1      -5.660   1.549  24.639  0.00  0.00    -0.219 OA
ATOM     15  C   UNL     1      -4.226   1.869  24.697  0.00  0.00    +0.120 C 
ENDROOT
BRANCH  10  11
ATOM     11  C   UNL     1      -5.738   2.997  25.698  0.00  0.00    +0.214 C 
ATOM     12  O   UNL     1      -5.790   3.814  25.806  0.00  0.00    -0.218 OA
ENDBRANCH  10  11
BRANCH  15  16
ATOM     16  N   UNL     1      -3.939   1.260  24.220  0.00  0.00    -0.268 NA
ATOM     17  C   UNL     1      -3.704   1.418  23.445  0.00  0.00    +0.090 C 
BRANCH  16  18
ATOM     18  C   UNL     1      -3.888   0.492  24.519  0.00  0.00    +0.079 C 
BRANCH  18  19
ATOM     19  C   UNL     1      -3.591  -0.115  24.046  0.00  0.00    +0.063 C 
BRANCH  19  20
ATOM     20  C   UNL     1      -3.582  -0.891  24.326  0.00  0.00    +0.060 A 
ATOM     21  N   UNL     1      -3.151  -1.079  25.005  0.00  0.00    -0.248 NA
ATOM     22  C   UNL     1      -3.142  -1.854  25.285  0.00  0.00    +0.098 A 
ATOM     23  C   UNL     1      -3.564  -2.442  24.888  0.00  0.00    +0.021 A 
ATOM     24  C   UNL     1      -3.995  -2.253  24.210  0.00  0.00    +0.003 A 
ATOM     25  C   UNL     1      -4.004  -1.478  23.929  0.00  0.00    +0.015 A 
ENDBRANCH  19  20
ENDBRANCH  18  19
ENDBRANCH  16  18
ENDBRANCH  15  16
BRANCH   8   7
ATOM      7  C   UNL     1      -2.953   2.529  25.021  0.00  0.00    +0.146 C 
BRANCH   7   6
ATOM      4  C   UNL     1      -1.776   3.306  25.252  0.00  0.00    +0.272 C 
ATOM      5  O   UNL     1      -1.311   2.630  25.160  0.00  0.00    -0.271 OA
ATOM      6  N   UNL     1      -2.596   3.255  25.182  0.00  0.00    -0.201 NA
BRANCH   4   3
ATOM      3  C   UNL     1      -1.420   4.032  25.412  0.00  0.00    +0.229 C 
BRANCH   3   2
ATOM      1  C   UNL     1      -0.716   5.157  24.882  0.00  0.00    +0.175 C 
ATOM      2  O   UNL     1      -0.867   4.347  24.887  0.00  0.00    -0.342 OA
ENDBRANCH   3   2
ENDBRANCH   4   3
ENDBRANCH   7   6
ENDBRANCH   8   7
TORSDOF 9
ENDMDL
MODEL 2
REMARK VINA RESULT:      -8.2      2.316      3.734
REMARK  Name = 
REMARK  9 active torsions:
REMARK  status: ('A' for Active; 'I' for Inactive)
REMARK    1  A    between atoms: O_2  and  C_3
REMARK    2  A    between atoms: C_3  and  C_4
REMARK    3  A    between atoms: N_6  and  C_7
REMARK    4  A    between atoms: C_7  and  C_8
REMARK    5  A    between atoms: C_10  and  C_11
REMARK    6  A    between atoms: C_15  and  N_16
REMARK    7  A    between atoms: N_16  and  C_18
REMARK    8  A    between atoms: C_18  and  C_19
REMARK    9  A    between atoms: C_19  and  C_20
REMARK                            x       y       z     vdW  Elec       q    Type
REMARK                         _______ _______ _______ _____ _____    ______ ____
ROOT
ATOM      8  C   UNL     1      -0.591   0.831  24.441  0.00  0.00    +0.154 C 
ATOM      9  O   UNL     1       0.032   0.978  23.922  0.00  0.00    -0.350 OA
ATOM     10  C   UNL     1       0.329   0.253  23.666  0.00  0.00    +0.180 C 
ATOM     13  C   UNL     1      -0.111  -0.344  24.027  0.00  0.00    +0.198 C 
ATOM     14  O   UNL     1      -0.001  -1.156  23.926  0.00  0.00    -0.219 OA
ATOM     15  C   UNL     1      -0.680   0.012  24.506  0.00  0.00    +0.120 C 
ENDROOT
BRANCH  10  11
ATOM     11  C   UNL     1       0.957   0.144  23.141  0.00  0.00    +0.214 C 
ATOM     12  O   UNL     1       1.580   0.685  23.126  0.00  0.00    -0.218 OA
ENDBRANCH  10  11
BRANCH  15  16
ATOM     16  N   UNL     1      -1.239  -0.380  24.969  0.00  0.00    -0.268 NA
ATOM     17  C   UNL     1      -1.101  -0.495  25.774  0.00  0.00    +0.090 C 
BRANCH  16  18
ATOM     18  C   UNL     1      -1.936  -0.658  24.625  0.00  0.00    +0.079 C 
BRANCH  18  19
ATOM     19  C   UNL     1      -2.471  -1.097  25.075  0.00  0.00    +0.063 C 
BRANCH  19  20
ATOM     20  C   UNL     1      -3.098  -1.487  24.707  0.00  0.00    +0.060 A 
ATOM     21  N   UNL     1      -3.681  -1.052  24.317  0.00  0.00    -0.248 NA
ATOM     22  C   UNL     1      -4.308  -1.442  23.949  0.00  0.00    +0.098 A 
ATOM     23  C   UNL     1      -4.353  -2.265  23.972  0.00  0.00    +0.021 A 
ATOM     24  C   UNL     1      -3.770  -2.699  24.362  0.00  0.00    +0.003 A 
ATOM     25  C   UNL     1      -3.142  -2.310  24.730  0.00  0.00    +0.015 A 
ENDBRANCH  19  20
ENDBRANCH  18  19
ENDBRANCH  16  18
ENDBRANCH  15  16
BRANCH   8   7
ATOM      7  C   UNL     1      -1.046   1.399  24.827  0.00  0.00    +0.146 C 
BRANCH   7   6
ATOM      4  C   UNL     1      -1.307   2.772  25.129  0.00  0.00    +0.272 C 
ATOM      5  O   UNL     1      -2.049   2.565  25.428  0.00  0.00    -0.271 OA
ATOM      6  N   UNL     1      -0.807   2.189  24.829  0.00  0.00    -0.201 NA
BRANCH   4   3
ATOM      3  C   UNL     1      -1.068   3.560  25.130  0.00  0.00    +0.229 C 
BRANCH   3   2
ATOM      1  C   UNL     1      -1.392   4.952  25.132  0.00  0.00    +0.175 C 
ATOM      2  O   UNL     1      -1.630   4.163  25.154  0.00  0.00    -0.342 OA
ENDBRANCH   3   2
ENDBRANCH   4   3
ENDBRANCH   7   6
ENDBRANCH   8   7
TORSDOF 9
ENDMDL
MODEL 3
REMARK VINA RESULT:      -8.2      1.575      4.143
REMARK  Name = 
REMARK  9 active torsions:
REMARK  status: ('A' for Active; 'I' for Inactive)
REMARK    1  A    between atoms: O_2  and  C_3
REMARK    2  A    between atoms: C_3  and  C_4
REMARK    3  A    between atoms: N_6  and  C_7
REMARK    4  A    between atoms: C_7  and  C_8
REMARK    5  A    between atoms: C_10  and  C_11
REMARK    6  A    between atoms: C_15  and  N_16
REMARK    7  A    between atoms: N_16  and  C_18
REMARK    8  A    between atoms: C_18  and  C_19
REMARK    9  A    between atoms: C_19  and  C_20
REMARK                            x       y       z     vdW  Elec       q    Type
REMARK                         _______ _______ _______ _____ _____    ______ ____
ROOT
ATOM      8  C   UNL     1      -4.290   1.284  24.650  0.00  0.00    +0.154 C 
ATOM      9  O   UNL     1      -5.041   1.248  24.988  0.00  0.00    -0.350 OA
ATOM     10  C   UNL     1      -5.284   2.018  25.157  0.00  0.00    +0.180 C 
ATOM     13  C   UNL     1      -4.681   2.531  24.922  0.00  0.00    +0.198 C 
ATOM     14  O   UNL     1      -4.692   3.354  24.990  0.00  0.00    -0.219 OA
ATOM     15  C   UNL     1      -4.067   2.078  24.610  0.00  0.00    +0.120 C 
ENDROOT
BRANCH  10  11
ATOM     11  C   UNL     1      -6.002   2.236  25.499  0.00  0.00    +0.214 C 
ATOM     12  O   UNL     1      -6.276   1.840  26.169  0.00  0.00    -0.218 OA
ENDBRANCH  10  11
BRANCH  15  16
ATOM     16  N   UNL     1      -3.355   2.368  24.309  0.00  0.00    -0.268 NA
ATOM     17  C   UNL     1      -3.307   2.609  23.522  0.00  0.00    +0.090 C 
BRANCH  16  18
ATOM     18  C   UNL     1      -2.691   2.416  24.798  0.00  0.00    +0.079 C 
BRANCH  18  19
ATOM     19  C   UNL     1      -1.988   2.734  24.506  0.00  0.00    +0.063 C 
BRANCH  19  20
ATOM     20  C   UNL     1      -1.290   2.659  24.939  0.00  0.00    +0.060 A 
ATOM     21  N   UNL     1      -0.704   2.132  24.691  0.00  0.00    -0.248 NA
ATOM     22  C   UNL     1      -0.007   2.058  25.124  0.00  0.00    +0.098 A 
ATOM     23  C   UNL     1       0.106   2.509  25.806  0.00  0.00    +0.021 A 
ATOM     24  C   UNL     1      -0.479   3.035  26.054  0.00  0.00    +0.003 A 
ATOM     25  C   UNL     1      -1.178   3.110  25.621  0.00  0.00    +0.015 A 
ENDBRANCH  19  20
ENDBRANCH  18  19
ENDBRANCH  16  18
ENDBRANCH  15  16
BRANCH   8   7
ATOM      7  C   UNL     1      -3.840   0.641  24.398  0.00  0.00    +0.146 C 
BRANCH   7   6
ATOM      4  C   UNL     1      -3.686  -0.773  24.267  0.00  0.00    +0.272 C 
ATOM      5  O   UNL     1      -2.875  -0.673  24.143  0.00  0.00    -0.271 OA
ATOM      6  N   UNL     1      -4.167  -0.116  24.394  0.00  0.00    -0.201 NA
BRANCH   4   3
ATOM      3  C   UNL     1      -4.013  -1.530  24.263  0.00  0.00    +0.229 C 
BRANCH   3   2
ATOM      1  C   UNL     1      -3.849  -2.949  24.267  0.00  0.00    +0.175 C 
ATOM      2  O   UNL     1      -3.522  -2.193  24.268  0.00  0.00    -0.342 OA
ENDBRANCH   3   2
ENDBRANCH   4   3
ENDBRANCH   7   6
ENDBRANCH   8   7
TORSDOF 9
ENDMDL
MODEL 4
REMARK VINA RESULT:      -8.0      2.001      4.401
REMARK  Name = 
REMARK  9 active torsions:
REMARK  status: ('A' for Active; 'I' for Inactive)
REMARK    1  A    between atoms: O_2  and  C_3
REMARK    2  A    between atoms: C_3  and  C_4
REMARK    3  A    between atoms: N_6  and  C_7
REMARK    4  A    between atoms: C_7  and  C_8
REMARK    5  A    between atoms: C_10  and  C_11
REMARK    6  A    between atoms: C_15  and  N_16
REMARK    7  A    between atoms: N_16  and  C_18
REMARK    8  A    between atoms: C_18  and  C_19
REMARK    9  A    between atoms: C_19  and  C_20
REMARK                            x       y       z     vdW  Elec       q    Type
REMARK                         _______ _______ _______ _____ _____    ______ ____
ROOT
ATOM      8  C   UNL     1      -1.487   1.584  25.096  0.00  0.00    +0.154 C 
ATOM      9  O   UNL     1      -0.806   1.646  25.557  0.00  0.00    -0.350 OA
ATOM     10  C   UNL     1      -0.700   2.441  25.750  0.00  0.00    +0.180 C 
ATOM     13  C   UNL     1      -1.315   2.871  25.407  0.00  0.00    +0.198 C 
ATOM     14  O   UNL     1      -1.425   3.687  25.460  0.00  0.00    -0.219 OA
ATOM     15  C   UNL     1      -1.802   2.341  25.003  0.00  0.00    +0.120 C 
ENDROOT
BRANCH  10  11
ATOM     11  C   UNL     1      -0.085   2.751  26.205  0.00  0.00    +0.214 C 
ATOM     12  O   UNL     1       0.646   2.370  26.224  0.00  0.00    -0.218 OA
ENDBRANCH  10  11
BRANCH  15  16
ATOM     16  N   UNL     1      -2.484   2.535  24.580  0.00  0.00    -0.268 NA
ATOM     17  C   UNL     1      -2.429   2.753  23.787  0.00  0.00    +0.090 C 
BRANCH  16  18
ATOM     18  C   UNL     1      -3.220   2.511  24.953  0.00  0.00    +0.079 C 
BRANCH  18  19
ATOM     19  C   UNL     1      -3.900   2.717  24.534  0.00  0.00    +0.063 C 
BRANCH  19  20
ATOM     20  C   UNL     1      -4.643   2.622  24.880  0.00  0.00    +0.060 A 
ATOM     21  N   UNL     1      -4.920   3.180  25.422  0.00  0.00    -0.248 NA
ATOM     22  C   UNL     1      -5.663   3.085  25.767  0.00  0.00    +0.098 A 
ATOM     23  C   UNL     1      -6.129   2.432  25.572  0.00  0.00    +0.021 A 
ATOM     24  C   UNL     1      -5.851   1.875  25.031  0.00  0.00    +0.003 A 
ATOM     25  C   UNL     1      -5.109   1.969  24.684  0.00  0.00    +0.015 A 
ENDBRANCH  19  20
ENDBRANCH  18  19
ENDBRANCH  16  18
ENDBRANCH  15  16
BRANCH   8   7
ATOM      7  C   UNL     1      -1.798   0.888  24.782  0.00  0.00    +0.146 C 
BRANCH   7   6
ATOM      4  C   UNL     1      -1.762  -0.535  24.661  0.00  0.00    +0.272 C 
ATOM      5  O   UNL     1      -2.502  -0.523  24.295  0.00  0.00    -0.271 OA
ATOM      6  N   UNL     1      -1.411   0.170  24.904  0.00  0.00    -0.201 NA
BRANCH   4   3
ATOM      3  C   UNL     1      -1.374  -1.253  24.783  0.00  0.00    +0.229 C 
BRANCH   3   2
ATOM      1  C   UNL     1      -1.327  -2.674  24.640  0.00  0.00    +0.175 C 
ATOM      2  O   UNL     1      -1.726  -1.959  24.543  0.00  0.00    -0.342 OA
ENDBRANCH   3   2
ENDBRANCH   4   3
ENDBRANCH   7   6
ENDBRANCH   8   7
TORSDOF 9
ENDMDL
MODEL 5
REMARK VINA RESULT:      -7.9      2.337      5.610
REMARK  Name = 
REMARK  9 active torsions:
REMARK  status: ('A' for Active; 'I' for Inactive)
REMARK    1  A    between atoms: O_2  and  C_3
REMARK    2  A    between atoms: C_3  and  C_4
REMARK    3  A    between atoms: N_6  and  C_7
REMARK    4  A    between atoms: C_7  and  C_8
REMARK    5  A    between atoms: C_10  and  C_11
REMARK    6  A    between atoms: C_15  and  N_16
REMARK    7  A    between atoms: N_16  and  C_18
REMARK    8  A    between atoms: C_18  and  C_19
REMARK    9  A    between atoms: C_19  and  C_20
REMARK                            x       y       z     vdW  Elec       q    Type
REMARK                         _______ _______ _______ _____ _____    ______ ____
ROOT
ATOM      8  C   UNL     1      -0.923   0.642  24.440  0.00  0.00    +0.154 C 
ATOM      9  O   UNL     1      -0.568   0.230  23.821  0.00  0.00    -0.350 OA
ATOM     10  C   UNL     1       0.166   0.574  23.671  0.00  0.00    +0.180 C 
ATOM     13  C   UNL     1       0.265   1.201  24.199  0.00  0.00    +0.198 C 
ATOM     14  O   UNL     1       0.923   1.697  24.244  0.00  0.00    -0.219 OA
ATOM     15  C   UNL     1      -0.408   1.243  24.675  0.00  0.00    +0.120 C 
ENDROOT
BRANCH  10  11
ATOM     11  C   UNL     1       0.706   0.334  23.095  0.00  0.00    +0.214 C 
ATOM     12  O   UNL     1       0.870  -0.468  22.993  0.00  0.00    -0.218 OA
ENDBRANCH  10  11
BRANCH  15  16
ATOM     16  N   UNL     1      -0.541   1.790  25.278  0.00  0.00    -0.268 NA
ATOM     17  C   UNL     1      -0.316   1.614  26.051  0.00  0.00    +0.090 C 
BRANCH  16  18
ATOM     18  C   UNL     1      -0.900   2.513  25.106  0.00  0.00    +0.079 C 
BRANCH  18  19
ATOM     19  C   UNL     1      -0.937   3.102  25.683  0.00  0.00    +0.063 C 
BRANCH  19  20
ATOM     20  C   UNL     1      -1.332   3.809  25.527  0.00  0.00    +0.060 A 
ATOM     21  N   UNL     1      -2.128   3.890  25.728  0.00  0.00    -0.248 NA
ATOM     22  C   UNL     1      -2.523   4.597  25.572  0.00  0.00    +0.098 A 
ATOM     23  C   UNL     1      -2.122   5.223  25.214  0.00  0.00    +0.021 A 
ATOM     24  C   UNL     1      -1.326   5.142  25.013  0.00  0.00    +0.003 A 
ATOM     25  C   UNL     1      -0.930   4.435  25.169  0.00  0.00    +0.015 A 
ENDBRANCH  19  20
ENDBRANCH  18  19
ENDBRANCH  16  18
ENDBRANCH  15  16
BRANCH   8   7
ATOM      7  C   UNL     1      -1.663   0.483  24.768  0.00  0.00    +0.146 C 
BRANCH   7   6
ATOM      4  C   UNL     1      -2.840  -0.327  24.794  0.00  0.00    +0.272 C 
ATOM      5  O   UNL     1      -3.257   0.290  25.151  0.00  0.00    -0.271 OA
ATOM      6  N   UNL     1      -2.044  -0.230  24.603  0.00  0.00    -0.201 NA
BRANCH   4   3
ATOM      3  C   UNL     1      -3.220  -1.039  24.629  0.00  0.00    +0.229 C 
BRANCH   3   2
ATOM      1  C   UNL     1      -4.240  -1.746  23.919  0.00  0.00    +0.175 C 
ATOM      2  O   UNL     1      -3.936  -1.040  24.220  0.00  0.00    -0.342 OA
ENDBRANCH   3   2
ENDBRANCH   4   3
ENDBRANCH   7   6
ENDBRANCH   8   7
TORSDOF 9
ENDMDL
MODEL 6
REMARK VINA RESULT:      -7.8      2.327      3.072
REMARK  Name = 
REMARK  9 active torsions:
REMARK  status: ('A' for Active; 'I' for Inactive)
REMARK    1  A    between atoms: O_2  and  C_3
REMARK    2  A    between atoms: C_3  and  C_4
REMARK    3  A    between atoms: N_6  and  C_7
REMARK    4  A    between atoms: C_7  and  C_8
REMARK    5  A    between atoms: C_10  and  C_11
REMARK    6  A    between atoms: C_15  and  N_16
REMARK    7  A    between atoms: N_16  and  C_18
REMARK    8  A    between atoms: C_18  and  C_19
REMARK    9  A    between atoms: C_19  and  C_20
REMARK                            x       y       z     vdW  Elec       q    Type
REMARK                         _______ _______ _______ _____ _____    ______ ____
ROOT
ATOM      8  C   UNL     1      -1.404   1.447  24.440  0.00  0.00    +0.154 C 
ATOM      9  O   UNL     1      -1.051   2.068  24.852  0.00  0.00    -0.350 OA
ATOM     10  C   UNL     1      -1.650   2.523  25.193  0.00  0.00    +0.180 C 
ATOM     13  C   UNL     1      -2.374   2.181  24.991  0.00  0.00    +0.198 C 
ATOM     14  O   UNL     1      -3.119   2.457  25.215  0.00  0.00    -0.219 OA
ATOM     15  C   UNL     1      -2.222   1.517  24.526  0.00  0.00    +0.120 C 
ENDROOT
BRANCH  10  11
ATOM     11  C   UNL     1      -1.543   3.198  25.654  0.00  0.00    +0.214 C 
ATOM     12  O   UNL     1      -0.881   3.677  25.536  0.00  0.00    -0.218 OA
ENDBRANCH  10  11
BRANCH  15  16
ATOM     16  N   UNL     1      -2.789   1.011  24.203  0.00  0.00    -0.268 NA
ATOM     17  C   UNL     1      -3.191   1.227  23.517  0.00  0.00    +0.090 C 
BRANCH  16  18
ATOM     18  C   UNL     1      -2.952   0.289  24.569  0.00  0.00    +0.079 C 
BRANCH  18  19
ATOM     19  C   UNL     1      -3.589  -0.168  24.311  0.00  0.00    +0.063 C 
BRANCH  19  20
ATOM     20  C   UNL     1      -3.621  -0.972  24.495  0.00  0.00    +0.060 A 
ATOM     21  N   UNL     1      -3.435  -1.228  25.257  0.00  0.00    -0.248 NA
ATOM     22  C   UNL     1      -3.467  -2.031  25.441  0.00  0.00    +0.098 A 
ATOM     23  C   UNL     1      -3.686  -2.578  24.863  0.00  0.00    +0.021 A 
ATOM     24  C   UNL     1      -3.873  -2.322  24.102  0.00  0.00    +0.003 A 
ATOM     25  C   UNL     1      -3.841  -1.518  23.917  0.00  0.00    +0.015 A 
ENDBRANCH  19  20
ENDBRANCH  18  19
ENDBRANCH  16  18
ENDBRANCH  15  16
BRANCH   8   7
ATOM      7  C   UNL     1      -1.009   0.860  24.017  0.00  0.00    +0.146 C 
BRANCH   7   6
ATOM      4  C   UNL     1       0.228   0.326  23.543  0.00  0.00    +0.272 C 
ATOM      5  O   UNL     1      -0.109  -0.428  23.512  0.00  0.00    -0.271 OA
ATOM      6  N   UNL     1      -0.222   0.968  23.795  0.00  0.00    -0.201 NA
BRANCH   4   3
ATOM      3  C   UNL     1       1.015   0.434  23.322  0.00  0.00    +0.229 C 
BRANCH   3   2
ATOM      1  C   UNL     1       2.155   0.025  22.564  0.00  0.00    +0.175 C 
ATOM      2  O   UNL     1       1.364  -0.074  22.774  0.00  0.00    -0.342 OA
ENDBRANCH   3   2
ENDBRANCH   4   3
ENDBRANCH   7   6
ENDBRANCH   8   7
TORSDOF 9
ENDMDL
MODEL 7
REMARK VINA RESULT:      -7.7      1.376      3.084
REMARK  Name = 
REMARK  9 active torsions:
REMARK  status: ('A' for Active; 'I' for Inactive)
REMARK    1  A    between atoms: O_2  and  C_3
REMARK    2  A    between atoms: C_3  and  C_4
REMARK    3  A    between atoms: N_6  and  C_7
REMARK    4  A    between atoms: C_7  and  C_8
REMARK    5  A    between atoms: C_10  and  C_11
REMARK    6  A    between atoms: C_15  and  N_16
REMARK    7  A    between atoms: N_16  and  C_18
REMARK    8  A    between atoms: C_18  and  C_19
REMARK    9  A    between atoms: C_19  and  C_20
REMARK                            x       y       z     vdW  Elec       q    Type
REMARK                         _______ _______ _______ _____ _____    ______ ____
ROOT
ATOM      8  C   UNL     1      -1.995   2.032  24.993  0.00  0.00    +0.154 C 
ATOM      9  O   UNL     1      -1.552   2.460  25.541  0.00  0.00    -0.350 OA
ATOM     10  C   UNL     1      -0.842   2.059  25.668  0.00  0.00    +0.180 C 
ATOM     13  C   UNL     1      -0.847   1.381  25.197  0.00  0.00    +0.198 C 
ATOM     14  O   UNL     1      -0.245   0.818  25.152  0.00  0.00    -0.219 OA
ATOM     15  C   UNL     1      -1.559   1.364  24.780  0.00  0.00    +0.120 C 
ENDROOT
BRANCH  10  11
ATOM     11  C   UNL     1      -0.236   2.294  26.175  0.00  0.00    +0.214 C 
ATOM     12  O   UNL     1       0.012   3.081  26.184  0.00  0.00    -0.218 OA
ENDBRANCH  10  11
BRANCH  15  16
ATOM     16  N   UNL     1      -1.793   0.781  24.245  0.00  0.00    -0.268 NA
ATOM     17  C   UNL     1      -1.632   0.870  23.441  0.00  0.00    +0.090 C 
BRANCH  16  18
ATOM     18  C   UNL     1      -2.189   0.109  24.515  0.00  0.00    +0.079 C 
BRANCH  18  19
ATOM     19  C   UNL     1      -2.425  -0.472  23.979  0.00  0.00    +0.063 C 
BRANCH  19  20
ATOM     20  C   UNL     1      -2.803  -1.154  24.250  0.00  0.00    +0.060 A 
ATOM     21  N   UNL     1      -2.358  -1.778  24.558  0.00  0.00    -0.248 NA
ATOM     22  C   UNL     1      -2.735  -2.459  24.828  0.00  0.00    +0.098 A 
ATOM     23  C   UNL     1      -3.558  -2.518  24.791  0.00  0.00    +0.021 A 
ATOM     24  C   UNL     1      -4.002  -1.894  24.484  0.00  0.00    +0.003 A 
ATOM     25  C   UNL     1      -3.625  -1.212  24.213  0.00  0.00    +0.015 A 
ENDBRANCH  19  20
ENDBRANCH  18  19
ENDBRANCH  16  18
ENDBRANCH  15  16
BRANCH   8   7
ATOM      7  C   UNL     1      -2.741   2.235  24.708  0.00  0.00    +0.146 C 
BRANCH   7   6
ATOM      4  C   UNL     1      -3.925   3.028  24.803  0.00  0.00    +0.272 C 
ATOM      5  O   UNL     1      -4.175   2.744  24.069  0.00  0.00    -0.271 OA
ATOM      6  N   UNL     1      -3.209   2.774  25.122  0.00  0.00    -0.201 NA
BRANCH   4   3
ATOM      3  C   UNL     1      -4.393   3.567  25.216  0.00  0.00    +0.229 C 
BRANCH   3   2
ATOM      1  C   UNL     1      -5.678   4.000  25.667  0.00  0.00    +0.175 C 
ATOM      2  O   UNL     1      -5.209   3.456  25.262  0.00  0.00    -0.342 OA
ENDBRANCH   3   2
ENDBRANCH   4   3
ENDBRANCH   7   6
ENDBRANCH   8   7
TORSDOF 9
ENDMDL
MODEL 8
REMARK VINA RESULT:      -7.6      2.368      4.357
REMARK  Name = 
REMARK  9 active torsions:
REMARK  status: ('A' for Active; 'I' for Inactive)
REMARK    1  A    between atoms: O_2  and  C_3
REMARK    2  A    between atoms: C_3  and  C_4
REMARK    3  A    between atoms: N_6  and  C_7
REMARK    4  A    between atoms: C_7  and  C_8
REMARK    5  A    between atoms: C_10  and  C_11
REMARK    6  A    between atoms: C_15  and  N_16
REMARK    7  A    between atoms: N_16  and  C_18
REMARK    8  A    between atoms: C_18  and  C_19
REMARK    9  A    between atoms: C_19  and  C_20
REMARK                            x       y       z     vdW  Elec       q    Type
REMARK                         _______ _______ _______ _____ _____    ______ ____
ROOT
ATOM      8  C   UNL     1      -2.232   0.122  24.597  0.00  0.00    +0.154 C 
ATOM      9  O   UNL     1      -2.298  -0.636  24.913  0.00  0.00    -0.350 OA
ATOM     10  C   UNL     1      -3.079  -0.746  25.154  0.00  0.00    +0.180 C 
ATOM     13  C   UNL     1      -3.497  -0.055  24.987  0.00  0.00    +0.198 C 
ATOM     14  O   UNL     1      -4.297   0.077  25.137  0.00  0.00    -0.219 OA
ATOM     15  C   UNL     1      -2.974   0.482  24.642  0.00  0.00    +0.120 C 
ENDROOT
BRANCH  10  11
ATOM     11  C   UNL     1      -3.388  -1.428  25.502  0.00  0.00    +0.214 C 
ATOM     12  O   UNL     1      -3.101  -2.170  25.279  0.00  0.00    -0.218 OA
ENDBRANCH  10  11
BRANCH  15  16
ATOM     16  N   UNL     1      -3.160   1.245  24.388  0.00  0.00    -0.268 NA
ATOM     17  C   UNL     1      -3.500   1.361  23.646  0.00  0.00    +0.090 C 
BRANCH  16  18
ATOM     18  C   UNL     1      -3.005   1.892  24.877  0.00  0.00    +0.079 C 
BRANCH  18  19
ATOM     19  C   UNL     1      -3.220   2.651  24.637  0.00  0.00    +0.063 C 
BRANCH  19  20
ATOM     20  C   UNL     1      -2.950   3.309  25.056  0.00  0.00    +0.060 A 
ATOM     21  N   UNL     1      -2.267   3.703  24.810  0.00  0.00    -0.248 NA
ATOM     22  C   UNL     1      -1.998   4.360  25.229  0.00  0.00    +0.098 A 
ATOM     23  C   UNL     1      -2.411   4.624  25.893  0.00  0.00    +0.021 A 
ATOM     24  C   UNL     1      -3.093   4.230  26.138  0.00  0.00    +0.003 A 
ATOM     25  C   UNL     1      -3.363   3.572  25.719  0.00  0.00    +0.015 A 
ENDBRANCH  19  20
ENDBRANCH  18  19
ENDBRANCH  16  18
ENDBRANCH  15  16
BRANCH   8   7
ATOM      7  C   UNL     1      -1.547   0.462  24.289  0.00  0.00    +0.146 C 
BRANCH   7   6
ATOM      4  C   UNL     1      -0.214   0.314  23.795  0.00  0.00    +0.272 C 
ATOM      5  O   UNL     1      -0.098   1.129  23.865  0.00  0.00    -0.271 OA
ATOM      6  N   UNL     1      -0.938  -0.018  24.007  0.00  0.00    -0.201 NA
BRANCH   4   3
ATOM      3  C   UNL     1       0.394  -0.166  23.514  0.00  0.00    +0.229 C 
BRANCH   3   2
ATOM      1  C   UNL     1       1.551  -0.319  22.689  0.00  0.00    +0.175 C 
ATOM      2  O   UNL     1       1.024   0.166  23.098  0.00  0.00    -0.342 OA
ENDBRANCH   3   2
ENDBRANCH   4   3
ENDBRANCH   7   6
ENDBRANCH   8   7
TORSDOF 9
ENDMDL
MODEL 9
REMARK VINA RESULT:      -7.6     16.678     19.219
REMARK  Name = 
REMARK  9 active torsions:
REMARK  status: ('A' for Active; 'I' for Inactive)
REMARK    1  A    between atoms: O_2  and  C_3
REMARK    2  A    between atoms: C_3  and  C_4
REMARK    3  A    between atoms: N_6  and  C_7
REMARK    4  A    between atoms: C_7  and  C_8
REMARK    5  A    between atoms: C_10  and  C_11
REMARK    6  A    between atoms: C_15  and  N_16
REMARK    7  A    between atoms: N_16  and  C_18
REMARK    8  A    between atoms: C_18  and  C_19
REMARK    9  A    between atoms: C_19  and  C_20
REMARK                            x       y       z     vdW  Elec       q    Type
REMARK                         _______ _______ _______ _____ _____    ______ ____
ROOT
ATOM      8  C   UNL     1      12.646   7.263  19.486  0.00  0.00    +0.154 C 
ATOM      9  O   UNL     1      11.990   6.920  19.849  0.00  0.00    -0.350 OA
ATOM     10  C   UNL     1      12.196   6.732  20.625  0.00  0.00    +0.180 C 
ATOM     13  C   UNL     1      12.982   6.958  20.741  0.00  0.00    +0.198 C 
ATOM     14  O   UNL     1      13.412   6.871  21.440  0.00  0.00    -0.219 OA
ATOM     15  C   UNL     1      13.260   7.286  20.038  0.00  0.00    +0.120 C 
ENDROOT
BRANCH  10  11
ATOM     11  C   UNL     1      11.704   6.379  21.186  0.00  0.00    +0.214 C 
ATOM     12  O   UNL     1      11.138   5.827  20.948  0.00  0.00    -0.218 OA
ENDBRANCH  10  11
BRANCH  15  16
ATOM     16  N   UNL     1      14.018   7.585  19.909  0.00  0.00    -0.268 NA
ATOM     17  C   UNL     1      14.162   8.393  19.987  0.00  0.00    +0.090 C 
BRANCH  16  18
ATOM     18  C   UNL     1      14.632   7.074  19.701  0.00  0.00    +0.079 C 
BRANCH  18  19
ATOM     19  C   UNL     1      15.384   7.376  19.544  0.00  0.00    +0.063 C 
BRANCH  19  20
ATOM     20  C   UNL     1      16.021   6.862  19.437  0.00  0.00    +0.060 A 
ATOM     21  N   UNL     1      16.021   6.329  18.807  0.00  0.00    -0.248 NA
ATOM     22  C   UNL     1      16.657   5.817  18.701  0.00  0.00    +0.098 A 
ATOM     23  C   UNL     1      17.295   5.836  19.224  0.00  0.00    +0.021 A 
ATOM     24  C   UNL     1      17.295   6.369  19.854  0.00  0.00    +0.003 A 
ATOM     25  C   UNL     1      16.659   6.883  19.961  0.00  0.00    +0.015 A 
ENDBRANCH  19  20
ENDBRANCH  18  19
ENDBRANCH  16  18
ENDBRANCH  15  16
BRANCH   8   7
ATOM      7  C   UNL     1      12.684   7.534  18.708  0.00  0.00    +0.146 C 
BRANCH   7   6
ATOM      4  C   UNL     1      12.014   8.009  17.538  0.00  0.00    +0.272 C 
ATOM      5  O   UNL     1      12.692   7.860  17.090  0.00  0.00    -0.271 OA
ATOM      6  N   UNL     1      12.011   7.846  18.346  0.00  0.00    -0.201 NA
BRANCH   4   3
ATOM      3  C   UNL     1      11.342   8.320  17.177  0.00  0.00    +0.229 C 
BRANCH   3   2
ATOM      1  C   UNL     1      10.704   8.873  16.024  0.00  0.00    +0.175 C 
ATOM      2  O   UNL     1      11.348   8.493  16.370  0.00  0.00    -0.342 OA
ENDBRANCH   3   2
ENDBRANCH   4   3
ENDBRANCH   7   6
ENDBRANCH   8   7
TORSDOF 9
ENDMDL
MODEL 10
REMARK VINA RESULT:      -7.1     16.076     19.271
REMARK  Name = 
REMARK  9 active torsions:
REMARK  status: ('A' for Active; 'I' for Inactive)
REMARK    1  A    between atoms: O_2  and  C_3
REMARK    2  A    between atoms: C_3  and  C_4
REMARK    3  A    between atoms: N_6  and  C_7
REMARK    4  A    between atoms: C_7  and  C_8
REMARK    5  A    between atoms: C_10  and  C_11
REMARK    6  A    between atoms: C_15  and  N_16
REMARK    7  A    between atoms: N_16  and  C_18
REMARK    8  A    between atoms: C_18  and  C_19
REMARK    9  A    between atoms: C_19  and  C_20
REMARK                            x       y       z     vdW  Elec       q    Type
REMARK                         _______ _______ _______ _____ _____    ______ ____
ROOT
ATOM      8  C   UNL     1      12.789   7.415  19.171  0.00  0.00    +0.154 C 
ATOM      9  O   UNL     1      12.194   7.352  18.603  0.00  0.00    -0.350 OA
ATOM     10  C   UNL     1      12.478   7.673  17.898  0.00  0.00    +0.180 C 
ATOM     13  C   UNL     1      13.249   7.935  18.031  0.00  0.00    +0.198 C 
ATOM     14  O   UNL     1      13.742   8.293  17.474  0.00  0.00    -0.219 OA
ATOM     15  C   UNL     1      13.442   7.776  18.817  0.00  0.00    +0.120 C 
ENDROOT
BRANCH  10  11
ATOM     11  C   UNL     1      12.064   7.723  17.186  0.00  0.00    +0.214 C 
ATOM     12  O   UNL     1      11.239   7.692  17.187  0.00  0.00    -0.218 OA
ENDBRANCH  10  11
BRANCH  15  16
ATOM     16  N   UNL     1      14.160   7.947  19.185  0.00  0.00    -0.268 NA
ATOM     17  C   UNL     1      14.270   8.674  19.558  0.00  0.00    +0.090 C 
BRANCH  16  18
ATOM     18  C   UNL     1      14.769   7.390  19.178  0.00  0.00    +0.079 C 
BRANCH  18  19
ATOM     19  C   UNL     1      15.520   7.598  19.452  0.00  0.00    +0.063 C 
BRANCH  19  20
ATOM     20  C   UNL     1      16.121   7.033  19.476  0.00  0.00    +0.060 A 
ATOM     21  N   UNL     1      16.198   6.485  18.863  0.00  0.00    -0.248 NA
ATOM     22  C   UNL     1      16.799   5.921  18.888  0.00  0.00    +0.098 A 
ATOM     23  C   UNL     1      17.323   5.904  19.525  0.00  0.00    +0.021 A 
ATOM     24  C   UNL     1      17.245   6.451  20.138  0.00  0.00    +0.003 A 
ATOM     25  C   UNL     1      16.644   7.016  20.114  0.00  0.00    +0.015 A 
ENDBRANCH  19  20
ENDBRANCH  18  19
ENDBRANCH  16  18
ENDBRANCH  15  16
BRANCH   8   7
ATOM      7  C   UNL     1      12.740   7.163  19.954  0.00  0.00    +0.146 C 
BRANCH   7   6
ATOM      4  C   UNL     1      11.979   6.599  21.024  0.00  0.00    +0.272 C 
ATOM      5  O   UNL     1      12.580   6.795  21.555  0.00  0.00    -0.271 OA
ATOM      6  N   UNL     1      12.060   6.782  20.225  0.00  0.00    -0.201 NA
BRANCH   4   3
ATOM      3  C   UNL     1      11.299   6.219  21.294  0.00  0.00    +0.229 C 
BRANCH   3   2
ATOM      1  C   UNL     1      10.677   5.048  21.827  0.00  0.00    +0.175 C 
ATOM      2  O   UNL     1      11.356   5.488  21.674  0.00  0.00    -0.342 OA
ENDBRANCH   3   2
ENDBRANCH   4   3
ENDBRANCH   7   6
ENDBRANCH   8   7
TORSDOF 9
ENDMDL
