MODEL 1
REMARK VINA RESULT:     -11.3      0.000      0.000
REMARK  Name = 
REMARK  8 active torsions:
REMARK  status: ('A' for Active; 'I' for Inactive)
REMARK    1  A    between atoms: C_2  and  C_3
REMARK    2  A    between atoms: C_3  and  C_4
REMARK    3  A    between atoms: C_7  and  C_8
REMARK    4  A    between atoms: C_8  and  C_9
REMARK    5  A    between atoms: C_11  and  C_12
REMARK    6  A    between atoms: C_15  and  C_16
REMARK    7  A    between atoms: C_16  and  N_17
REMARK    8  A    between atoms: C_21  and  C_22
REMARK                            x       y       z     vdW  Elec       q    Type
REMARK                         _______ _______ _______ _____ _____    ______ ____
ROOT
ATOM      9  C   UNL     1      -4.138   2.257  24.719  0.00  0.00    +0.027 C 
ATOM     10  C   UNL     1      -3.492   2.134  24.223  0.00  0.00    +0.005 C 
ATOM     11  C   UNL     1      -3.282   1.367  23.998  0.00  0.00    +0.006 C 
ATOM     15  C   UNL     1      -3.721   0.724  24.272  0.00  0.00    +0.037 C 
ATOM     24  C   UNL     1      -4.368   0.847  24.768  0.00  0.00    -0.034 C 
ATOM     25  C   UNL     1      -4.577   1.613  24.992  0.00  0.00    -0.048 C 
ATOM     26  C   UNL     1      -5.223   1.736  25.489  0.00  0.00    +0.026 C 
ENDROOT
BRANCH  11  12
ATOM     12  C   UNL     1      -2.635   1.245  23.501  0.00  0.00    +0.000 C 
ATOM     13  C   UNL     1      -2.743   1.221  22.684  0.00  0.00    +0.000 C 
ATOM     14  C   UNL     1      -1.882   1.147  23.822  0.00  0.00    +0.000 C 
ENDBRANCH  11  12
BRANCH   9   8
ATOM      8  C   UNL     1      -4.347   3.022  24.943  0.00  0.00    +0.091 C 
BRANCH   8   7
ATOM      4  C   UNL     1      -2.796   4.403  25.439  0.00  0.00    +0.226 A 
ATOM      5  N   UNL     1      -3.046   4.168  26.189  0.00  0.00    -0.112 NA
ATOM      6  N   UNL     1      -3.658   3.622  26.095  0.00  0.00    -0.112 NA
ATOM      7  C   UNL     1      -3.786   3.520  25.286  0.00  0.00    +0.226 A 
ATOM     27  O   UNL     1      -3.254   4.003  24.881  0.00  0.00    -0.423 OA
BRANCH   4   3
ATOM      3  C   UNL     1      -2.195   4.944  25.275  0.00  0.00    +0.087 C 
BRANCH   3   2
ATOM      1  C   UNL     1      -0.843   5.158  24.869  0.00  0.00    +0.001 C 
ATOM      2  C   UNL     1      -1.411   4.692  25.244  0.00  0.00    +0.010 C 
ENDBRANCH   3   2
ENDBRANCH   4   3
ENDBRANCH   8   7
ENDBRANCH   9   8
BRANCH  15  16
ATOM     16  C   UNL     1      -3.512  -0.042  24.047  0.00  0.00    +0.076 C 
BRANCH  16  17
ATOM     17  N   UNL     1      -3.553  -0.657  24.595  0.00  0.00    -0.271 NA
ATOM     18  C   UNL     1      -3.303  -0.625  25.380  0.00  0.00    +0.072 C 
ATOM     19  C   UNL     1      -3.447  -1.361  25.725  0.00  0.00    +0.019 C 
ATOM     20  C   UNL     1      -3.786  -1.848  25.153  0.00  0.00    +0.020 C 
ATOM     21  C   UNL     1      -3.852  -1.413  24.454  0.00  0.00    +0.091 C 
BRANCH  21  22
ATOM     22  C   UNL     1      -4.162  -1.687  23.740  0.00  0.00    +0.198 C 
ATOM     23  O   UNL     1      -4.393  -2.475  23.666  0.00  0.00    -0.219 OA
ENDBRANCH  21  22
ENDBRANCH  16  17
ENDBRANCH  15  16
TORSDOF 8
ENDMDL
MODEL 2
REMARK VINA RESULT:     -10.6      1.355      2.243
REMARK  Name = 
REMARK  8 active torsions:
REMARK  status: ('A' for Active; 'I' for Inactive)
REMARK    1  A    between atoms: C_2  and  C_3
REMARK    2  A    between atoms: C_3  and  C_4
REMARK    3  A    between atoms: C_7  and  C_8
REMARK    4  A    between atoms: C_8  and  C_9
REMARK    5  A    between atoms: C_11  and  C_12
REMARK    6  A    between atoms: C_15  and  C_16
REMARK    7  A    between atoms: C_16  and  N_17
REMARK    8  A    between atoms: C_21  and  C_22
REMARK                            x       y       z     vdW  Elec       q    Type
REMARK                         _______ _______ _______ _____ _____    ______ ____
ROOT
ATOM      9  C   UNL     1      -1.339   0.978  24.533  0.00  0.00    +0.027 C 
ATOM     10  C   UNL     1      -2.062   1.358  24.417  0.00  0.00    +0.005 C 
ATOM     11  C   UNL     1      -2.762   0.921  24.412  0.00  0.00    +0.006 C 
ATOM     15  C   UNL     1      -2.738   0.104  24.523  0.00  0.00    +0.037 C 
ATOM     24  C   UNL     1      -2.016  -0.276  24.639  0.00  0.00    -0.034 C 
ATOM     25  C   UNL     1      -1.316   0.161  24.644  0.00  0.00    -0.048 C 
ATOM     26  C   UNL     1      -0.593  -0.219  24.760  0.00  0.00    +0.026 C 
ENDROOT
BRANCH  11  12
ATOM     12  C   UNL     1      -3.485   1.302  24.296  0.00  0.00    +0.000 C 
ATOM     13  C   UNL     1      -3.754   1.449  23.530  0.00  0.00    +0.000 C 
ATOM     14  C   UNL     1      -3.937   1.535  24.945  0.00  0.00    +0.000 C 
ENDBRANCH  11  12
BRANCH   9   8
ATOM      8  C   UNL     1      -0.639   1.415  24.537  0.00  0.00    +0.091 C 
BRANCH   8   7
ATOM      4  C   UNL     1      -0.641   3.457  25.159  0.00  0.00    +0.226 A 
ATOM      5  N   UNL     1      -0.488   3.073  25.873  0.00  0.00    -0.112 NA
ATOM      6  N   UNL     1      -0.468   2.261  25.727  0.00  0.00    -0.112 NA
ATOM      7  C   UNL     1      -0.610   2.143  24.923  0.00  0.00    +0.226 A 
ATOM     27  O   UNL     1      -0.717   2.882  24.572  0.00  0.00    -0.423 OA
BRANCH   4   3
ATOM      3  C   UNL     1      -0.708   4.272  25.051  0.00  0.00    +0.087 C 
BRANCH   3   2
ATOM      1  C   UNL     1      -1.511   5.453  25.047  0.00  0.00    +0.001 C 
ATOM      2  C   UNL     1      -1.415   4.655  25.234  0.00  0.00    +0.010 C 
ENDBRANCH   3   2
ENDBRANCH   4   3
ENDBRANCH   8   7
ENDBRANCH   9   8
BRANCH  15  16
ATOM     16  C   UNL     1      -3.439  -0.333  24.519  0.00  0.00    +0.076 C 
BRANCH  16  17
ATOM     17  N   UNL     1      -3.463  -1.076  24.873  0.00  0.00    -0.271 NA
ATOM     18  C   UNL     1      -3.185  -1.264  25.627  0.00  0.00    +0.072 C 
ATOM     19  C   UNL     1      -3.319  -2.068  25.756  0.00  0.00    +0.019 C 
ATOM     20  C   UNL     1      -3.679  -2.377  25.082  0.00  0.00    +0.020 C 
ATOM     21  C   UNL     1      -3.768  -1.765  24.536  0.00  0.00    +0.091 C 
BRANCH  21  22
ATOM     22  C   UNL     1      -4.103  -1.830  23.785  0.00  0.00    +0.198 C 
ATOM     23  O   UNL     1      -4.449  -2.541  23.548  0.00  0.00    -0.219 OA
ENDBRANCH  21  22
ENDBRANCH  16  17
ENDBRANCH  15  16
TORSDOF 8
ENDMDL
MODEL 3
REMARK VINA RESULT:     -10.4      1.126      4.684
REMARK  Name = 
REMARK  8 active torsions:
REMARK  status: ('A' for Active; 'I' for Inactive)
REMARK    1  A    between atoms: C_2  and  C_3
REMARK    2  A    between atoms: C_3  and  C_4
REMARK    3  A    between atoms: C_7  and  C_8
REMARK    4  A    between atoms: C_8  and  C_9
REMARK    5  A    between atoms: C_11  and  C_12
REMARK    6  A    between atoms: C_15  and  C_16
REMARK    7  A    between atoms: C_16  and  N_17
REMARK    8  A    between atoms: C_21  and  C_22
REMARK                            x       y       z     vdW  Elec       q    Type
REMARK                         _______ _______ _______ _____ _____    ______ ____
ROOT
ATOM      9  C   UNL     1      -4.206   0.419  24.364  0.00  0.00    +0.027 C 
ATOM     10  C   UNL     1      -3.618   0.601  23.815  0.00  0.00    +0.005 C 
ATOM     11  C   UNL     1      -3.238   1.333  23.845  0.00  0.00    +0.006 C 
ATOM     15  C   UNL     1      -3.447   1.882  24.424  0.00  0.00    +0.037 C 
ATOM     24  C   UNL     1      -4.035   1.700  24.973  0.00  0.00    -0.034 C 
ATOM     25  C   UNL     1      -4.414   0.969  24.943  0.00  0.00    -0.048 C 
ATOM     26  C   UNL     1      -5.002   0.786  25.492  0.00  0.00    +0.026 C 
ENDROOT
BRANCH  11  12
ATOM     12  C   UNL     1      -2.650   1.516  23.295  0.00  0.00    +0.000 C 
ATOM     13  C   UNL     1      -1.860   1.351  23.468  0.00  0.00    +0.000 C 
ATOM     14  C   UNL     1      -2.852   1.862  22.575  0.00  0.00    +0.000 C 
ENDBRANCH  11  12
BRANCH   9   8
ATOM      8  C   UNL     1      -4.586  -0.313  24.334  0.00  0.00    +0.091 C 
BRANCH   8   7
ATOM      4  C   UNL     1      -3.254  -1.971  24.520  0.00  0.00    +0.226 A 
ATOM      5  N   UNL     1      -3.666  -2.174  23.835  0.00  0.00    -0.112 NA
ATOM      6  N   UNL     1      -4.216  -1.577  23.682  0.00  0.00    -0.112 NA
ATOM      7  C   UNL     1      -4.143  -1.006  24.272  0.00  0.00    +0.226 A 
ATOM     27  O   UNL     1      -3.548  -1.249  24.791  0.00  0.00    -0.423 OA
BRANCH   4   3
ATOM      3  C   UNL     1      -2.653  -2.412  24.873  0.00  0.00    +0.087 C 
BRANCH   3   2
ATOM      1  C   UNL     1      -1.231  -2.464  25.000  0.00  0.00    +0.001 C 
ATOM      2  C   UNL     1      -1.906  -2.443  24.526  0.00  0.00    +0.010 C 
ENDBRANCH   3   2
ENDBRANCH   4   3
ENDBRANCH   8   7
ENDBRANCH   9   8
BRANCH  15  16
ATOM     16  C   UNL     1      -3.067   2.615  24.454  0.00  0.00    +0.076 C 
BRANCH  16  17
ATOM     17  N   UNL     1      -3.402   3.236  24.879  0.00  0.00    -0.271 NA
ATOM     18  C   UNL     1      -4.192   3.473  24.850  0.00  0.00    +0.072 C 
ATOM     19  C   UNL     1      -4.285   4.113  25.362  0.00  0.00    +0.019 C 
ATOM     20  C   UNL     1      -3.554   4.272  25.708  0.00  0.00    +0.020 C 
ATOM     21  C   UNL     1      -3.008   3.730  25.410  0.00  0.00    +0.091 C 
BRANCH  21  22
ATOM     22  C   UNL     1      -2.208   3.689  25.607  0.00  0.00    +0.198 C 
ATOM     23  O   UNL     1      -1.796   4.377  25.801  0.00  0.00    -0.219 OA
ENDBRANCH  21  22
ENDBRANCH  16  17
ENDBRANCH  15  16
TORSDOF 8
ENDMDL
MODEL 4
REMARK VINA RESULT:     -10.4      1.304      4.921
REMARK  Name = 
REMARK  8 active torsions:
REMARK  status: ('A' for Active; 'I' for Inactive)
REMARK    1  A    between atoms: C_2  and  C_3
REMARK    2  A    between atoms: C_3  and  C_4
REMARK    3  A    between atoms: C_7  and  C_8
REMARK    4  A    between atoms: C_8  and  C_9
REMARK    5  A    between atoms: C_11  and  C_12
REMARK    6  A    between atoms: C_15  and  C_16
REMARK    7  A    between atoms: C_16  and  N_17
REMARK    8  A    between atoms: C_21  and  C_22
REMARK                            x       y       z     vdW  Elec       q    Type
REMARK                         _______ _______ _______ _____ _____    ______ ____
ROOT
ATOM      9  C   UNL     1      -3.072   1.315  23.878  0.00  0.00    +0.027 C 
ATOM     10  C   UNL     1      -2.356   1.032  24.173  0.00  0.00    +0.005 C 
ATOM     11  C   UNL     1      -1.825   1.549  24.536  0.00  0.00    +0.006 C 
ATOM     15  C   UNL     1      -2.011   2.350  24.603  0.00  0.00    +0.037 C 
ATOM     24  C   UNL     1      -2.728   2.633  24.309  0.00  0.00    -0.034 C 
ATOM     25  C   UNL     1      -3.258   2.116  23.946  0.00  0.00    -0.048 C 
ATOM     26  C   UNL     1      -3.974   2.399  23.651  0.00  0.00    +0.026 C 
ENDROOT
BRANCH  11  12
ATOM     12  C   UNL     1      -1.108   1.265  24.831  0.00  0.00    +0.000 C 
ATOM     13  C   UNL     1      -1.064   0.982  25.604  0.00  0.00    +0.000 C 
ATOM     14  C   UNL     1      -0.437   1.265  24.352  0.00  0.00    +0.000 C 
ENDBRANCH  11  12
BRANCH   9   8
ATOM      8  C   UNL     1      -3.602   0.798  23.516  0.00  0.00    +0.091 C 
BRANCH   8   7
ATOM      4  C   UNL     1      -3.961  -1.180  24.235  0.00  0.00    +0.226 A 
ATOM      5  N   UNL     1      -4.422  -0.735  24.755  0.00  0.00    -0.112 NA
ATOM      6  N   UNL     1      -4.344   0.060  24.549  0.00  0.00    -0.112 NA
ATOM      7  C   UNL     1      -3.834   0.107  23.901  0.00  0.00    +0.226 A 
ATOM     27  O   UNL     1      -3.598  -0.660  23.707  0.00  0.00    -0.423 OA
BRANCH   4   3
ATOM      3  C   UNL     1      -3.878  -2.001  24.242  0.00  0.00    +0.087 C 
BRANCH   3   2
ATOM      1  C   UNL     1      -3.244  -3.165  24.772  0.00  0.00    +0.001 C 
ATOM      2  C   UNL     1      -3.435  -2.365  24.834  0.00  0.00    +0.010 C 
ENDBRANCH   3   2
ENDBRANCH   4   3
ENDBRANCH   8   7
ENDBRANCH   9   8
BRANCH  15  16
ATOM     16  C   UNL     1      -1.480   2.867  24.966  0.00  0.00    +0.076 C 
BRANCH  16  17
ATOM     17  N   UNL     1      -1.751   3.578  25.284  0.00  0.00    -0.271 NA
ATOM     18  C   UNL     1      -2.403   3.671  25.781  0.00  0.00    +0.072 C 
ATOM     19  C   UNL     1      -2.471   4.473  25.965  0.00  0.00    +0.019 C 
ATOM     20  C   UNL     1      -1.862   4.875  25.582  0.00  0.00    +0.020 C 
ATOM     21  C   UNL     1      -1.417   4.323  25.161  0.00  0.00    +0.091 C 
BRANCH  21  22
ATOM     22  C   UNL     1      -0.753   4.486  24.698  0.00  0.00    +0.198 C 
ATOM     23  O   UNL     1      -0.438   5.248  24.685  0.00  0.00    -0.219 OA
ENDBRANCH  21  22
ENDBRANCH  16  17
ENDBRANCH  15  16
TORSDOF 8
ENDMDL
MODEL 5
REMARK VINA RESULT:     -10.1      1.417      5.109
REMARK  Name = 
REMARK  8 active torsions:
REMARK  status: ('A' for Active; 'I' for Inactive)
REMARK    1  A    between atoms: C_2  and  C_3
REMARK    2  A    between atoms: C_3  and  C_4
REMARK    3  A    between atoms: C_7  and  C_8
REMARK    4  A    between atoms: C_8  and  C_9
REMARK    5  A    between atoms: C_11  and  C_12
REMARK    6  A    between atoms: C_15  and  C_16
REMARK    7  A    between atoms: C_16  and  N_17
REMARK    8  A    between atoms: C_21  and  C_22
REMARK                            x       y       z     vdW  Elec       q    Type
REMARK                         _______ _______ _______ _____ _____    ______ ____
ROOT
ATOM      9  C   UNL     1      -1.450   0.718  24.784  0.00  0.00    +0.027 C 
ATOM     10  C   UNL     1      -2.059   0.862  24.246  0.00  0.00    +0.005 C 
ATOM     11  C   UNL     1      -2.372   1.622  24.171  0.00  0.00    +0.006 C 
ATOM     15  C   UNL     1      -2.076   2.237  24.633  0.00  0.00    +0.037 C 
ATOM     24  C   UNL     1      -1.467   2.094  25.171  0.00  0.00    -0.034 C 
ATOM     25  C   UNL     1      -1.154   1.334  25.246  0.00  0.00    -0.048 C 
ATOM     26  C   UNL     1      -0.546   1.191  25.784  0.00  0.00    +0.026 C 
ENDROOT
BRANCH  11  12
ATOM     12  C   UNL     1      -2.982   1.765  23.632  0.00  0.00    +0.000 C 
ATOM     13  C   UNL     1      -2.803   1.946  22.848  0.00  0.00    +0.000 C 
ATOM     14  C   UNL     1      -3.767   1.728  23.880  0.00  0.00    +0.000 C 
ENDBRANCH  11  12
BRANCH   9   8
ATOM      8  C   UNL     1      -1.137  -0.041  24.859  0.00  0.00    +0.091 C 
BRANCH   8   7
ATOM      4  C   UNL     1      -2.412  -1.753  24.821  0.00  0.00    +0.226 A 
ATOM      5  N   UNL     1      -2.401  -1.581  25.628  0.00  0.00    -0.112 NA
ATOM      6  N   UNL     1      -1.921  -0.918  25.740  0.00  0.00    -0.112 NA
ATOM      7  C   UNL     1      -1.637  -0.681  25.003  0.00  0.00    +0.226 A 
ATOM     27  O   UNL     1      -1.940  -1.197  24.435  0.00  0.00    -0.423 OA
BRANCH   4   3
ATOM      3  C   UNL     1      -2.823  -2.372  24.463  0.00  0.00    +0.087 C 
BRANCH   3   2
ATOM      1  C   UNL     1      -4.066  -2.865  23.960  0.00  0.00    +0.001 C 
ATOM      2  C   UNL     1      -3.647  -2.388  24.487  0.00  0.00    +0.010 C 
ENDBRANCH   3   2
ENDBRANCH   4   3
ENDBRANCH   8   7
ENDBRANCH   9   8
BRANCH  15  16
ATOM     16  C   UNL     1      -2.389   2.997  24.557  0.00  0.00    +0.076 C 
BRANCH  16  17
ATOM     17  N   UNL     1      -1.954   3.649  24.811  0.00  0.00    -0.271 NA
ATOM     18  C   UNL     1      -1.183   3.835  24.584  0.00  0.00    +0.072 C 
ATOM     19  C   UNL     1      -0.964   4.532  24.969  0.00  0.00    +0.019 C 
ATOM     20  C   UNL     1      -1.600   4.777  25.433  0.00  0.00    +0.020 C 
ATOM     21  C   UNL     1      -2.211   4.232  25.336  0.00  0.00    +0.091 C 
BRANCH  21  22
ATOM     22  C   UNL     1      -2.951   4.262  25.700  0.00  0.00    +0.198 C 
ATOM     23  O   UNL     1      -3.043   4.669  26.412  0.00  0.00    -0.219 OA
ENDBRANCH  21  22
ENDBRANCH  16  17
ENDBRANCH  15  16
TORSDOF 8
ENDMDL
MODEL 6
REMARK VINA RESULT:     -10.0      1.818      4.092
REMARK  Name = 
REMARK  8 active torsions:
REMARK  status: ('A' for Active; 'I' for Inactive)
REMARK    1  A    between atoms: C_2  and  C_3
REMARK    2  A    between atoms: C_3  and  C_4
REMARK    3  A    between atoms: C_7  and  C_8
REMARK    4  A    between atoms: C_8  and  C_9
REMARK    5  A    between atoms: C_11  and  C_12
REMARK    6  A    between atoms: C_15  and  C_16
REMARK    7  A    between atoms: C_16  and  N_17
REMARK    8  A    between atoms: C_21  and  C_22
REMARK                            x       y       z     vdW  Elec       q    Type
REMARK                         _______ _______ _______ _____ _____    ______ ____
ROOT
ATOM      9  C   UNL     1      -2.991  -0.046  24.609  0.00  0.00    +0.027 C 
ATOM     10  C   UNL     1      -2.746   0.577  24.128  0.00  0.00    +0.005 C 
ATOM     11  C   UNL     1      -3.174   1.283  24.116  0.00  0.00    +0.006 C 
ATOM     15  C   UNL     1      -3.848   1.364  24.585  0.00  0.00    +0.037 C 
ATOM     24  C   UNL     1      -4.093   0.740  25.065  0.00  0.00    -0.034 C 
ATOM     25  C   UNL     1      -3.666   0.035  25.078  0.00  0.00    -0.048 C 
ATOM     26  C   UNL     1      -3.911  -0.588  25.558  0.00  0.00    +0.026 C 
ENDROOT
BRANCH  11  12
ATOM     12  C   UNL     1      -2.927   1.907  23.635  0.00  0.00    +0.000 C 
ATOM     13  C   UNL     1      -3.168   1.938  22.847  0.00  0.00    +0.000 C 
ATOM     14  C   UNL     1      -2.441   2.497  23.943  0.00  0.00    +0.000 C 
ENDBRANCH  11  12
BRANCH   9   8
ATOM      8  C   UNL     1      -2.564  -0.751  24.621  0.00  0.00    +0.091 C 
BRANCH   8   7
ATOM      4  C   UNL     1      -0.452  -0.734  24.309  0.00  0.00    +0.226 A 
ATOM      5  N   UNL     1      -0.492  -0.680  25.131  0.00  0.00    -0.112 NA
ATOM      6  N   UNL     1      -1.288  -0.680  25.348  0.00  0.00    -0.112 NA
ATOM      7  C   UNL     1      -1.740  -0.734  24.660  0.00  0.00    +0.226 A 
ATOM     27  O   UNL     1      -1.223  -0.767  24.018  0.00  0.00    -0.423 OA
BRANCH   4   3
ATOM      3  C   UNL     1       0.238  -0.752  23.857  0.00  0.00    +0.087 C 
BRANCH   3   2
ATOM      1  C   UNL     1       1.117  -0.121  22.924  0.00  0.00    +0.001 C 
ATOM      2  C   UNL     1       0.478  -0.079  23.445  0.00  0.00    +0.010 C 
ENDBRANCH   3   2
ENDBRANCH   4   3
ENDBRANCH   8   7
ENDBRANCH   9   8
BRANCH  15  16
ATOM     16  C   UNL     1      -4.276   2.070  24.573  0.00  0.00    +0.076 C 
BRANCH  16  17
ATOM     17  N   UNL     1      -5.042   2.092  24.875  0.00  0.00    -0.271 NA
ATOM     18  C   UNL     1      -5.631   1.529  24.745  0.00  0.00    +0.072 C 
ATOM     19  C   UNL     1      -6.308   1.770  25.151  0.00  0.00    +0.019 C 
ATOM     20  C   UNL     1      -6.137   2.481  25.532  0.00  0.00    +0.020 C 
ATOM     21  C   UNL     1      -5.355   2.680  25.362  0.00  0.00    +0.091 C 
BRANCH  21  22
ATOM     22  C   UNL     1      -4.955   3.350  25.631  0.00  0.00    +0.198 C 
ATOM     23  O   UNL     1      -5.380   3.986  25.941  0.00  0.00    -0.219 OA
ENDBRANCH  21  22
ENDBRANCH  16  17
ENDBRANCH  15  16
TORSDOF 8
ENDMDL
MODEL 7
REMARK VINA RESULT:      -9.9      2.136      3.326
REMARK  Name = 
REMARK  8 active torsions:
REMARK  status: ('A' for Active; 'I' for Inactive)
REMARK    1  A    between atoms: C_2  and  C_3
REMARK    2  A    between atoms: C_3  and  C_4
REMARK    3  A    between atoms: C_7  and  C_8
REMARK    4  A    between atoms: C_8  and  C_9
REMARK    5  A    between atoms: C_11  and  C_12
REMARK    6  A    between atoms: C_15  and  C_16
REMARK    7  A    between atoms: C_16  and  N_17
REMARK    8  A    between atoms: C_21  and  C_22
REMARK                            x       y       z     vdW  Elec       q    Type
REMARK                         _______ _______ _______ _____ _____    ______ ____
ROOT
ATOM      9  C   UNL     1      -2.782   2.462  23.855  0.00  0.00    +0.027 C 
ATOM     10  C   UNL     1      -2.231   2.825  24.350  0.00  0.00    +0.005 C 
ATOM     11  C   UNL     1      -1.520   2.445  24.527  0.00  0.00    +0.006 C 
ATOM     15  C   UNL     1      -1.360   1.701  24.209  0.00  0.00    +0.037 C 
ATOM     24  C   UNL     1      -1.911   1.337  23.714  0.00  0.00    -0.034 C 
ATOM     25  C   UNL     1      -2.621   1.717  23.537  0.00  0.00    -0.048 C 
ATOM     26  C   UNL     1      -3.172   1.353  23.043  0.00  0.00    +0.026 C 
ENDROOT
BRANCH  11  12
ATOM     12  C   UNL     1      -0.969   2.810  25.022  0.00  0.00    +0.000 C 
ATOM     13  C   UNL     1      -1.006   2.691  25.837  0.00  0.00    +0.000 C 
ATOM     14  C   UNL     1      -0.383   3.293  24.701  0.00  0.00    +0.000 C 
ENDBRANCH  11  12
BRANCH   9   8
ATOM      8  C   UNL     1      -3.492   2.841  23.679  0.00  0.00    +0.091 C 
BRANCH   8   7
ATOM      4  C   UNL     1      -4.885   3.086  25.278  0.00  0.00    +0.226 A 
ATOM      5  N   UNL     1      -4.626   3.862  25.172  0.00  0.00    -0.112 NA
ATOM      6  N   UNL     1      -4.072   3.865  24.560  0.00  0.00    -0.112 NA
ATOM      7  C   UNL     1      -3.989   3.091  24.287  0.00  0.00    +0.226 A 
ATOM     27  O   UNL     1      -4.492   2.609  24.731  0.00  0.00    -0.423 OA
BRANCH   4   3
ATOM      3  C   UNL     1      -5.440   2.832  25.832  0.00  0.00    +0.087 C 
BRANCH   3   2
ATOM      1  C   UNL     1      -6.317   1.817  26.325  0.00  0.00    +0.001 C 
ATOM      2  C   UNL     1      -5.813   2.103  25.737  0.00  0.00    +0.010 C 
ENDBRANCH   3   2
ENDBRANCH   4   3
ENDBRANCH   8   7
ENDBRANCH   9   8
BRANCH  15  16
ATOM     16  C   UNL     1      -0.649   1.321  24.386  0.00  0.00    +0.076 C 
BRANCH  16  17
ATOM     17  N   UNL     1      -0.615   0.498  24.401  0.00  0.00    -0.271 NA
ATOM     18  C   UNL     1      -1.097   0.000  24.848  0.00  0.00    +0.072 C 
ATOM     19  C   UNL     1      -0.873  -0.779  24.695  0.00  0.00    +0.019 C 
ATOM     20  C   UNL     1      -0.252  -0.763  24.152  0.00  0.00    +0.020 C 
ATOM     21  C   UNL     1      -0.093   0.025  23.970  0.00  0.00    +0.091 C 
BRANCH  21  22
ATOM     22  C   UNL     1       0.487   0.296  23.449  0.00  0.00    +0.198 C 
ATOM     23  O   UNL     1       0.982  -0.244  23.068  0.00  0.00    -0.219 OA
ENDBRANCH  21  22
ENDBRANCH  16  17
ENDBRANCH  15  16
TORSDOF 8
ENDMDL
MODEL 8
REMARK VINA RESULT:      -9.8      2.056      4.284
REMARK  Name = 
REMARK  8 active torsions:
REMARK  status: ('A' for Active; 'I' for Inactive)
REMARK    1  A    between atoms: C_2  and  C_3
REMARK    2  A    between atoms: C_3  and  C_4
REMARK    3  A    between atoms: C_7  and  C_8
REMARK    4  A    between atoms: C_8  and  C_9
REMARK    5  A    between atoms: C_11  and  C_12
REMARK    6  A    between atoms: C_15  and  C_16
REMARK    7  A    between atoms: C_16  and  N_17
REMARK    8  A    between atoms: C_21  and  C_22
REMARK                            x       y       z     vdW  Elec       q    Type
REMARK                         _______ _______ _______ _____ _____    ______ ____
ROOT
ATOM      9  C   UNL     1      -2.139   2.227  23.784  0.00  0.00    +0.027 C 
ATOM     10  C   UNL     1      -1.895   2.711  24.406  0.00  0.00    +0.005 C 
ATOM     11  C   UNL     1      -2.454   3.066  24.898  0.00  0.00    +0.006 C 
ATOM     15  C   UNL     1      -3.259   2.936  24.767  0.00  0.00    +0.037 C 
ATOM     24  C   UNL     1      -3.503   2.453  24.145  0.00  0.00    -0.034 C 
ATOM     25  C   UNL     1      -2.944   2.098  23.654  0.00  0.00    -0.048 C 
ATOM     26  C   UNL     1      -3.189   1.615  23.032  0.00  0.00    +0.026 C 
ENDROOT
BRANCH  11  12
ATOM     12  C   UNL     1      -2.209   3.550  25.520  0.00  0.00    +0.000 C 
ATOM     13  C   UNL     1      -2.152   4.365  25.409  0.00  0.00    +0.000 C 
ATOM     14  C   UNL     1      -2.022   3.218  26.251  0.00  0.00    +0.000 C 
ENDBRANCH  11  12
BRANCH   9   8
ATOM      8  C   UNL     1      -1.580   1.873  23.293  0.00  0.00    +0.091 C 
BRANCH   8   7
ATOM      4  C   UNL     1      -0.467   0.243  24.109  0.00  0.00    +0.226 A 
ATOM      5  N   UNL     1       0.111   0.831  24.076  0.00  0.00    -0.112 NA
ATOM      6  N   UNL     1      -0.236   1.513  23.766  0.00  0.00    -0.112 NA
ATOM      7  C   UNL     1      -1.028   1.347  23.607  0.00  0.00    +0.226 A 
ATOM     27  O   UNL     1      -1.172   0.562  23.819  0.00  0.00    -0.423 OA
BRANCH   4   3
ATOM      3  C   UNL     1      -0.361  -0.528  24.382  0.00  0.00    +0.087 C 
BRANCH   3   2
ATOM      1  C   UNL     1      -0.684  -1.560  25.315  0.00  0.00    +0.001 C 
ATOM      2  C   UNL     1      -0.720  -0.769  25.084  0.00  0.00    +0.010 C 
ENDBRANCH   3   2
ENDBRANCH   4   3
ENDBRANCH   8   7
ENDBRANCH   9   8
BRANCH  15  16
ATOM     16  C   UNL     1      -3.818   3.292  25.259  0.00  0.00    +0.076 C 
BRANCH  16  17
ATOM     17  N   UNL     1      -4.549   2.929  25.380  0.00  0.00    -0.271 NA
ATOM     18  C   UNL     1      -4.683   2.118  25.446  0.00  0.00    +0.072 C 
ATOM     19  C   UNL     1      -5.492   2.001  25.564  0.00  0.00    +0.019 C 
ATOM     20  C   UNL     1      -5.857   2.740  25.571  0.00  0.00    +0.020 C 
ATOM     21  C   UNL     1      -5.275   3.314  25.458  0.00  0.00    +0.091 C 
BRANCH  21  22
ATOM     22  C   UNL     1      -5.396   4.130  25.428  0.00  0.00    +0.198 C 
ATOM     23  O   UNL     1      -6.094   4.453  25.726  0.00  0.00    -0.219 OA
ENDBRANCH  21  22
ENDBRANCH  16  17
ENDBRANCH  15  16
TORSDOF 8
ENDMDL
