REMARK  Name = 
REMARK  7 active torsions:
REMARK  status: ('A' for Active; 'I' for Inactive)
REMARK    1  A    between atoms: N_2  and  C_3
REMARK    2  A    between atoms: C_3  and  C_4
REMARK    3  A    between atoms: C_3  and  C_7
REMARK    4  A    between atoms: N_9  and  C_10
REMARK    5  A    between atoms: C_12  and  C_18
REMARK    6  A    between atoms: N_20  and  C_21
REMARK    7  A    between atoms: C_21  and  C_23
REMARK                            x       y       z     vdW  Elec       q    Type
REMARK                         _______ _______ _______ _____ _____    ______ ____
ROOT
ATOM     10  C   UNL     1      -3.572   2.062   0.000  0.00  0.00    +0.150 C 
ATOM     11  C   UNL     1      -2.858   2.475   0.000  0.00  0.00    -0.002 C 
ATOM     12  C   UNL     1      -2.143   2.062   0.000  0.00  0.00    +0.033 C 
ATOM     13  C   UNL     1      -2.143   1.238   0.000  0.00  0.00    +0.066 C 
ATOM     14  C   UNL     1      -2.858   0.825   0.000  0.00  0.00    +0.189 C 
ATOM     15  O   UNL     1      -2.858   0.000   0.000  0.00  0.00    -0.220 OA
ATOM     16  C   UNL     1      -3.572   1.238   0.000  0.00  0.00    +0.206 C 
ATOM     17  O   UNL     1      -4.287   0.825   0.000  0.00  0.00    -0.218 OA
ENDROOT
BRANCH  10   9
ATOM      7  C   UNL     1      -5.001   2.062   0.000  0.00  0.00    +0.258 C 
ATOM      8  O   UNL     1      -5.001   1.238   0.000  0.00  0.00    -0.272 OA
ATOM      9  N   UNL     1      -4.287   2.475   0.000  0.00  0.00    -0.199 NA
BRANCH   7   3
ATOM      3  C   UNL     1      -5.716   2.475   0.000  0.00  0.00    +0.150 C 
BRANCH   3   4
ATOM      4  C   UNL     1      -5.716   3.300   0.000  0.00  0.00    +0.025 C 
ATOM      5  C   UNL     1      -6.430   3.712   0.000  0.00  0.00    +0.002 C 
ATOM      6  C   UNL     1      -5.001   3.712   0.000  0.00  0.00    +0.002 C 
ENDBRANCH   3   4
BRANCH   3   2
ATOM      1  C   UNL     1      -7.145   2.475   0.000  0.00  0.00    +0.108 C 
ATOM      2  N   UNL     1      -6.430   2.062   0.000  0.00  0.00    -0.209 NA
ENDBRANCH   3   2
ENDBRANCH   7   3
ENDBRANCH  10   9
BRANCH  12  18
ATOM     18  C   UNL     1      -1.429   2.475   0.000  0.00  0.00    +0.261 C 
ATOM     19  O   UNL     1      -1.429   3.300   0.000  0.00  0.00    -0.269 OA
ATOM     20  N   UNL     1      -0.715   2.062   0.000  0.00  0.00    -0.194 NA
BRANCH  20  21
ATOM     21  C   UNL     1       0.000   2.475   0.000  0.00  0.00    +0.175 C 
ATOM     22  C   UNL     1       0.000   3.300   0.000  0.00  0.00    +0.033 C 
BRANCH  21  23
ATOM     23  C   UNL     1       0.715   2.062   0.000  0.00  0.00    +0.281 C 
ATOM     24  N   UNL     1       1.429   2.475   0.000  0.00  0.00    -0.086 NA
ATOM     25  O   UNL     1       0.715   1.238   0.000  0.00  0.00    -0.270 OA
ENDBRANCH  21  23
ENDBRANCH  20  21
ENDBRANCH  12  18
TORSDOF 7
