MODEL 1
REMARK VINA RESULT:     -11.1      0.000      0.000
REMARK  Name = 
REMARK  7 active torsions:
REMARK  status: ('A' for Active; 'I' for Inactive)
REMARK    1  A    between atoms: C_2  and  N_4
REMARK    2  A    between atoms: C_11  and  C_13
REMARK    3  A    between atoms: N_15  and  C_16
REMARK    4  A    between atoms: C_16  and  C_17
REMARK    5  A    between atoms: C_16  and  C_27
REMARK    6  A    between atoms: C_17  and  C_18
REMARK    7  A    between atoms: C_30  and  C_32
REMARK                            x       y       z     vdW  Elec       q    Type
REMARK                         _______ _______ _______ _____ _____    ______ ____
ROOT
ATOM      4  N   UNL     1       0.828   0.674  23.248  0.00  0.00    -0.190 NA
ATOM      5  C   UNL     1       0.090   0.465  23.553  0.00  0.00    +0.323 C 
ATOM      6  O   UNL     1      -0.170  -0.317  23.504  0.00  0.00    -0.251 OA
ATOM      7  N   UNL     1      -0.387   1.037  23.906  0.00  0.00    -0.259 N 
ATOM      8  C   UNL     1      -0.127   1.819  23.955  0.00  0.00    +0.117 C 
ATOM      9  C   UNL     1      -0.605   2.390  24.309  0.00  0.00    +0.115 C 
ATOM     10  N   UNL     1      -1.343   2.182  24.614  0.00  0.00    -0.270 N 
ATOM     11  C   UNL     1      -1.603   1.400  24.565  0.00  0.00    +0.174 C 
ATOM     12  C   UNL     1      -1.125   0.828  24.211  0.00  0.00    +0.124 C 
ATOM     30  C   UNL     1      -1.821   2.753  24.967  0.00  0.00    +0.226 C 
ATOM     31  O   UNL     1      -2.559   2.544  25.272  0.00  0.00    -0.275 OA
ENDROOT
BRANCH  30  32
ATOM     32  C   UNL     1      -1.561   3.535  25.016  0.00  0.00    +0.080 C 
ATOM     33  C   UNL     1      -1.963   4.130  24.610  0.00  0.00    +0.028 C 
ATOM     34  C   UNL     1      -1.704   4.911  24.659  0.00  0.00    +0.089 C 
ATOM     35  N   UNL     1      -1.041   5.098  25.114  0.00  0.00    -0.218 NA
ATOM     36  C   UNL     1      -0.639   4.504  25.520  0.00  0.00    +0.089 C 
ATOM     37  C   UNL     1      -0.899   3.722  25.471  0.00  0.00    +0.028 C 
ENDBRANCH  30  32
BRANCH   4   2
ATOM      1  C   UNL     1       1.063  -0.262  22.195  0.00  0.00    +0.023 C 
ATOM      2  C   UNL     1       1.305   0.102  22.894  0.00  0.00    +0.097 C 
ATOM      3  C   UNL     1       2.025  -0.107  23.240  0.00  0.00    +0.023 C 
ENDBRANCH   4   2
BRANCH  11  13
ATOM     13  C   UNL     1      -2.340   1.191  24.869  0.00  0.00    +0.262 C 
ATOM     14  O   UNL     1      -2.505   1.311  25.669  0.00  0.00    -0.271 OA
ATOM     15  N   UNL     1      -2.913   0.861  24.375  0.00  0.00    -0.196 NA
BRANCH  15  16
ATOM     16  C   UNL     1      -3.650   0.652  24.680  0.00  0.00    +0.179 C 
BRANCH  16  27
ATOM     27  C   UNL     1      -4.285   1.176  24.617  0.00  0.00    +0.281 C 
ATOM     28  N   UNL     1      -4.780   1.302  25.266  0.00  0.00    -0.086 NA
ATOM     29  O   UNL     1      -4.425   1.573  23.909  0.00  0.00    -0.270 OA
ENDBRANCH  16  27
BRANCH  16  17
ATOM     17  C   UNL     1      -3.753  -0.079  25.047  0.00  0.00    +0.059 C 
BRANCH  17  18
ATOM     18  C   UNL     1      -3.879  -0.755  24.591  0.00  0.00    +0.001 A 
ATOM     19  C   UNL     1      -4.212  -0.777  23.837  0.00  0.00    +0.095 A 
ATOM     20  N   UNL     1      -4.233  -1.563  23.589  0.00  0.00    -0.244 NA
ATOM     21  C   UNL     1      -3.912  -2.028  24.191  0.00  0.00    +0.081 A 
ATOM     22  C   UNL     1      -3.694  -1.528  24.810  0.00  0.00    +0.015 A 
ATOM     23  C   UNL     1      -3.354  -1.843  25.493  0.00  0.00    +0.001 A 
ATOM     24  C   UNL     1      -3.233  -2.656  25.557  0.00  0.00    +0.000 A 
ATOM     25  C   UNL     1      -3.452  -3.156  24.938  0.00  0.00    +0.002 A 
ATOM     26  C   UNL     1      -3.791  -2.842  24.254  0.00  0.00    +0.019 A 
ENDBRANCH  17  18
ENDBRANCH  16  17
ENDBRANCH  15  16
ENDBRANCH  11  13
TORSDOF 7
ENDMDL
MODEL 2
REMARK VINA RESULT:     -11.0      1.466      4.163
REMARK  Name = 
REMARK  7 active torsions:
REMARK  status: ('A' for Active; 'I' for Inactive)
REMARK    1  A    between atoms: C_2  and  N_4
REMARK    2  A    between atoms: C_11  and  C_13
REMARK    3  A    between atoms: N_15  and  C_16
REMARK    4  A    between atoms: C_16  and  C_17
REMARK    5  A    between atoms: C_16  and  C_27
REMARK    6  A    between atoms: C_17  and  C_18
REMARK    7  A    between atoms: C_30  and  C_32
REMARK                            x       y       z     vdW  Elec       q    Type
REMARK                         _______ _______ _______ _____ _____    ______ ____
ROOT
ATOM      4  N   UNL     1       1.026  -0.362  22.784  0.00  0.00    -0.190 NA
ATOM      5  C   UNL     1       0.755   0.219  23.304  0.00  0.00    +0.323 C 
ATOM      6  O   UNL     1       1.181   0.920  23.398  0.00  0.00    -0.251 OA
ATOM      7  N   UNL     1       0.059   0.100  23.729  0.00  0.00    -0.259 N 
ATOM      8  C   UNL     1      -0.367  -0.600  23.635  0.00  0.00    +0.117 C 
ATOM      9  C   UNL     1      -1.064  -0.719  24.060  0.00  0.00    +0.115 C 
ATOM     10  N   UNL     1      -1.335  -0.139  24.580  0.00  0.00    -0.270 N 
ATOM     11  C   UNL     1      -0.909   0.562  24.674  0.00  0.00    +0.174 C 
ATOM     12  C   UNL     1      -0.212   0.681  24.249  0.00  0.00    +0.124 C 
ATOM     30  C   UNL     1      -2.032  -0.258  25.005  0.00  0.00    +0.226 C 
ATOM     31  O   UNL     1      -2.302   0.323  25.525  0.00  0.00    -0.275 OA
ENDROOT
BRANCH  30  32
ATOM     32  C   UNL     1      -2.458  -0.958  24.911  0.00  0.00    +0.080 C 
ATOM     33  C   UNL     1      -3.101  -0.983  24.395  0.00  0.00    +0.028 C 
ATOM     34  C   UNL     1      -3.527  -1.684  24.300  0.00  0.00    +0.089 C 
ATOM     35  N   UNL     1      -3.310  -2.358  24.723  0.00  0.00    -0.218 NA
ATOM     36  C   UNL     1      -2.667  -2.333  25.239  0.00  0.00    +0.089 C 
ATOM     37  C   UNL     1      -2.241  -1.633  25.334  0.00  0.00    +0.028 C 
ENDBRANCH  30  32
BRANCH   4   2
ATOM      1  C   UNL     1       1.706  -0.239  21.533  0.00  0.00    +0.023 C 
ATOM      2  C   UNL     1       1.723  -0.242  22.359  0.00  0.00    +0.097 C 
ATOM      3  C   UNL     1       2.435  -0.126  22.758  0.00  0.00    +0.023 C 
ENDBRANCH   4   2
BRANCH  11  13
ATOM     13  C   UNL     1      -1.180   1.142  25.194  0.00  0.00    +0.262 C 
ATOM     14  O   UNL     1      -1.274   0.967  25.994  0.00  0.00    -0.271 OA
ATOM     15  N   UNL     1      -1.356   1.898  24.913  0.00  0.00    -0.196 NA
BRANCH  15  16
ATOM     16  C   UNL     1      -1.626   2.478  25.432  0.00  0.00    +0.179 C 
BRANCH  16  27
ATOM     27  C   UNL     1      -1.090   2.997  25.786  0.00  0.00    +0.281 C 
ATOM     28  N   UNL     1      -0.564   3.428  25.317  0.00  0.00    -0.086 NA
ATOM     29  O   UNL     1      -1.079   3.085  26.605  0.00  0.00    -0.270 OA
ENDBRANCH  16  27
BRANCH  16  17
ATOM     17  C   UNL     1      -2.432   2.541  25.599  0.00  0.00    +0.059 C 
BRANCH  17  18
ATOM     18  C   UNL     1      -2.915   3.014  25.127  0.00  0.00    +0.001 A 
ATOM     19  C   UNL     1      -2.677   3.438  24.460  0.00  0.00    +0.095 A 
ATOM     20  N   UNL     1      -3.337   3.832  24.160  0.00  0.00    -0.244 NA
ATOM     21  C   UNL     1      -3.982   3.653  24.641  0.00  0.00    +0.081 A 
ATOM     22  C   UNL     1      -3.721   3.147  25.239  0.00  0.00    +0.015 A 
ATOM     23  C   UNL     1      -4.253   2.873  25.807  0.00  0.00    +0.001 A 
ATOM     24  C   UNL     1      -5.044   3.104  25.779  0.00  0.00    +0.000 A 
ATOM     25  C   UNL     1      -5.304   3.610  25.181  0.00  0.00    +0.002 A 
ATOM     26  C   UNL     1      -4.774   3.884  24.612  0.00  0.00    +0.019 A 
ENDBRANCH  17  18
ENDBRANCH  16  17
ENDBRANCH  15  16
ENDBRANCH  11  13
TORSDOF 7
ENDMDL
MODEL 3
REMARK VINA RESULT:     -10.4      1.126      4.512
REMARK  Name = 
REMARK  7 active torsions:
REMARK  status: ('A' for Active; 'I' for Inactive)
REMARK    1  A    between atoms: C_2  and  N_4
REMARK    2  A    between atoms: C_11  and  C_13
REMARK    3  A    between atoms: N_15  and  C_16
REMARK    4  A    between atoms: C_16  and  C_17
REMARK    5  A    between atoms: C_16  and  C_27
REMARK    6  A    between atoms: C_17  and  C_18
REMARK    7  A    between atoms: C_30  and  C_32
REMARK                            x       y       z     vdW  Elec       q    Type
REMARK                         _______ _______ _______ _____ _____    ______ ____
ROOT
ATOM      4  N   UNL     1       0.207  -0.146  23.446  0.00  0.00    -0.190 NA
ATOM      5  C   UNL     1      -0.351   0.373  23.765  0.00  0.00    +0.323 C 
ATOM      6  O   UNL     1      -0.181   1.178  23.821  0.00  0.00    -0.251 OA
ATOM      7  N   UNL     1      -1.078   0.085  24.027  0.00  0.00    -0.259 N 
ATOM      8  C   UNL     1      -1.248  -0.721  23.971  0.00  0.00    +0.117 C 
ATOM      9  C   UNL     1      -1.976  -1.008  24.234  0.00  0.00    +0.115 C 
ATOM     10  N   UNL     1      -2.533  -0.490  24.552  0.00  0.00    -0.270 N 
ATOM     11  C   UNL     1      -2.363   0.316  24.609  0.00  0.00    +0.174 C 
ATOM     12  C   UNL     1      -1.636   0.603  24.346  0.00  0.00    +0.124 C 
ATOM     30  C   UNL     1      -3.260  -0.778  24.815  0.00  0.00    +0.226 C 
ATOM     31  O   UNL     1      -3.818  -0.259  25.134  0.00  0.00    -0.275 OA
ENDROOT
BRANCH  30  32
ATOM     32  C   UNL     1      -3.430  -1.583  24.759  0.00  0.00    +0.080 C 
ATOM     33  C   UNL     1      -3.834  -1.874  24.100  0.00  0.00    +0.028 C 
ATOM     34  C   UNL     1      -4.004  -2.679  24.044  0.00  0.00    +0.089 C 
ATOM     35  N   UNL     1      -3.770  -3.193  24.646  0.00  0.00    -0.218 NA
ATOM     36  C   UNL     1      -3.367  -2.902  25.303  0.00  0.00    +0.089 C 
ATOM     37  C   UNL     1      -3.197  -2.097  25.360  0.00  0.00    +0.028 C 
ENDBRANCH  30  32
BRANCH   4   2
ATOM      1  C   UNL     1       1.230  -0.094  22.450  0.00  0.00    +0.023 C 
ATOM      2  C   UNL     1       0.934   0.142  23.183  0.00  0.00    +0.097 C 
ATOM      3  C   UNL     1       1.365   0.666  23.653  0.00  0.00    +0.023 C 
ENDBRANCH   4   2
BRANCH  11  13
ATOM     13  C   UNL     1      -2.921   0.833  24.928  0.00  0.00    +0.262 C 
ATOM     14  O   UNL     1      -3.227   0.696  25.681  0.00  0.00    -0.271 OA
ATOM     15  N   UNL     1      -3.172   1.488  24.494  0.00  0.00    -0.196 NA
BRANCH  15  16
ATOM     16  C   UNL     1      -3.729   2.005  24.812  0.00  0.00    +0.179 C 
BRANCH  16  27
ATOM     27  C   UNL     1      -4.531   1.900  24.646  0.00  0.00    +0.281 C 
ATOM     28  N   UNL     1      -5.080   1.883  25.263  0.00  0.00    -0.086 NA
ATOM     29  O   UNL     1      -4.783   1.813  23.867  0.00  0.00    -0.270 OA
ENDBRANCH  16  27
BRANCH  16  17
ATOM     17  C   UNL     1      -3.486   2.627  25.297  0.00  0.00    +0.059 C 
BRANCH  17  18
ATOM     18  C   UNL     1      -3.260   3.347  24.963  0.00  0.00    +0.001 A 
ATOM     19  C   UNL     1      -3.653   3.745  24.357  0.00  0.00    +0.095 A 
ATOM     20  N   UNL     1      -3.237   4.439  24.196  0.00  0.00    -0.244 NA
ATOM     21  C   UNL     1      -2.587   4.469  24.702  0.00  0.00    +0.081 A 
ATOM     22  C   UNL     1      -2.601   3.794  25.176  0.00  0.00    +0.015 A 
ATOM     23  C   UNL     1      -2.011   3.675  25.741  0.00  0.00    +0.001 A 
ATOM     24  C   UNL     1      -1.408   4.230  25.832  0.00  0.00    +0.000 A 
ATOM     25  C   UNL     1      -1.394   4.905  25.357  0.00  0.00    +0.002 A 
ATOM     26  C   UNL     1      -1.983   5.025  24.792  0.00  0.00    +0.019 A 
ENDBRANCH  17  18
ENDBRANCH  16  17
ENDBRANCH  15  16
ENDBRANCH  11  13
TORSDOF 7
ENDMDL
MODEL 4
REMARK VINA RESULT:     -10.4      1.571      4.661
REMARK  Name = 
REMARK  7 active torsions:
REMARK  status: ('A' for Active; 'I' for Inactive)
REMARK    1  A    between atoms: C_2  and  N_4
REMARK    2  A    between atoms: C_11  and  C_13
REMARK    3  A    between atoms: N_15  and  C_16
REMARK    4  A    between atoms: C_16  and  C_17
REMARK    5  A    between atoms: C_16  and  C_27
REMARK    6  A    between atoms: C_17  and  C_18
REMARK    7  A    between atoms: C_30  and  C_32
REMARK                            x       y       z     vdW  Elec       q    Type
REMARK                         _______ _______ _______ _____ _____    ______ ____
ROOT
ATOM      4  N   UNL     1      -3.932  -1.933  24.797  0.00  0.00    -0.190 NA
ATOM      5  C   UNL     1      -3.544  -1.330  24.388  0.00  0.00    +0.323 C 
ATOM      6  O   UNL     1      -2.898  -1.508  23.907  0.00  0.00    -0.251 OA
ATOM      7  N   UNL     1      -3.803  -0.550  24.460  0.00  0.00    -0.259 N 
ATOM      8  C   UNL     1      -4.449  -0.372  24.941  0.00  0.00    +0.117 C 
ATOM      9  C   UNL     1      -4.707   0.408  25.012  0.00  0.00    +0.115 C 
ATOM     10  N   UNL     1      -4.320   1.010  24.603  0.00  0.00    -0.270 N 
ATOM     11  C   UNL     1      -3.673   0.833  24.121  0.00  0.00    +0.174 C 
ATOM     12  C   UNL     1      -3.415   0.052  24.050  0.00  0.00    +0.124 C 
ATOM     30  C   UNL     1      -4.578   1.791  24.674  0.00  0.00    +0.226 C 
ATOM     31  O   UNL     1      -4.190   2.393  24.265  0.00  0.00    -0.275 OA
ENDROOT
BRANCH  30  32
ATOM     32  C   UNL     1      -5.224   1.969  25.155  0.00  0.00    +0.080 C 
ATOM     33  C   UNL     1      -5.105   2.314  25.895  0.00  0.00    +0.028 C 
ATOM     34  C   UNL     1      -5.751   2.492  26.376  0.00  0.00    +0.089 C 
ATOM     35  N   UNL     1      -6.516   2.325  26.117  0.00  0.00    -0.218 NA
ATOM     36  C   UNL     1      -6.635   1.980  25.378  0.00  0.00    +0.089 C 
ATOM     37  C   UNL     1      -5.989   1.802  24.897  0.00  0.00    +0.028 C 
ENDBRANCH  30  32
BRANCH   4   2
ATOM      1  C   UNL     1      -3.181  -3.038  25.303  0.00  0.00    +0.023 C 
ATOM      2  C   UNL     1      -3.673  -2.712  24.726  0.00  0.00    +0.097 C 
ATOM      3  C   UNL     1      -3.905  -3.167  24.077  0.00  0.00    +0.023 C 
ENDBRANCH   4   2
BRANCH  11  13
ATOM     13  C   UNL     1      -3.286   1.435  23.712  0.00  0.00    +0.262 C 
ATOM     14  O   UNL     1      -3.718   2.058  23.389  0.00  0.00    -0.271 OA
ATOM     15  N   UNL     1      -2.465   1.414  23.626  0.00  0.00    -0.196 NA
BRANCH  15  16
ATOM     16  C   UNL     1      -2.078   2.016  23.217  0.00  0.00    +0.179 C 
BRANCH  16  27
ATOM     27  C   UNL     1      -2.128   2.053  22.393  0.00  0.00    +0.281 C 
ATOM     28  N   UNL     1      -2.351   2.758  22.026  0.00  0.00    -0.086 NA
ATOM     29  O   UNL     1      -1.956   1.388  21.939  0.00  0.00    -0.270 OA
ENDBRANCH  16  27
BRANCH  16  17
ATOM     17  C   UNL     1      -1.641   2.581  23.629  0.00  0.00    +0.059 C 
BRANCH  17  18
ATOM     18  C   UNL     1      -0.966   2.357  24.048  0.00  0.00    +0.001 A 
ATOM     19  C   UNL     1      -0.384   1.833  23.785  0.00  0.00    +0.095 A 
ATOM     20  N   UNL     1       0.186   1.769  24.377  0.00  0.00    -0.244 NA
ATOM     21  C   UNL     1      -0.043   2.252  25.005  0.00  0.00    +0.081 A 
ATOM     22  C   UNL     1      -0.755   2.615  24.801  0.00  0.00    +0.015 A 
ATOM     23  C   UNL     1      -1.118   3.135  25.329  0.00  0.00    +0.001 A 
ATOM     24  C   UNL     1      -0.770   3.291  26.060  0.00  0.00    +0.000 A 
ATOM     25  C   UNL     1      -0.058   2.928  26.264  0.00  0.00    +0.002 A 
ATOM     26  C   UNL     1       0.306   2.409  25.737  0.00  0.00    +0.019 A 
ENDBRANCH  17  18
ENDBRANCH  16  17
ENDBRANCH  15  16
ENDBRANCH  11  13
TORSDOF 7
ENDMDL
MODEL 5
REMARK VINA RESULT:     -10.4      1.426      5.803
REMARK  Name = 
REMARK  7 active torsions:
REMARK  status: ('A' for Active; 'I' for Inactive)
REMARK    1  A    between atoms: C_2  and  N_4
REMARK    2  A    between atoms: C_11  and  C_13
REMARK    3  A    between atoms: N_15  and  C_16
REMARK    4  A    between atoms: C_16  and  C_17
REMARK    5  A    between atoms: C_16  and  C_27
REMARK    6  A    between atoms: C_17  and  C_18
REMARK    7  A    between atoms: C_30  and  C_32
REMARK                            x       y       z     vdW  Elec       q    Type
REMARK                         _______ _______ _______ _____ _____    ______ ____
ROOT
ATOM      4  N   UNL     1      -5.593   1.581  25.521  0.00  0.00    -0.190 NA
ATOM      5  C   UNL     1      -4.794   1.664  25.332  0.00  0.00    +0.323 C 
ATOM      6  O   UNL     1      -4.430   2.402  25.392  0.00  0.00    -0.251 OA
ATOM      7  N   UNL     1      -4.359   1.008  25.083  0.00  0.00    -0.259 N 
ATOM      8  C   UNL     1      -4.723   0.270  25.023  0.00  0.00    +0.117 C 
ATOM      9  C   UNL     1      -4.287  -0.385  24.774  0.00  0.00    +0.115 C 
ATOM     10  N   UNL     1      -3.489  -0.302  24.585  0.00  0.00    -0.270 N 
ATOM     11  C   UNL     1      -3.124   0.436  24.645  0.00  0.00    +0.174 C 
ATOM     12  C   UNL     1      -3.560   1.091  24.894  0.00  0.00    +0.124 C 
ATOM     30  C   UNL     1      -3.053  -0.957  24.336  0.00  0.00    +0.226 C 
ATOM     31  O   UNL     1      -2.254  -0.874  24.147  0.00  0.00    -0.275 OA
ENDROOT
BRANCH  30  32
ATOM     32  C   UNL     1      -3.417  -1.695  24.275  0.00  0.00    +0.080 C 
ATOM     33  C   UNL     1      -3.260  -2.280  24.837  0.00  0.00    +0.028 C 
ATOM     34  C   UNL     1      -3.624  -3.018  24.777  0.00  0.00    +0.089 C 
ATOM     35  N   UNL     1      -4.144  -3.171  24.155  0.00  0.00    -0.218 NA
ATOM     36  C   UNL     1      -4.301  -2.588  23.594  0.00  0.00    +0.089 C 
ATOM     37  C   UNL     1      -3.937  -1.850  23.654  0.00  0.00    +0.028 C 
ENDBRANCH  30  32
BRANCH   4   2
ATOM      1  C   UNL     1      -6.190   2.848  25.241  0.00  0.00    +0.023 C 
ATOM      2  C   UNL     1      -6.027   2.236  25.770  0.00  0.00    +0.097 C 
ATOM      3  C   UNL     1      -6.299   2.280  26.548  0.00  0.00    +0.023 C 
ENDBRANCH   4   2
BRANCH  11  13
ATOM     13  C   UNL     1      -2.326   0.519  24.456  0.00  0.00    +0.262 C 
ATOM     14  O   UNL     1      -2.062   0.343  23.694  0.00  0.00    -0.271 OA
ATOM     15  N   UNL     1      -1.791   0.777  25.028  0.00  0.00    -0.196 NA
BRANCH  15  16
ATOM     16  C   UNL     1      -0.992   0.859  24.839  0.00  0.00    +0.179 C 
BRANCH  16  27
ATOM     27  C   UNL     1      -0.476   0.224  24.947  0.00  0.00    +0.281 C 
ATOM     28  N   UNL     1       0.046   0.012  24.343  0.00  0.00    -0.086 NA
ATOM     29  O   UNL     1      -0.481  -0.197  25.655  0.00  0.00    -0.270 OA
ENDBRANCH  16  27
BRANCH  16  17
ATOM     17  C   UNL     1      -0.710   1.576  24.543  0.00  0.00    +0.059 C 
BRANCH  17  18
ATOM     18  C   UNL     1      -0.606   2.219  25.049  0.00  0.00    +0.001 A 
ATOM     19  C   UNL     1      -0.427   2.180  25.854  0.00  0.00    +0.095 A 
ATOM     20  N   UNL     1      -0.373   2.951  26.141  0.00  0.00    -0.244 NA
ATOM     21  C   UNL     1      -0.518   3.467  25.514  0.00  0.00    +0.081 A 
ATOM     22  C   UNL     1      -0.662   3.014  24.839  0.00  0.00    +0.015 A 
ATOM     23  C   UNL     1      -0.825   3.386  24.121  0.00  0.00    +0.001 A 
ATOM     24  C   UNL     1      -0.845   4.209  24.077  0.00  0.00    +0.000 A 
ATOM     25  C   UNL     1      -0.701   4.662  24.752  0.00  0.00    +0.002 A 
ATOM     26  C   UNL     1      -0.538   4.291  25.471  0.00  0.00    +0.019 A 
ENDBRANCH  17  18
ENDBRANCH  16  17
ENDBRANCH  15  16
ENDBRANCH  11  13
TORSDOF 7
ENDMDL
MODEL 6
REMARK VINA RESULT:     -10.1      1.524      4.581
REMARK  Name = 
REMARK  7 active torsions:
REMARK  status: ('A' for Active; 'I' for Inactive)
REMARK    1  A    between atoms: C_2  and  N_4
REMARK    2  A    between atoms: C_11  and  C_13
REMARK    3  A    between atoms: N_15  and  C_16
REMARK    4  A    between atoms: C_16  and  C_17
REMARK    5  A    between atoms: C_16  and  C_27
REMARK    6  A    between atoms: C_17  and  C_18
REMARK    7  A    between atoms: C_30  and  C_32
REMARK                            x       y       z     vdW  Elec       q    Type
REMARK                         _______ _______ _______ _____ _____    ______ ____
ROOT
ATOM      4  N   UNL     1      -2.398  -1.663  24.818  0.00  0.00    -0.190 NA
ATOM      5  C   UNL     1      -2.413  -0.839  24.862  0.00  0.00    +0.323 C 
ATOM      6  O   UNL     1      -3.056  -0.455  25.209  0.00  0.00    -0.251 OA
ATOM      7  N   UNL     1      -1.785  -0.399  24.558  0.00  0.00    -0.259 N 
ATOM      8  C   UNL     1      -1.142  -0.783  24.211  0.00  0.00    +0.117 C 
ATOM      9  C   UNL     1      -0.514  -0.342  23.907  0.00  0.00    +0.115 C 
ATOM     10  N   UNL     1      -0.528   0.481  23.950  0.00  0.00    -0.270 N 
ATOM     11  C   UNL     1      -1.171   0.866  24.298  0.00  0.00    +0.174 C 
ATOM     12  C   UNL     1      -1.799   0.425  24.601  0.00  0.00    +0.124 C 
ATOM     30  C   UNL     1       0.100   0.922  23.646  0.00  0.00    +0.226 C 
ATOM     31  O   UNL     1       0.085   1.746  23.690  0.00  0.00    -0.275 OA
ENDROOT
BRANCH  30  32
ATOM     32  C   UNL     1       0.742   0.538  23.299  0.00  0.00    +0.080 C 
ATOM     33  C   UNL     1       1.487   0.577  23.654  0.00  0.00    +0.028 C 
ATOM     34  C   UNL     1       2.129   0.194  23.307  0.00  0.00    +0.089 C 
ATOM     35  N   UNL     1       2.028  -0.229  22.605  0.00  0.00    -0.218 NA
ATOM     36  C   UNL     1       1.284  -0.267  22.251  0.00  0.00    +0.089 C 
ATOM     37  C   UNL     1       0.642   0.116  22.598  0.00  0.00    +0.028 C 
ENDBRANCH  30  32
BRANCH   4   2
ATOM      1  C   UNL     1      -3.546  -2.489  24.609  0.00  0.00    +0.023 C 
ATOM      2  C   UNL     1      -3.027  -2.103  25.122  0.00  0.00    +0.097 C 
ATOM      3  C   UNL     1      -3.136  -2.157  25.938  0.00  0.00    +0.023 C 
ENDBRANCH   4   2
BRANCH  11  13
ATOM     13  C   UNL     1      -1.185   1.689  24.341  0.00  0.00    +0.262 C 
ATOM     14  O   UNL     1      -1.000   2.140  23.676  0.00  0.00    -0.271 OA
ATOM     15  N   UNL     1      -1.385   2.062  25.049  0.00  0.00    -0.196 NA
BRANCH  15  16
ATOM     16  C   UNL     1      -1.400   2.885  25.092  0.00  0.00    +0.179 C 
BRANCH  16  27
ATOM     27  C   UNL     1      -0.762   3.291  25.424  0.00  0.00    +0.281 C 
ATOM     28  N   UNL     1      -0.463   3.963  25.049  0.00  0.00    -0.086 NA
ATOM     29  O   UNL     1      -0.424   3.026  26.127  0.00  0.00    -0.270 OA
ENDBRANCH  16  27
BRANCH  16  17
ATOM     17  C   UNL     1      -2.050   3.303  24.805  0.00  0.00    +0.059 C 
BRANCH  17  18
ATOM     18  C   UNL     1      -2.680   3.482  25.306  0.00  0.00    +0.001 A 
ATOM     19  C   UNL     1      -2.621   3.726  26.092  0.00  0.00    +0.095 A 
ATOM     20  N   UNL     1      -3.384   3.843  26.381  0.00  0.00    -0.244 NA
ATOM     21  C   UNL     1      -3.915   3.672  25.774  0.00  0.00    +0.081 A 
ATOM     22  C   UNL     1      -3.480   3.449  25.110  0.00  0.00    +0.015 A 
ATOM     23  C   UNL     1      -3.870   3.244  24.412  0.00  0.00    +0.001 A 
ATOM     24  C   UNL     1      -4.694   3.262  24.378  0.00  0.00    +0.000 A 
ATOM     25  C   UNL     1      -5.129   3.486  25.043  0.00  0.00    +0.002 A 
ATOM     26  C   UNL     1      -4.740   3.691  25.741  0.00  0.00    +0.019 A 
ENDBRANCH  17  18
ENDBRANCH  16  17
ENDBRANCH  15  16
ENDBRANCH  11  13
TORSDOF 7
ENDMDL
MODEL 7
REMARK VINA RESULT:     -10.0      1.568      3.631
REMARK  Name = 
REMARK  7 active torsions:
REMARK  status: ('A' for Active; 'I' for Inactive)
REMARK    1  A    between atoms: C_2  and  N_4
REMARK    2  A    between atoms: C_11  and  C_13
REMARK    3  A    between atoms: N_15  and  C_16
REMARK    4  A    between atoms: C_16  and  C_17
REMARK    5  A    between atoms: C_16  and  C_27
REMARK    6  A    between atoms: C_17  and  C_18
REMARK    7  A    between atoms: C_30  and  C_32
REMARK                            x       y       z     vdW  Elec       q    Type
REMARK                         _______ _______ _______ _____ _____    ______ ____
ROOT
ATOM      4  N   UNL     1      -5.198   2.451  25.442  0.00  0.00    -0.190 NA
ATOM      5  C   UNL     1      -4.697   1.827  25.240  0.00  0.00    +0.323 C 
ATOM      6  O   UNL     1      -4.996   1.060  25.181  0.00  0.00    -0.251 OA
ATOM      7  N   UNL     1      -3.897   1.970  25.097  0.00  0.00    -0.259 N 
ATOM      8  C   UNL     1      -3.598   2.736  25.155  0.00  0.00    +0.117 C 
ATOM      9  C   UNL     1      -2.798   2.879  25.012  0.00  0.00    +0.115 C 
ATOM     10  N   UNL     1      -2.298   2.255  24.811  0.00  0.00    -0.270 N 
ATOM     11  C   UNL     1      -2.597   1.488  24.752  0.00  0.00    +0.174 C 
ATOM     12  C   UNL     1      -3.397   1.346  24.895  0.00  0.00    +0.124 C 
ATOM     30  C   UNL     1      -1.498   2.397  24.667  0.00  0.00    +0.226 C 
ATOM     31  O   UNL     1      -0.997   1.773  24.465  0.00  0.00    -0.275 OA
ENDROOT
BRANCH  30  32
ATOM     32  C   UNL     1      -1.198   3.164  24.726  0.00  0.00    +0.080 C 
ATOM     33  C   UNL     1      -1.009   3.478  25.465  0.00  0.00    +0.028 C 
ATOM     34  C   UNL     1      -0.710   4.244  25.524  0.00  0.00    +0.089 C 
ATOM     35  N   UNL     1      -0.600   4.697  24.843  0.00  0.00    -0.218 NA
ATOM     36  C   UNL     1      -0.789   4.384  24.104  0.00  0.00    +0.089 C 
ATOM     37  C   UNL     1      -1.088   3.617  24.045  0.00  0.00    +0.028 C 
ENDBRANCH  30  32
BRANCH   4   2
ATOM      1  C   UNL     1      -6.515   2.193  24.952  0.00  0.00    +0.023 C 
ATOM      2  C   UNL     1      -5.998   2.308  25.585  0.00  0.00    +0.097 C 
ATOM      3  C   UNL     1      -6.280   2.279  26.359  0.00  0.00    +0.023 C 
ENDBRANCH   4   2
BRANCH  11  13
ATOM     13  C   UNL     1      -2.096   0.864  24.550  0.00  0.00    +0.262 C 
ATOM     14  O   UNL     1      -1.624   0.916  23.876  0.00  0.00    -0.271 OA
ATOM     15  N   UNL     1      -2.067   0.189  25.023  0.00  0.00    -0.196 NA
BRANCH  15  16
ATOM     16  C   UNL     1      -1.566  -0.435  24.821  0.00  0.00    +0.179 C 
BRANCH  16  27
ATOM     27  C   UNL     1      -0.808  -0.476  25.146  0.00  0.00    +0.281 C 
ATOM     28  N   UNL     1      -0.158  -0.611  24.655  0.00  0.00    -0.086 NA
ATOM     29  O   UNL     1      -0.701  -0.383  25.957  0.00  0.00    -0.270 OA
ENDBRANCH  16  27
BRANCH  16  17
ATOM     17  C   UNL     1      -1.823  -1.017  24.295  0.00  0.00    +0.059 C 
BRANCH  17  18
ATOM     18  C   UNL     1      -2.232  -1.675  24.576  0.00  0.00    +0.001 A 
ATOM     19  C   UNL     1      -1.997  -2.164  25.198  0.00  0.00    +0.095 A 
ATOM     20  N   UNL     1      -2.568  -2.752  25.291  0.00  0.00    -0.244 NA
ATOM     21  C   UNL     1      -3.155  -2.627  24.726  0.00  0.00    +0.081 A 
ATOM     22  C   UNL     1      -2.948  -1.962  24.284  0.00  0.00    +0.015 A 
ATOM     23  C   UNL     1      -3.439  -1.703  23.673  0.00  0.00    +0.001 A 
ATOM     24  C   UNL     1      -4.136  -2.109  23.504  0.00  0.00    +0.000 A 
ATOM     25  C   UNL     1      -4.344  -2.774  23.946  0.00  0.00    +0.002 A 
ATOM     26  C   UNL     1      -3.854  -3.034  24.557  0.00  0.00    +0.019 A 
ENDBRANCH  17  18
ENDBRANCH  16  17
ENDBRANCH  15  16
ENDBRANCH  11  13
TORSDOF 7
ENDMDL
MODEL 8
REMARK VINA RESULT:      -9.9      1.211      2.179
REMARK  Name = 
REMARK  7 active torsions:
REMARK  status: ('A' for Active; 'I' for Inactive)
REMARK    1  A    between atoms: C_2  and  N_4
REMARK    2  A    between atoms: C_11  and  C_13
REMARK    3  A    between atoms: N_15  and  C_16
REMARK    4  A    between atoms: C_16  and  C_17
REMARK    5  A    between atoms: C_16  and  C_27
REMARK    6  A    between atoms: C_17  and  C_18
REMARK    7  A    between atoms: C_30  and  C_32
REMARK                            x       y       z     vdW  Elec       q    Type
REMARK                         _______ _______ _______ _____ _____    ______ ____
ROOT
ATOM      4  N   UNL     1       1.370   0.454  22.821  0.00  0.00    -0.190 NA
ATOM      5  C   UNL     1       0.783   0.114  23.290  0.00  0.00    +0.323 C 
ATOM      6  O   UNL     1       0.678  -0.704  23.293  0.00  0.00    -0.251 OA
ATOM      7  N   UNL     1       0.299   0.593  23.757  0.00  0.00    -0.259 N 
ATOM      8  C   UNL     1       0.404   1.412  23.754  0.00  0.00    +0.117 C 
ATOM      9  C   UNL     1      -0.080   1.890  24.221  0.00  0.00    +0.115 C 
ATOM     10  N   UNL     1      -0.667   1.551  24.690  0.00  0.00    -0.270 N 
ATOM     11  C   UNL     1      -0.772   0.732  24.693  0.00  0.00    +0.174 C 
ATOM     12  C   UNL     1      -0.288   0.254  24.226  0.00  0.00    +0.124 C 
ATOM     30  C   UNL     1      -1.151   2.030  25.157  0.00  0.00    +0.226 C 
ATOM     31  O   UNL     1      -1.739   1.690  25.626  0.00  0.00    -0.275 OA
ENDROOT
BRANCH  30  32
ATOM     32  C   UNL     1      -1.047   2.848  25.154  0.00  0.00    +0.080 C 
ATOM     33  C   UNL     1      -0.467   3.192  25.630  0.00  0.00    +0.028 C 
ATOM     34  C   UNL     1      -0.362   4.010  25.627  0.00  0.00    +0.089 C 
ATOM     35  N   UNL     1      -0.839   4.485  25.149  0.00  0.00    -0.218 NA
ATOM     36  C   UNL     1      -1.419   4.142  24.674  0.00  0.00    +0.089 C 
ATOM     37  C   UNL     1      -1.523   3.323  24.676  0.00  0.00    +0.028 C 
ENDBRANCH  30  32
BRANCH   4   2
ATOM      1  C   UNL     1       1.546  -0.390  21.681  0.00  0.00    +0.023 C 
ATOM      2  C   UNL     1       1.854  -0.025  22.355  0.00  0.00    +0.097 C 
ATOM      3  C   UNL     1       2.644  -0.140  22.561  0.00  0.00    +0.023 C 
ENDBRANCH   4   2
BRANCH  11  13
ATOM     13  C   UNL     1      -1.359   0.393  25.161  0.00  0.00    +0.262 C 
ATOM     14  O   UNL     1      -1.305   0.433  25.984  0.00  0.00    -0.271 OA
ATOM     15  N   UNL     1      -2.002   0.013  24.809  0.00  0.00    -0.196 NA
BRANCH  15  16
ATOM     16  C   UNL     1      -2.589  -0.326  25.278  0.00  0.00    +0.179 C 
BRANCH  16  27
ATOM     27  C   UNL     1      -2.521  -1.113  25.518  0.00  0.00    +0.281 C 
ATOM     28  N   UNL     1      -2.304  -1.692  24.972  0.00  0.00    -0.086 NA
ATOM     29  O   UNL     1      -2.669  -1.319  26.302  0.00  0.00    -0.270 OA
ENDBRANCH  16  27
BRANCH  16  17
ATOM     17  C   UNL     1      -3.244   0.121  25.506  0.00  0.00    +0.059 C 
BRANCH  17  18
ATOM     18  C   UNL     1      -3.901   0.172  25.011  0.00  0.00    +0.001 A 
ATOM     19  C   UNL     1      -4.068  -0.324  24.373  0.00  0.00    +0.095 A 
ATOM     20  N   UNL     1      -4.777  -0.073  24.034  0.00  0.00    -0.244 NA
ATOM     21  C   UNL     1      -5.049   0.577  24.462  0.00  0.00    +0.081 A 
ATOM     22  C   UNL     1      -4.507   0.729  25.066  0.00  0.00    +0.015 A 
ATOM     23  C   UNL     1      -4.637   1.355  25.588  0.00  0.00    +0.001 A 
ATOM     24  C   UNL     1      -5.306   1.829  25.506  0.00  0.00    +0.000 A 
ATOM     25  C   UNL     1      -5.848   1.677  24.902  0.00  0.00    +0.002 A 
ATOM     26  C   UNL     1      -5.719   1.051  24.380  0.00  0.00    +0.019 A 
ENDBRANCH  17  18
ENDBRANCH  16  17
ENDBRANCH  15  16
ENDBRANCH  11  13
TORSDOF 7
ENDMDL
MODEL 9
REMARK VINA RESULT:      -9.4      1.758      4.040
REMARK  Name = 
REMARK  7 active torsions:
REMARK  status: ('A' for Active; 'I' for Inactive)
REMARK    1  A    between atoms: C_2  and  N_4
REMARK    2  A    between atoms: C_11  and  C_13
REMARK    3  A    between atoms: N_15  and  C_16
REMARK    4  A    between atoms: C_16  and  C_17
REMARK    5  A    between atoms: C_16  and  C_27
REMARK    6  A    between atoms: C_17  and  C_18
REMARK    7  A    between atoms: C_30  and  C_32
REMARK                            x       y       z     vdW  Elec       q    Type
REMARK                         _______ _______ _______ _____ _____    ______ ____
ROOT
ATOM      4  N   UNL     1       0.536   0.186  23.719  0.00  0.00    -0.190 NA
ATOM      5  C   UNL     1      -0.117   0.663  23.558  0.00  0.00    +0.323 C 
ATOM      6  O   UNL     1      -0.012   1.403  23.208  0.00  0.00    -0.251 OA
ATOM      7  N   UNL     1      -0.876   0.401  23.747  0.00  0.00    -0.259 N 
ATOM      8  C   UNL     1      -0.982  -0.339  24.097  0.00  0.00    +0.117 C 
ATOM      9  C   UNL     1      -1.741  -0.601  24.286  0.00  0.00    +0.115 C 
ATOM     10  N   UNL     1      -2.394  -0.124  24.125  0.00  0.00    -0.270 N 
ATOM     11  C   UNL     1      -2.289   0.616  23.774  0.00  0.00    +0.174 C 
ATOM     12  C   UNL     1      -1.530   0.878  23.585  0.00  0.00    +0.124 C 
ATOM     30  C   UNL     1      -3.154  -0.386  24.314  0.00  0.00    +0.226 C 
ATOM     31  O   UNL     1      -3.807   0.092  24.152  0.00  0.00    -0.275 OA
ENDROOT
BRANCH  30  32
ATOM     32  C   UNL     1      -3.259  -1.125  24.664  0.00  0.00    +0.080 C 
ATOM     33  C   UNL     1      -3.251  -1.197  25.486  0.00  0.00    +0.028 C 
ATOM     34  C   UNL     1      -3.357  -1.937  25.836  0.00  0.00    +0.089 C 
ATOM     35  N   UNL     1      -3.471  -2.604  25.365  0.00  0.00    -0.218 NA
ATOM     36  C   UNL     1      -3.479  -2.532  24.543  0.00  0.00    +0.089 C 
ATOM     37  C   UNL     1      -3.373  -1.793  24.193  0.00  0.00    +0.028 C 
ENDBRANCH  30  32
BRANCH   4   2
ATOM      1  C   UNL     1       1.750   0.034  22.980  0.00  0.00    +0.023 C 
ATOM      2  C   UNL     1       1.295   0.449  23.530  0.00  0.00    +0.097 C 
ATOM      3  C   UNL     1       1.600   1.125  23.891  0.00  0.00    +0.023 C 
ENDBRANCH   4   2
BRANCH  11  13
ATOM     13  C   UNL     1      -2.942   1.093  23.613  0.00  0.00    +0.262 C 
ATOM     14  O   UNL     1      -3.525   0.831  23.091  0.00  0.00    -0.271 OA
ATOM     15  N   UNL     1      -3.013   1.832  23.973  0.00  0.00    -0.196 NA
BRANCH  15  16
ATOM     16  C   UNL     1      -3.666   2.308  23.812  0.00  0.00    +0.179 C 
BRANCH  16  27
ATOM     27  C   UNL     1      -3.596   2.938  23.283  0.00  0.00    +0.281 C 
ATOM     28  N   UNL     1      -2.992   3.492  23.380  0.00  0.00    -0.086 NA
ATOM     29  O   UNL     1      -4.129   3.014  22.658  0.00  0.00    -0.270 OA
ENDBRANCH  16  27
BRANCH  16  17
ATOM     17  C   UNL     1      -4.389   2.157  24.180  0.00  0.00    +0.059 C 
BRANCH  17  18
ATOM     18  C   UNL     1      -4.587   2.547  24.879  0.00  0.00    +0.001 A 
ATOM     19  C   UNL     1      -4.161   3.161  25.229  0.00  0.00    +0.095 A 
ATOM     20  N   UNL     1      -4.556   3.385  25.917  0.00  0.00    -0.244 NA
ATOM     21  C   UNL     1      -5.226   2.910  25.992  0.00  0.00    +0.081 A 
ATOM     22  C   UNL     1      -5.245   2.392  25.351  0.00  0.00    +0.015 A 
ATOM     23  C   UNL     1      -5.860   1.846  25.280  0.00  0.00    +0.001 A 
ATOM     24  C   UNL     1      -6.455   1.819  25.850  0.00  0.00    +0.000 A 
ATOM     25  C   UNL     1      -6.436   2.337  26.491  0.00  0.00    +0.002 A 
ATOM     26  C   UNL     1      -5.822   2.883  26.563  0.00  0.00    +0.019 A 
ENDBRANCH  17  18
ENDBRANCH  16  17
ENDBRANCH  15  16
ENDBRANCH  11  13
TORSDOF 7
ENDMDL
MODEL 10
REMARK VINA RESULT:      -9.2      1.367      4.569
REMARK  Name = 
REMARK  7 active torsions:
REMARK  status: ('A' for Active; 'I' for Inactive)
REMARK    1  A    between atoms: C_2  and  N_4
REMARK    2  A    between atoms: C_11  and  C_13
REMARK    3  A    between atoms: N_15  and  C_16
REMARK    4  A    between atoms: C_16  and  C_17
REMARK    5  A    between atoms: C_16  and  C_27
REMARK    6  A    between atoms: C_17  and  C_18
REMARK    7  A    between atoms: C_30  and  C_32
REMARK                            x       y       z     vdW  Elec       q    Type
REMARK                         _______ _______ _______ _____ _____    ______ ____
ROOT
ATOM      4  N   UNL     1      -2.716  -2.130  24.925  0.00  0.00    -0.190 NA
ATOM      5  C   UNL     1      -3.051  -1.408  24.707  0.00  0.00    +0.323 C 
ATOM      6  O   UNL     1      -3.867  -1.302  24.750  0.00  0.00    -0.251 OA
ATOM      7  N   UNL     1      -2.567  -0.793  24.445  0.00  0.00    -0.259 N 
ATOM      8  C   UNL     1      -1.750  -0.899  24.402  0.00  0.00    +0.117 C 
ATOM      9  C   UNL     1      -1.268  -0.283  24.141  0.00  0.00    +0.115 C 
ATOM     10  N   UNL     1      -1.601   0.439  23.923  0.00  0.00    -0.270 N 
ATOM     11  C   UNL     1      -2.419   0.546  23.966  0.00  0.00    +0.174 C 
ATOM     12  C   UNL     1      -2.902  -0.070  24.227  0.00  0.00    +0.124 C 
ATOM     30  C   UNL     1      -1.119   1.055  23.661  0.00  0.00    +0.226 C 
ATOM     31  O   UNL     1      -1.453   1.777  23.443  0.00  0.00    -0.275 OA
ENDROOT
BRANCH  30  32
ATOM     32  C   UNL     1      -0.302   0.949  23.618  0.00  0.00    +0.080 C 
ATOM     33  C   UNL     1       0.194   1.337  24.152  0.00  0.00    +0.028 C 
ATOM     34  C   UNL     1       1.010   1.231  24.109  0.00  0.00    +0.089 C 
ATOM     35  N   UNL     1       1.332   0.736  23.532  0.00  0.00    -0.218 NA
ATOM     36  C   UNL     1       0.837   0.348  22.999  0.00  0.00    +0.089 C 
ATOM     37  C   UNL     1       0.020   0.454  23.042  0.00  0.00    +0.028 C 
ENDBRANCH  30  32
BRANCH   4   2
ATOM      1  C   UNL     1      -3.244  -2.922  25.991  0.00  0.00    +0.023 C 
ATOM      2  C   UNL     1      -3.199  -2.746  25.186  0.00  0.00    +0.097 C 
ATOM      3  C   UNL     1      -3.638  -3.185  24.643  0.00  0.00    +0.023 C 
ENDBRANCH   4   2
BRANCH  11  13
ATOM     13  C   UNL     1      -2.753   1.267  23.747  0.00  0.00    +0.262 C 
ATOM     14  O   UNL     1      -2.668   1.544  22.975  0.00  0.00    -0.271 OA
ATOM     15  N   UNL     1      -3.171   1.713  24.301  0.00  0.00    -0.196 NA
BRANCH  15  16
ATOM     16  C   UNL     1      -3.505   2.435  24.083  0.00  0.00    +0.179 C 
BRANCH  16  27
ATOM     27  C   UNL     1      -4.296   2.469  23.849  0.00  0.00    +0.281 C 
ATOM     28  N   UNL     1      -4.878   2.111  24.313  0.00  0.00    -0.086 NA
ATOM     29  O   UNL     1      -4.505   2.859  23.154  0.00  0.00    -0.270 OA
ENDBRANCH  16  27
BRANCH  16  17
ATOM     17  C   UNL     1      -3.049   3.122  24.098  0.00  0.00    +0.059 C 
BRANCH  17  18
ATOM     18  C   UNL     1      -2.974   3.553  24.797  0.00  0.00    +0.001 A 
ATOM     19  C   UNL     1      -3.441   3.467  25.472  0.00  0.00    +0.095 A 
ATOM     20  N   UNL     1      -3.174   4.006  26.037  0.00  0.00    -0.244 NA
ATOM     21  C   UNL     1      -2.544   4.425  25.711  0.00  0.00    +0.081 A 
ATOM     22  C   UNL     1      -2.420   4.145  24.945  0.00  0.00    +0.015 A 
ATOM     23  C   UNL     1      -1.818   4.466  24.481  0.00  0.00    +0.001 A 
ATOM     24  C   UNL     1      -1.340   5.067  24.783  0.00  0.00    +0.000 A 
ATOM     25  C   UNL     1      -1.464   5.347  25.549  0.00  0.00    +0.002 A 
ATOM     26  C   UNL     1      -2.065   5.026  26.013  0.00  0.00    +0.019 A 
ENDBRANCH  17  18
ENDBRANCH  16  17
ENDBRANCH  15  16
ENDBRANCH  11  13
TORSDOF 7
ENDMDL
