MODEL 1
REMARK VINA RESULT:      -9.4      0.000      0.000
REMARK  Name = 
REMARK  5 active torsions:
REMARK  status: ('A' for Active; 'I' for Inactive)
REMARK    1  A    between atoms: O_2  and  C_3
REMARK    2  A    between atoms: C_6  and  C_7
REMARK    3  A    between atoms: C_7  and  C_8
REMARK    4  A    between atoms: N_17  and  C_18
REMARK    5  A    between atoms: C_18  and  C_19
REMARK                            x       y       z     vdW  Elec       q    Type
REMARK                         _______ _______ _______ _____ _____    ______ ____
ROOT
ATOM      8  C   UNL     1       0.051   0.203  23.533  0.00  0.00    +0.230 C 
ATOM      9  O   UNL     1       0.048   0.881  23.064  0.00  0.00    -0.275 OA
ATOM     10  N   UNL     1      -0.625  -0.011  23.955  0.00  0.00    -0.279 N 
ATOM     11  C   UNL     1      -0.621  -0.689  24.424  0.00  0.00    +0.093 C 
ATOM     12  C   UNL     1      -1.297  -0.904  24.846  0.00  0.00    +0.022 C 
ATOM     13  C   UNL     1      -1.977  -0.438  24.799  0.00  0.00    +0.012 C 
ATOM     14  C   UNL     1      -2.586  -0.748  25.261  0.00  0.00    +0.085 C 
ATOM     15  C   UNL     1      -3.350  -0.455  25.368  0.00  0.00    +0.226 C 
ATOM     16  O   UNL     1      -3.835  -0.895  25.870  0.00  0.00    -0.275 OA
ATOM     17  N   UNL     1      -3.693   0.220  25.040  0.00  0.00    -0.275 N 
ATOM     28  C   UNL     1      -3.357   0.768  24.524  0.00  0.00    +0.094 C 
ATOM     29  C   UNL     1      -2.595   0.778  24.208  0.00  0.00    +0.023 C 
ATOM     30  C   UNL     1      -1.981   0.241  24.331  0.00  0.00    +0.022 C 
ATOM     31  C   UNL     1      -1.304   0.454  23.909  0.00  0.00    +0.093 C 
ENDROOT
BRANCH   8   7
ATOM      7  C   UNL     1       0.731  -0.262  23.580  0.00  0.00    +0.112 C 
BRANCH   7   6
ATOM      3  C   UNL     1       2.813   0.470  22.460  0.00  0.00    +0.139 A 
ATOM      4  C   UNL     1       2.595   0.802  23.183  0.00  0.00    +0.037 A 
ATOM      5  C   UNL     1       1.901   0.558  23.556  0.00  0.00    -0.001 A 
ATOM      6  C   UNL     1       1.425  -0.018  23.207  0.00  0.00    -0.013 A 
ATOM     32  C   UNL     1       1.643  -0.350  22.484  0.00  0.00    -0.001 A 
ATOM     33  C   UNL     1       2.337  -0.106  22.110  0.00  0.00    +0.037 A 
BRANCH   3   2
ATOM      1  C   UNL     1       4.175   0.899  22.535  0.00  0.00    +0.252 C 
ATOM      2  O   UNL     1       3.507   0.713  22.087  0.00  0.00    -0.471 OA
ENDBRANCH   3   2
ENDBRANCH   7   6
ENDBRANCH   8   7
BRANCH  17  18
ATOM     18  C   UNL     1      -4.476   0.365  25.257  0.00  0.00    +0.120 C 
BRANCH  18  19
ATOM     19  C   UNL     1      -4.785   1.128  25.196  0.00  0.00    +0.001 A 
ATOM     20  C   UNL     1      -5.351   1.298  24.621  0.00  0.00    +0.001 A 
ATOM     21  C   UNL     1      -5.661   2.060  24.559  0.00  0.00    +0.040 A 
ATOM     22  C   UNL     1      -5.404   2.652  25.075  0.00  0.00    +0.176 A 
ATOM     23  O   UNL     1      -5.609   3.448  25.146  0.00  0.00    -0.435 OA
ATOM     24  C   UNL     1      -5.170   3.769  25.766  0.00  0.00    +0.429 C 
ATOM     25  O   UNL     1      -4.694   3.171  26.078  0.00  0.00    -0.435 OA
ATOM     26  C   UNL     1      -4.839   2.481  25.651  0.00  0.00    +0.176 A 
ATOM     27  C   UNL     1      -4.529   1.719  25.711  0.00  0.00    +0.038 A 
ENDBRANCH  18  19
ENDBRANCH  17  18
TORSDOF 5
ENDMDL
MODEL 2
REMARK VINA RESULT:      -9.2      2.020      3.153
REMARK  Name = 
REMARK  5 active torsions:
REMARK  status: ('A' for Active; 'I' for Inactive)
REMARK    1  A    between atoms: O_2  and  C_3
REMARK    2  A    between atoms: C_6  and  C_7
REMARK    3  A    between atoms: C_7  and  C_8
REMARK    4  A    between atoms: N_17  and  C_18
REMARK    5  A    between atoms: C_18  and  C_19
REMARK                            x       y       z     vdW  Elec       q    Type
REMARK                         _______ _______ _______ _____ _____    ______ ____
ROOT
ATOM      8  C   UNL     1       1.753   0.186  22.977  0.00  0.00    +0.230 C 
ATOM      9  O   UNL     1       1.868  -0.603  22.767  0.00  0.00    -0.275 OA
ATOM     10  N   UNL     1       1.072   0.408  23.387  0.00  0.00    -0.279 N 
ATOM     11  C   UNL     1       0.957   1.198  23.597  0.00  0.00    +0.093 C 
ATOM     12  C   UNL     1       0.276   1.421  24.007  0.00  0.00    +0.022 C 
ATOM     13  C   UNL     1      -0.290   0.854  24.206  0.00  0.00    +0.012 C 
ATOM     14  C   UNL     1      -0.924   1.192  24.612  0.00  0.00    +0.085 C 
ATOM     15  C   UNL     1      -1.599   0.822  24.908  0.00  0.00    +0.226 C 
ATOM     16  O   UNL     1      -2.138   1.316  25.291  0.00  0.00    -0.275 OA
ATOM     17  N   UNL     1      -1.808   0.025  24.871  0.00  0.00    -0.275 N 
ATOM     28  C   UNL     1      -1.392  -0.600  24.529  0.00  0.00    +0.094 C 
ATOM     29  C   UNL     1      -0.665  -0.583  24.140  0.00  0.00    +0.023 C 
ATOM     30  C   UNL     1      -0.175   0.064  23.996  0.00  0.00    +0.022 C 
ATOM     31  C   UNL     1       0.506  -0.158  23.586  0.00  0.00    +0.093 C 
ENDROOT
BRANCH   8   7
ATOM      7  C   UNL     1       2.318   0.752  22.778  0.00  0.00    +0.112 C 
BRANCH   7   6
ATOM      3  C   UNL     1       4.726   0.249  23.046  0.00  0.00    +0.139 A 
ATOM      4  C   UNL     1       4.166  -0.347  23.154  0.00  0.00    +0.037 A 
ATOM      5  C   UNL     1       3.363  -0.179  23.065  0.00  0.00    -0.001 A 
ATOM      6  C   UNL     1       3.121   0.584  22.868  0.00  0.00    -0.013 A 
ATOM     32  C   UNL     1       3.681   1.180  22.760  0.00  0.00    -0.001 A 
ATOM     33  C   UNL     1       4.484   1.013  22.849  0.00  0.00    +0.037 A 
BRANCH   3   2
ATOM      1  C   UNL     1       5.799  -0.297  23.817  0.00  0.00    +0.252 C 
ATOM      2  O   UNL     1       5.529   0.082  23.136  0.00  0.00    -0.471 OA
ENDBRANCH   3   2
ENDBRANCH   7   6
ENDBRANCH   8   7
BRANCH  17  18
ATOM     18  C   UNL     1      -2.528  -0.173  25.223  0.00  0.00    +0.120 C 
BRANCH  18  19
ATOM     19  C   UNL     1      -3.050  -0.681  24.835  0.00  0.00    +0.001 A 
ATOM     20  C   UNL     1      -3.615  -0.375  24.318  0.00  0.00    +0.001 A 
ATOM     21  C   UNL     1      -4.137  -0.881  23.929  0.00  0.00    +0.040 A 
ATOM     22  C   UNL     1      -4.094  -1.696  24.058  0.00  0.00    +0.176 A 
ATOM     23  O   UNL     1      -4.531  -2.326  23.756  0.00  0.00    -0.435 OA
ATOM     24  C   UNL     1      -4.237  -3.022  24.086  0.00  0.00    +0.429 C 
ATOM     25  O   UNL     1      -3.617  -2.822  24.593  0.00  0.00    -0.435 OA
ATOM     26  C   UNL     1      -3.529  -2.002  24.575  0.00  0.00    +0.176 A 
ATOM     27  C   UNL     1      -3.007  -1.494  24.963  0.00  0.00    +0.038 A 
ENDBRANCH  18  19
ENDBRANCH  17  18
TORSDOF 5
ENDMDL
MODEL 3
REMARK VINA RESULT:      -9.1      1.297      1.804
REMARK  Name = 
REMARK  5 active torsions:
REMARK  status: ('A' for Active; 'I' for Inactive)
REMARK    1  A    between atoms: O_2  and  C_3
REMARK    2  A    between atoms: C_6  and  C_7
REMARK    3  A    between atoms: C_7  and  C_8
REMARK    4  A    between atoms: N_17  and  C_18
REMARK    5  A    between atoms: C_18  and  C_19
REMARK                            x       y       z     vdW  Elec       q    Type
REMARK                         _______ _______ _______ _____ _____    ______ ____
ROOT
ATOM      8  C   UNL     1       1.700   0.659  23.211  0.00  0.00    +0.230 C 
ATOM      9  O   UNL     1       1.967   1.424  23.367  0.00  0.00    -0.275 OA
ATOM     10  N   UNL     1       0.939   0.434  23.438  0.00  0.00    -0.279 N 
ATOM     11  C   UNL     1       0.672  -0.331  23.282  0.00  0.00    +0.093 C 
ATOM     12  C   UNL     1      -0.088  -0.557  23.509  0.00  0.00    +0.022 C 
ATOM     13  C   UNL     1      -0.581  -0.018  23.892  0.00  0.00    +0.012 C 
ATOM     14  C   UNL     1      -1.314  -0.354  24.070  0.00  0.00    +0.085 C 
ATOM     15  C   UNL     1      -1.960  -0.007  24.449  0.00  0.00    +0.226 C 
ATOM     16  O   UNL     1      -2.619  -0.492  24.546  0.00  0.00    -0.275 OA
ATOM     17  N   UNL     1      -2.033   0.760  24.742  0.00  0.00    -0.275 N 
ATOM     28  C   UNL     1      -1.478   1.370  24.730  0.00  0.00    +0.094 C 
ATOM     29  C   UNL     1      -0.713   1.365  24.422  0.00  0.00    +0.023 C 
ATOM     30  C   UNL     1      -0.314   0.747  24.049  0.00  0.00    +0.022 C 
ATOM     31  C   UNL     1       0.447   0.972  23.821  0.00  0.00    +0.093 C 
ENDROOT
BRANCH   8   7
ATOM      7  C   UNL     1       2.193   0.120  22.828  0.00  0.00    +0.112 C 
BRANCH   7   6
ATOM      3  C   UNL     1       4.650   0.298  23.070  0.00  0.00    +0.139 A 
ATOM      4  C   UNL     1       4.232   0.885  22.669  0.00  0.00    +0.037 A 
ATOM      5  C   UNL     1       3.413   0.825  22.588  0.00  0.00    -0.001 A 
ATOM      6  C   UNL     1       3.012   0.180  22.908  0.00  0.00    -0.013 A 
ATOM     32  C   UNL     1       3.430  -0.407  23.310  0.00  0.00    -0.001 A 
ATOM     33  C   UNL     1       4.249  -0.349  23.391  0.00  0.00    +0.037 A 
BRANCH   3   2
ATOM      1  C   UNL     1       5.834   0.098  23.844  0.00  0.00    +0.252 C 
ATOM      2  O   UNL     1       5.469   0.356  23.151  0.00  0.00    -0.471 OA
ENDBRANCH   3   2
ENDBRANCH   7   6
ENDBRANCH   8   7
BRANCH  17  18
ATOM     18  C   UNL     1      -2.757   0.941  25.095  0.00  0.00    +0.120 C 
BRANCH  18  19
ATOM     19  C   UNL     1      -3.164   1.623  24.873  0.00  0.00    +0.001 A 
ATOM     20  C   UNL     1      -3.587   1.639  24.165  0.00  0.00    +0.001 A 
ATOM     21  C   UNL     1      -3.994   2.321  23.942  0.00  0.00    +0.040 A 
ATOM     22  C   UNL     1      -3.978   2.988  24.429  0.00  0.00    +0.176 A 
ATOM     23  O   UNL     1      -4.324   3.733  24.354  0.00  0.00    -0.435 OA
ATOM     24  C   UNL     1      -4.115   4.178  25.016  0.00  0.00    +0.429 C 
ATOM     25  O   UNL     1      -3.640   3.707  25.500  0.00  0.00    -0.435 OA
ATOM     26  C   UNL     1      -3.555   2.972  25.137  0.00  0.00    +0.176 A 
ATOM     27  C   UNL     1      -3.148   2.289  25.359  0.00  0.00    +0.038 A 
ENDBRANCH  18  19
ENDBRANCH  17  18
TORSDOF 5
ENDMDL
MODEL 4
REMARK VINA RESULT:      -8.7     15.146     16.892
REMARK  Name = 
REMARK  5 active torsions:
REMARK  status: ('A' for Active; 'I' for Inactive)
REMARK    1  A    between atoms: O_2  and  C_3
REMARK    2  A    between atoms: C_6  and  C_7
REMARK    3  A    between atoms: C_7  and  C_8
REMARK    4  A    between atoms: N_17  and  C_18
REMARK    5  A    between atoms: C_18  and  C_19
REMARK                            x       y       z     vdW  Elec       q    Type
REMARK                         _______ _______ _______ _____ _____    ______ ____
ROOT
ATOM      8  C   UNL     1      -5.416 -10.372  15.228  0.00  0.00    +0.230 C 
ATOM      9  O   UNL     1      -6.185 -10.310  14.934  0.00  0.00    -0.275 OA
ATOM     10  N   UNL     1      -4.781 -10.445  14.706  0.00  0.00    -0.279 N 
ATOM     11  C   UNL     1      -4.012 -10.507  15.000  0.00  0.00    +0.093 C 
ATOM     12  C   UNL     1      -3.376 -10.580  14.480  0.00  0.00    +0.022 C 
ATOM     13  C   UNL     1      -3.509 -10.592  13.665  0.00  0.00    +0.012 C 
ATOM     14  C   UNL     1      -2.803 -10.668  13.246  0.00  0.00    +0.085 C 
ATOM     15  C   UNL     1      -2.691 -10.702  12.429  0.00  0.00    +0.226 C 
ATOM     16  O   UNL     1      -1.909 -10.781  12.179  0.00  0.00    -0.275 OA
ATOM     17  N   UNL     1      -3.257 -10.668  11.830  0.00  0.00    -0.275 N 
ATOM     28  C   UNL     1      -4.075 -10.592  11.901  0.00  0.00    +0.094 C 
ATOM     29  C   UNL     1      -4.530 -10.530  12.586  0.00  0.00    +0.023 C 
ATOM     30  C   UNL     1      -4.278 -10.530  13.372  0.00  0.00    +0.022 C 
ATOM     31  C   UNL     1      -4.913 -10.457  13.893  0.00  0.00    +0.093 C 
ENDROOT
BRANCH   8   7
ATOM      7  C   UNL     1      -5.284 -10.360  16.041  0.00  0.00    +0.112 C 
BRANCH   7   6
ATOM      3  C   UNL     1      -7.162  -9.935  17.597  0.00  0.00    +0.139 A 
ATOM      4  C   UNL     1      -6.734 -10.638  17.650  0.00  0.00    +0.037 A 
ATOM      5  C   UNL     1      -6.108 -10.780  17.131  0.00  0.00    -0.001 A 
ATOM      6  C   UNL     1      -5.910 -10.219  16.560  0.00  0.00    -0.013 A 
ATOM     32  C   UNL     1      -6.338  -9.516  16.507  0.00  0.00    -0.001 A 
ATOM     33  C   UNL     1      -6.964  -9.373  17.025  0.00  0.00    +0.037 A 
BRANCH   3   2
ATOM      1  C   UNL     1      -8.563  -9.949  17.879  0.00  0.00    +0.252 C 
ATOM      2  O   UNL     1      -7.788  -9.792  18.115  0.00  0.00    -0.471 OA
ENDBRANCH   3   2
ENDBRANCH   7   6
ENDBRANCH   8   7
BRANCH  17  18
ATOM     18  C   UNL     1      -2.967 -10.717  11.060  0.00  0.00    +0.120 C 
BRANCH  18  19
ATOM     19  C   UNL     1      -3.297 -10.251  10.465  0.00  0.00    +0.001 A 
ATOM     20  C   UNL     1      -3.084  -9.457  10.397  0.00  0.00    +0.001 A 
ATOM     21  C   UNL     1      -3.414  -8.990   9.802  0.00  0.00    +0.040 A 
ATOM     22  C   UNL     1      -3.958  -9.318   9.275  0.00  0.00    +0.176 A 
ATOM     23  O   UNL     1      -4.371  -8.996   8.638  0.00  0.00    -0.435 OA
ATOM     24  C   UNL     1      -4.840  -9.590   8.312  0.00  0.00    +0.429 C 
ATOM     25  O   UNL     1      -4.716 -10.281   8.748  0.00  0.00    -0.435 OA
ATOM     26  C   UNL     1      -4.171 -10.112   9.342  0.00  0.00    +0.176 A 
ATOM     27  C   UNL     1      -3.840 -10.578   9.938  0.00  0.00    +0.038 A 
ENDBRANCH  18  19
ENDBRANCH  17  18
TORSDOF 5
ENDMDL
MODEL 5
REMARK VINA RESULT:      -8.4      1.829      7.058
REMARK  Name = 
REMARK  5 active torsions:
REMARK  status: ('A' for Active; 'I' for Inactive)
REMARK    1  A    between atoms: O_2  and  C_3
REMARK    2  A    between atoms: C_6  and  C_7
REMARK    3  A    between atoms: C_7  and  C_8
REMARK    4  A    between atoms: N_17  and  C_18
REMARK    5  A    between atoms: C_18  and  C_19
REMARK                            x       y       z     vdW  Elec       q    Type
REMARK                         _______ _______ _______ _____ _____    ______ ____
ROOT
ATOM      8  C   UNL     1      -1.019   1.973  24.950  0.00  0.00    +0.230 C 
ATOM      9  O   UNL     1      -0.694   2.704  25.153  0.00  0.00    -0.275 OA
ATOM     10  N   UNL     1      -0.586   1.444  24.487  0.00  0.00    -0.279 N 
ATOM     11  C   UNL     1      -0.911   0.713  24.284  0.00  0.00    +0.093 C 
ATOM     12  C   UNL     1      -0.479   0.184  23.822  0.00  0.00    +0.022 C 
ATOM     13  C   UNL     1       0.278   0.386  23.562  0.00  0.00    +0.012 C 
ATOM     14  C   UNL     1       0.612  -0.218  23.109  0.00  0.00    +0.085 C 
ATOM     15  C   UNL     1       1.353  -0.239  22.748  0.00  0.00    +0.226 C 
ATOM     16  O   UNL     1       1.527  -0.928  22.329  0.00  0.00    -0.275 OA
ATOM     17  N   UNL     1       1.943   0.337  22.750  0.00  0.00    -0.275 N 
ATOM     28  C   UNL     1       1.938   1.077  23.113  0.00  0.00    +0.094 C 
ATOM     29  C   UNL     1       1.341   1.424  23.565  0.00  0.00    +0.023 C 
ATOM     30  C   UNL     1       0.603   1.117  23.765  0.00  0.00    +0.022 C 
ATOM     31  C   UNL     1       0.170   1.646  24.228  0.00  0.00    +0.093 C 
ENDROOT
BRANCH   8   7
ATOM      7  C   UNL     1      -1.775   1.771  25.210  0.00  0.00    +0.112 C 
BRANCH   7   6
ATOM      3  C   UNL     1      -3.565   3.480  25.262  0.00  0.00    +0.139 A 
ATOM      4  C   UNL     1      -2.910   3.554  25.758  0.00  0.00    +0.037 A 
ATOM      5  C   UNL     1      -2.313   2.984  25.741  0.00  0.00    -0.001 A 
ATOM      6  C   UNL     1      -2.371   2.341  25.228  0.00  0.00    -0.013 A 
ATOM     32  C   UNL     1      -3.026   2.268  24.731  0.00  0.00    -0.001 A 
ATOM     33  C   UNL     1      -3.623   2.837  24.748  0.00  0.00    +0.037 A 
BRANCH   3   2
ATOM      1  C   UNL     1      -4.932   3.834  25.482  0.00  0.00    +0.252 C 
ATOM      2  O   UNL     1      -4.162   4.049  25.278  0.00  0.00    -0.471 OA
ENDBRANCH   3   2
ENDBRANCH   7   6
ENDBRANCH   8   7
BRANCH  17  18
ATOM     18  C   UNL     1       2.629   0.148  22.333  0.00  0.00    +0.120 C 
BRANCH  18  19
ATOM     19  C   UNL     1       3.367   0.232  22.693  0.00  0.00    +0.001 A 
ATOM     20  C   UNL     1       3.780   0.943  22.626  0.00  0.00    +0.001 A 
ATOM     21  C   UNL     1       4.517   1.028  22.986  0.00  0.00    +0.040 A 
ATOM     22  C   UNL     1       4.842   0.401  23.414  0.00  0.00    +0.176 A 
ATOM     23  O   UNL     1       5.552   0.323  23.825  0.00  0.00    -0.435 OA
ATOM     24  C   UNL     1       5.579  -0.436  24.146  0.00  0.00    +0.429 C 
ATOM     25  O   UNL     1       4.884  -0.828  23.933  0.00  0.00    -0.435 OA
ATOM     26  C   UNL     1       4.429  -0.310  23.481  0.00  0.00    +0.176 A 
ATOM     27  C   UNL     1       3.691  -0.394  23.120  0.00  0.00    +0.038 A 
ENDBRANCH  18  19
ENDBRANCH  17  18
TORSDOF 5
ENDMDL
MODEL 6
REMARK VINA RESULT:      -8.3      1.708      2.233
REMARK  Name = 
REMARK  5 active torsions:
REMARK  status: ('A' for Active; 'I' for Inactive)
REMARK    1  A    between atoms: O_2  and  C_3
REMARK    2  A    between atoms: C_6  and  C_7
REMARK    3  A    between atoms: C_7  and  C_8
REMARK    4  A    between atoms: N_17  and  C_18
REMARK    5  A    between atoms: C_18  and  C_19
REMARK                            x       y       z     vdW  Elec       q    Type
REMARK                         _______ _______ _______ _____ _____    ______ ____
ROOT
ATOM      8  C   UNL     1       0.189   1.097  23.861  0.00  0.00    +0.230 C 
ATOM      9  O   UNL     1      -0.108   0.613  23.263  0.00  0.00    -0.275 OA
ATOM     10  N   UNL     1      -0.303   1.648  24.227  0.00  0.00    -0.279 N 
ATOM     11  C   UNL     1      -0.006   2.133  24.826  0.00  0.00    +0.093 C 
ATOM     12  C   UNL     1      -0.498   2.684  25.193  0.00  0.00    +0.022 C 
ATOM     13  C   UNL     1      -1.287   2.751  24.961  0.00  0.00    +0.012 C 
ATOM     14  C   UNL     1      -1.680   3.333  25.395  0.00  0.00    +0.085 C 
ATOM     15  C   UNL     1      -2.467   3.573  25.338  0.00  0.00    +0.226 C 
ATOM     16  O   UNL     1      -2.696   4.174  25.855  0.00  0.00    -0.275 OA
ATOM     17  N   UNL     1      -3.055   3.292  24.833  0.00  0.00    -0.275 N 
ATOM     28  C   UNL     1      -3.002   2.701  24.261  0.00  0.00    +0.094 C 
ATOM     29  C   UNL     1      -2.348   2.245  24.051  0.00  0.00    +0.023 C 
ATOM     30  C   UNL     1      -1.584   2.267  24.363  0.00  0.00    +0.022 C 
ATOM     31  C   UNL     1      -1.092   1.716  23.996  0.00  0.00    +0.093 C 
ENDROOT
BRANCH   8   7
ATOM      7  C   UNL     1       0.978   1.030  24.092  0.00  0.00    +0.112 C 
BRANCH   7   6
ATOM      3  C   UNL     1       2.692   0.306  22.460  0.00  0.00    +0.139 A 
ATOM      4  C   UNL     1       2.025  -0.161  22.592  0.00  0.00    +0.037 A 
ATOM      5  C   UNL     1       1.454   0.080  23.136  0.00  0.00    -0.001 A 
ATOM      6  C   UNL     1       1.549   0.788  23.548  0.00  0.00    -0.013 A 
ATOM     32  C   UNL     1       2.216   1.255  23.416  0.00  0.00    -0.001 A 
ATOM     33  C   UNL     1       2.788   1.015  22.872  0.00  0.00    +0.037 A 
BRANCH   3   2
ATOM      1  C   UNL     1       4.036   0.348  21.976  0.00  0.00    +0.252 C 
ATOM      2  O   UNL     1       3.263   0.065  21.916  0.00  0.00    -0.471 OA
ENDBRANCH   3   2
ENDBRANCH   7   6
ENDBRANCH   8   7
BRANCH  17  18
ATOM     18  C   UNL     1      -3.795   3.649  24.911  0.00  0.00    +0.120 C 
BRANCH  18  19
ATOM     19  C   UNL     1      -4.465   3.185  25.042  0.00  0.00    +0.001 A 
ATOM     20  C   UNL     1      -4.819   2.787  24.412  0.00  0.00    +0.001 A 
ATOM     21  C   UNL     1      -5.489   2.322  24.541  0.00  0.00    +0.040 A 
ATOM     22  C   UNL     1      -5.804   2.257  25.301  0.00  0.00    +0.176 A 
ATOM     23  O   UNL     1      -6.455   1.843  25.594  0.00  0.00    -0.435 OA
ATOM     24  C   UNL     1      -6.503   1.986  26.405  0.00  0.00    +0.429 C 
ATOM     25  O   UNL     1      -5.882   2.488  26.613  0.00  0.00    -0.435 OA
ATOM     26  C   UNL     1      -5.450   2.655  25.931  0.00  0.00    +0.176 A 
ATOM     27  C   UNL     1      -4.781   3.119  25.800  0.00  0.00    +0.038 A 
ENDBRANCH  18  19
ENDBRANCH  17  18
TORSDOF 5
ENDMDL
MODEL 7
REMARK VINA RESULT:      -7.9     14.134     16.118
REMARK  Name = 
REMARK  5 active torsions:
REMARK  status: ('A' for Active; 'I' for Inactive)
REMARK    1  A    between atoms: O_2  and  C_3
REMARK    2  A    between atoms: C_6  and  C_7
REMARK    3  A    between atoms: C_7  and  C_8
REMARK    4  A    between atoms: N_17  and  C_18
REMARK    5  A    between atoms: C_18  and  C_19
REMARK                            x       y       z     vdW  Elec       q    Type
REMARK                         _______ _______ _______ _____ _____    ______ ____
ROOT
ATOM      8  C   UNL     1      -5.898 -10.247  16.260  0.00  0.00    +0.230 C 
ATOM      9  O   UNL     1      -6.511 -10.241  15.708  0.00  0.00    -0.275 OA
ATOM     10  N   UNL     1      -5.117 -10.329  16.007  0.00  0.00    -0.279 N 
ATOM     11  C   UNL     1      -4.503 -10.335  16.559  0.00  0.00    +0.093 C 
ATOM     12  C   UNL     1      -3.722 -10.417  16.308  0.00  0.00    +0.022 C 
ATOM     13  C   UNL     1      -3.554 -10.493  15.503  0.00  0.00    +0.012 C 
ATOM     14  C   UNL     1      -2.743 -10.568  15.371  0.00  0.00    +0.085 C 
ATOM     15  C   UNL     1      -2.345 -10.656  14.654  0.00  0.00    +0.226 C 
ATOM     16  O   UNL     1      -1.524 -10.717  14.706  0.00  0.00    -0.275 OA
ATOM     17  N   UNL     1      -2.659 -10.690  13.892  0.00  0.00    -0.275 N 
ATOM     28  C   UNL     1      -3.449 -10.645  13.659  0.00  0.00    +0.094 C 
ATOM     29  C   UNL     1      -4.120 -10.555  14.131  0.00  0.00    +0.023 C 
ATOM     30  C   UNL     1      -4.167 -10.487  14.951  0.00  0.00    +0.022 C 
ATOM     31  C   UNL     1      -4.948 -10.405  15.204  0.00  0.00    +0.093 C 
ENDROOT
BRANCH   8   7
ATOM      7  C   UNL     1      -6.066 -10.171  17.063  0.00  0.00    +0.112 C 
BRANCH   7   6
ATOM      3  C   UNL     1      -8.399  -9.823  17.814  0.00  0.00    +0.139 A 
ATOM      4  C   UNL     1      -7.974  -9.197  17.485  0.00  0.00    +0.037 A 
ATOM      5  C   UNL     1      -7.196  -9.313  17.234  0.00  0.00    -0.001 A 
ATOM      6  C   UNL     1      -6.844 -10.054  17.314  0.00  0.00    -0.013 A 
ATOM     32  C   UNL     1      -7.268 -10.680  17.643  0.00  0.00    -0.001 A 
ATOM     33  C   UNL     1      -8.046 -10.565  17.894  0.00  0.00    +0.037 A 
BRANCH   3   2
ATOM      1  C   UNL     1      -9.740  -9.414  17.539  0.00  0.00    +0.252 C 
ATOM      2  O   UNL     1      -9.176  -9.708  18.065  0.00  0.00    -0.471 OA
ENDBRANCH   3   2
ENDBRANCH   7   6
ENDBRANCH   8   7
BRANCH  17  18
ATOM     18  C   UNL     1      -2.111 -10.781  13.282  0.00  0.00    +0.120 C 
BRANCH  18  19
ATOM     19  C   UNL     1      -2.228 -10.396  12.562  0.00  0.00    +0.001 A 
ATOM     20  C   UNL     1      -1.811  -9.704  12.392  0.00  0.00    +0.001 A 
ATOM     21  C   UNL     1      -1.927  -9.318  11.673  0.00  0.00    +0.040 A 
ATOM     22  C   UNL     1      -2.461  -9.624  11.122  0.00  0.00    +0.176 A 
ATOM     23  O   UNL     1      -2.689  -9.367  10.373  0.00  0.00    -0.435 OA
ATOM     24  C   UNL     1      -3.246  -9.899  10.079  0.00  0.00    +0.429 C 
ATOM     25  O   UNL     1      -3.363 -10.486  10.647  0.00  0.00    -0.435 OA
ATOM     26  C   UNL     1      -2.878 -10.316  11.292  0.00  0.00    +0.176 A 
ATOM     27  C   UNL     1      -2.761 -10.701  12.012  0.00  0.00    +0.038 A 
ENDBRANCH  18  19
ENDBRANCH  17  18
TORSDOF 5
ENDMDL
MODEL 8
REMARK VINA RESULT:      -7.2     14.999     16.795
REMARK  Name = 
REMARK  5 active torsions:
REMARK  status: ('A' for Active; 'I' for Inactive)
REMARK    1  A    between atoms: O_2  and  C_3
REMARK    2  A    between atoms: C_6  and  C_7
REMARK    3  A    between atoms: C_7  and  C_8
REMARK    4  A    between atoms: N_17  and  C_18
REMARK    5  A    between atoms: C_18  and  C_19
REMARK                            x       y       z     vdW  Elec       q    Type
REMARK                         _______ _______ _______ _____ _____    ______ ____
ROOT
ATOM      8  C   UNL     1      -6.405 -10.099  15.303  0.00  0.00    +0.230 C 
ATOM      9  O   UNL     1      -5.760 -10.159  15.813  0.00  0.00    -0.275 OA
ATOM     10  N   UNL     1      -6.294 -10.172  14.488  0.00  0.00    -0.279 N 
ATOM     11  C   UNL     1      -6.940 -10.112  13.978  0.00  0.00    +0.093 C 
ATOM     12  C   UNL     1      -6.830 -10.185  13.164  0.00  0.00    +0.022 C 
ATOM     13  C   UNL     1      -6.074 -10.318  12.860  0.00  0.00    +0.012 C 
ATOM     14  C   UNL     1      -6.087 -10.374  12.036  0.00  0.00    +0.085 C 
ATOM     15  C   UNL     1      -5.456 -10.503  11.521  0.00  0.00    +0.226 C 
ATOM     16  O   UNL     1      -5.649 -10.531  10.719  0.00  0.00    -0.275 OA
ATOM     17  N   UNL     1      -4.658 -10.609  11.700  0.00  0.00    -0.275 N 
ATOM     28  C   UNL     1      -4.293 -10.612  12.440  0.00  0.00    +0.094 C 
ATOM     29  C   UNL     1      -4.636 -10.509  13.183  0.00  0.00    +0.023 C 
ATOM     30  C   UNL     1      -5.429 -10.378  13.370  0.00  0.00    +0.022 C 
ATOM     31  C   UNL     1      -5.540 -10.305  14.184  0.00  0.00    +0.093 C 
ENDROOT
BRANCH   8   7
ATOM      7  C   UNL     1      -7.160  -9.966  15.607  0.00  0.00    +0.112 C 
BRANCH   7   6
ATOM      3  C   UNL     1      -7.555 -10.097  18.046  0.00  0.00    +0.139 A 
ATOM      4  C   UNL     1      -7.381 -10.781  17.620  0.00  0.00    +0.037 A 
ATOM      5  C   UNL     1      -7.249 -10.737  16.806  0.00  0.00    -0.001 A 
ATOM      6  C   UNL     1      -7.292 -10.010  16.420  0.00  0.00    -0.013 A 
ATOM     32  C   UNL     1      -7.466  -9.326  16.847  0.00  0.00    -0.001 A 
ATOM     33  C   UNL     1      -7.598  -9.369  17.660  0.00  0.00    +0.037 A 
BRANCH   3   2
ATOM      1  C   UNL     1      -7.342 -10.744  19.303  0.00  0.00    +0.252 C 
ATOM      2  O   UNL     1      -7.687 -10.140  18.860  0.00  0.00    -0.471 OA
ENDBRANCH   3   2
ENDBRANCH   7   6
ENDBRANCH   8   7
BRANCH  17  18
ATOM     18  C   UNL     1      -4.158 -10.729  11.055  0.00  0.00    +0.120 C 
BRANCH  18  19
ATOM     19  C   UNL     1      -3.494 -10.250  10.954  0.00  0.00    +0.001 A 
ATOM     20  C   UNL     1      -3.539  -9.577  10.479  0.00  0.00    +0.001 A 
ATOM     21  C   UNL     1      -2.875  -9.098  10.377  0.00  0.00    +0.040 A 
ATOM     22  C   UNL     1      -2.165  -9.292  10.752  0.00  0.00    +0.176 A 
ATOM     23  O   UNL     1      -1.426  -8.927  10.755  0.00  0.00    -0.435 OA
ATOM     24  C   UNL     1      -0.923  -9.375  11.232  0.00  0.00    +0.429 C 
ATOM     25  O   UNL     1      -1.353 -10.016  11.525  0.00  0.00    -0.435 OA
ATOM     26  C   UNL     1      -2.120  -9.965  11.228  0.00  0.00    +0.176 A 
ATOM     27  C   UNL     1      -2.785 -10.443  11.328  0.00  0.00    +0.038 A 
ENDBRANCH  18  19
ENDBRANCH  17  18
TORSDOF 5
ENDMDL
MODEL 9
REMARK VINA RESULT:      -7.2      1.167      6.526
REMARK  Name = 
REMARK  5 active torsions:
REMARK  status: ('A' for Active; 'I' for Inactive)
REMARK    1  A    between atoms: O_2  and  C_3
REMARK    2  A    between atoms: C_6  and  C_7
REMARK    3  A    between atoms: C_7  and  C_8
REMARK    4  A    between atoms: N_17  and  C_18
REMARK    5  A    between atoms: C_18  and  C_19
REMARK                            x       y       z     vdW  Elec       q    Type
REMARK                         _______ _______ _______ _____ _____    ______ ____
ROOT
ATOM      8  C   UNL     1      -3.417   1.981  24.065  0.00  0.00    +0.230 C 
ATOM      9  O   UNL     1      -3.123   2.714  23.827  0.00  0.00    -0.275 OA
ATOM     10  N   UNL     1      -2.907   1.336  24.139  0.00  0.00    -0.279 N 
ATOM     11  C   UNL     1      -3.201   0.603  24.377  0.00  0.00    +0.093 C 
ATOM     12  C   UNL     1      -2.692  -0.042  24.451  0.00  0.00    +0.022 C 
ATOM     13  C   UNL     1      -1.888   0.047  24.288  0.00  0.00    +0.012 C 
ATOM     14  C   UNL     1      -1.479  -0.661  24.396  0.00  0.00    +0.085 C 
ATOM     15  C   UNL     1      -0.674  -0.811  24.293  0.00  0.00    +0.226 C 
ATOM     16  O   UNL     1      -0.432  -1.584  24.447  0.00  0.00    -0.275 OA
ATOM     17  N   UNL     1      -0.080  -0.290  24.057  0.00  0.00    -0.275 N 
ATOM     28  C   UNL     1      -0.144   0.510  23.865  0.00  0.00    +0.094 C 
ATOM     29  C   UNL     1      -0.817   0.986  23.862  0.00  0.00    +0.023 C 
ATOM     30  C   UNL     1      -1.593   0.780  24.050  0.00  0.00    +0.022 C 
ATOM     31  C   UNL     1      -2.104   1.425  23.976  0.00  0.00    +0.093 C 
ENDROOT
BRANCH   8   7
ATOM      7  C   UNL     1      -4.220   1.892  24.228  0.00  0.00    +0.112 C 
BRANCH   7   6
ATOM      3  C   UNL     1      -5.422   3.633  25.514  0.00  0.00    +0.139 A 
ATOM      4  C   UNL     1      -5.684   2.851  25.534  0.00  0.00    +0.037 A 
ATOM      5  C   UNL     1      -5.283   2.271  25.105  0.00  0.00    -0.001 A 
ATOM      6  C   UNL     1      -4.621   2.472  24.657  0.00  0.00    -0.013 A 
ATOM     32  C   UNL     1      -4.360   3.254  24.636  0.00  0.00    -0.001 A 
ATOM     33  C   UNL     1      -4.760   3.835  25.064  0.00  0.00    +0.037 A 
BRANCH   3   2
ATOM      1  C   UNL     1      -6.106   4.887  25.559  0.00  0.00    +0.252 C 
ATOM      2  O   UNL     1      -5.822   4.213  25.942  0.00  0.00    -0.471 OA
ENDBRANCH   3   2
ENDBRANCH   7   6
ENDBRANCH   8   7
BRANCH  17  18
ATOM     18  C   UNL     1       0.678  -0.611  24.006  0.00  0.00    +0.120 C 
BRANCH  18  19
ATOM     19  C   UNL     1       1.178  -0.391  23.387  0.00  0.00    +0.001 A 
ATOM     20  C   UNL     1       0.970  -0.565  22.608  0.00  0.00    +0.001 A 
ATOM     21  C   UNL     1       1.469  -0.346  21.988  0.00  0.00    +0.040 A 
ATOM     22  C   UNL     1       2.176   0.049  22.148  0.00  0.00    +0.176 A 
ATOM     23  O   UNL     1       2.773   0.332  21.656  0.00  0.00    -0.435 OA
ATOM     24  C   UNL     1       3.350   0.681  22.130  0.00  0.00    +0.429 C 
ATOM     25  O   UNL     1       3.109   0.615  22.916  0.00  0.00    -0.435 OA
ATOM     26  C   UNL     1       2.384   0.224  22.928  0.00  0.00    +0.176 A 
ATOM     27  C   UNL     1       1.884   0.004  23.546  0.00  0.00    +0.038 A 
ENDBRANCH  18  19
ENDBRANCH  17  18
TORSDOF 5
ENDMDL
MODEL 10
REMARK VINA RESULT:      -7.1     14.998     16.717
REMARK  Name = 
REMARK  5 active torsions:
REMARK  status: ('A' for Active; 'I' for Inactive)
REMARK    1  A    between atoms: O_2  and  C_3
REMARK    2  A    between atoms: C_6  and  C_7
REMARK    3  A    between atoms: C_7  and  C_8
REMARK    4  A    between atoms: N_17  and  C_18
REMARK    5  A    between atoms: C_18  and  C_19
REMARK                            x       y       z     vdW  Elec       q    Type
REMARK                         _______ _______ _______ _____ _____    ______ ____
ROOT
ATOM      8  C   UNL     1      -6.423 -10.152  15.515  0.00  0.00    +0.230 C 
ATOM      9  O   UNL     1      -7.164 -10.185  15.155  0.00  0.00    -0.275 OA
ATOM     10  N   UNL     1      -5.739 -10.235  15.061  0.00  0.00    -0.279 N 
ATOM     11  C   UNL     1      -4.998 -10.202  15.421  0.00  0.00    +0.093 C 
ATOM     12  C   UNL     1      -4.314 -10.284  14.968  0.00  0.00    +0.022 C 
ATOM     13  C   UNL     1      -4.372 -10.400  14.152  0.00  0.00    +0.012 C 
ATOM     14  C   UNL     1      -3.626 -10.468  13.805  0.00  0.00    +0.085 C 
ATOM     15  C   UNL     1      -3.439 -10.587  13.010  0.00  0.00    +0.226 C 
ATOM     16  O   UNL     1      -2.634 -10.633  12.836  0.00  0.00    -0.275 OA
ATOM     17  N   UNL     1      -3.950 -10.667  12.367  0.00  0.00    -0.275 N 
ATOM     28  C   UNL     1      -4.774 -10.647  12.360  0.00  0.00    +0.094 C 
ATOM     29  C   UNL     1      -5.292 -10.543  12.994  0.00  0.00    +0.023 C 
ATOM     30  C   UNL     1      -5.113 -10.433  13.791  0.00  0.00    +0.022 C 
ATOM     31  C   UNL     1      -5.797 -10.350  14.246  0.00  0.00    +0.093 C 
ENDROOT
BRANCH   8   7
ATOM      7  C   UNL     1      -6.366 -10.037  16.330  0.00  0.00    +0.112 C 
BRANCH   7   6
ATOM      3  C   UNL     1      -8.413  -9.968  17.719  0.00  0.00    +0.139 A 
ATOM      4  C   UNL     1      -8.014 -10.681  17.608  0.00  0.00    +0.037 A 
ATOM      5  C   UNL     1      -7.332 -10.704  17.145  0.00  0.00    -0.001 A 
ATOM      6  C   UNL     1      -7.048 -10.014  16.793  0.00  0.00    -0.013 A 
ATOM     32  C   UNL     1      -7.447  -9.301  16.904  0.00  0.00    -0.001 A 
ATOM     33  C   UNL     1      -8.130  -9.277  17.367  0.00  0.00    +0.037 A 
BRANCH   3   2
ATOM      1  C   UNL     1      -9.837  -9.895  17.823  0.00  0.00    +0.252 C 
ATOM      2  O   UNL     1      -9.095  -9.944  18.182  0.00  0.00    -0.471 OA
ENDBRANCH   3   2
ENDBRANCH   7   6
ENDBRANCH   8   7
BRANCH  17  18
ATOM     18  C   UNL     1      -3.588 -10.781  11.635  0.00  0.00    +0.120 C 
BRANCH  18  19
ATOM     19  C   UNL     1      -3.858 -10.369  10.973  0.00  0.00    +0.001 A 
ATOM     20  C   UNL     1      -4.159 -10.781  10.325  0.00  0.00    +0.001 A 
ATOM     21  C   UNL     1      -4.429 -10.370   9.663  0.00  0.00    +0.040 A 
ATOM     22  C   UNL     1      -4.399  -9.545   9.649  0.00  0.00    +0.176 A 
ATOM     23  O   UNL     1      -4.623  -8.994   9.078  0.00  0.00    -0.435 OA
ATOM     24  C   UNL     1      -4.462  -8.241   9.373  0.00  0.00    +0.429 C 
ATOM     25  O   UNL     1      -4.137  -8.327  10.127  0.00  0.00    -0.435 OA
ATOM     26  C   UNL     1      -4.099  -9.132  10.298  0.00  0.00    +0.176 A 
ATOM     27  C   UNL     1      -3.828  -9.545  10.959  0.00  0.00    +0.038 A 
ENDBRANCH  18  19
ENDBRANCH  17  18
TORSDOF 5
ENDMDL
