REMARK  Name = 
REMARK  6 active torsions:
REMARK  status: ('A' for Active; 'I' for Inactive)
REMARK    1  A    between atoms: C_2  and  N_3
REMARK    2  A    between atoms: N_6  and  C_7
REMARK    3  A    between atoms: C_9  and  C_10
REMARK    4  A    between atoms: C_10  and  C_11
REMARK    5  A    between atoms: C_14  and  C_15
REMARK    6  A    between atoms: C_15  and  N_16
REMARK                            x       y       z     vdW  Elec       q    Type
REMARK                         _______ _______ _______ _____ _____    ______ ____
ROOT
ATOM     10  C   UNL     1      10.384  -6.110   0.000  0.00  0.00    +0.049 C 
ENDROOT
BRANCH  10   9
ATOM      7  C   UNL     1       8.660  -5.114   0.000  0.00  0.00    +0.097 C 
ATOM      8  C   UNL     1       9.457  -4.900   0.000  0.00  0.00    +0.022 C 
ATOM      9  C   UNL     1       9.670  -5.697   0.000  0.00  0.00    +0.009 C 
ATOM     23  C   UNL     1       8.873  -5.911   0.000  0.00  0.00    +0.019 C 
ATOM     24  C   UNL     1       8.895  -6.735   0.000  0.00  0.00    +0.002 C 
ATOM     25  C   UNL     1       8.148  -6.304   0.000  0.00  0.00    +0.002 C 
BRANCH   7   6
ATOM      3  N   UNL     1       6.516  -4.701   0.000  0.00  0.00    -0.187 NA
ATOM      4  C   UNL     1       7.231  -5.114   0.000  0.00  0.00    +0.339 C 
ATOM      5  O   UNL     1       7.231  -5.939   0.000  0.00  0.00    -0.249 OA
ATOM      6  N   UNL     1       7.945  -4.701   0.000  0.00  0.00    -0.189 NA
BRANCH   3   2
ATOM      1  C   UNL     1       5.087  -4.701   0.000  0.00  0.00    +0.025 C 
ATOM      2  C   UNL     1       5.802  -5.114   0.000  0.00  0.00    +0.117 C 
ENDBRANCH   3   2
ENDBRANCH   7   6
ENDBRANCH  10   9
BRANCH  10  11
ATOM     11  C   UNL     1      11.099  -5.697   0.000  0.00  0.00    +0.100 A 
ATOM     12  N   UNL     1      11.185  -4.877   0.000  0.00  0.00    -0.082 NA
ATOM     13  O   UNL     1      11.992  -4.705   0.000  0.00  0.00    -0.357 OA
ATOM     14  C   UNL     1      12.405  -5.420   0.000  0.00  0.00    +0.170 A 
ATOM     22  C   UNL     1      11.853  -6.033   0.000  0.00  0.00    +0.055 A 
BRANCH  14  15
ATOM     15  C   UNL     1      13.225  -5.506   0.000  0.00  0.00    +0.140 C 
BRANCH  15  16
ATOM     16  N   UNL     1      13.561  -6.260   0.000  0.00  0.00    -0.266 NA
ATOM     17  C   UNL     1      14.381  -6.346   0.000  0.00  0.00    +0.072 C 
ATOM     18  C   UNL     1      14.717  -7.099   0.000  0.00  0.00    +0.017 C 
ATOM     19  C   UNL     1      14.232  -7.767   0.000  0.00  0.00    +0.003 C 
ATOM     20  C   UNL     1      13.411  -7.681   0.000  0.00  0.00    +0.017 C 
ATOM     21  C   UNL     1      13.076  -6.927   0.000  0.00  0.00    +0.072 C 
ENDBRANCH  15  16
ENDBRANCH  14  15
ENDBRANCH  10  11
TORSDOF 6
