MODEL 1
REMARK VINA RESULT:     -16.1      0.000      0.000
REMARK  Name = 
REMARK  3 active torsions:
REMARK  status: ('A' for Active; 'I' for Inactive)
REMARK    1  A    between atoms: O_2  and  C_3
REMARK    2  A    between atoms: C_6  and  C_9
REMARK    3  A    between atoms: C_19  and  C_21
REMARK                            x       y       z     vdW  Elec       q    Type
REMARK                         _______ _______ _______ _____ _____    ______ ____
ROOT
ATOM      9  C   UNL     1      -4.238   0.347  24.833  0.00  0.00    +0.056 A 
ATOM     10  C   UNL     1      -4.881   0.593  25.288  0.00  0.00    +0.006 A 
ATOM     11  C   UNL     1      -5.075   1.393  25.330  0.00  0.00    +0.013 A 
ATOM     12  C   UNL     1      -4.626   1.948  24.916  0.00  0.00    +0.041 A 
ATOM     13  C   UNL     1      -4.577   2.852  24.760  0.00  0.00    +0.058 C 
ATOM     14  C   UNL     1      -4.894   3.457  24.921  0.00  0.00    +0.011 C 
ATOM     15  C   UNL     1      -4.260   3.211  24.473  0.00  0.00    +0.043 C 
ATOM     16  C   UNL     1      -3.470   3.113  23.888  0.00  0.00    +0.096 C 
ATOM     17  N   UNL     1      -3.372   2.284  23.922  0.00  0.00    -0.275 N 
ATOM     18  C   UNL     1      -3.813   2.774  24.192  0.00  0.00    +0.100 C 
ATOM     19  C   UNL     1      -2.932   1.590  23.680  0.00  0.00    +0.255 C 
ATOM     20  O   UNL     1      -2.257   1.783  23.144  0.00  0.00    -0.269 OA
ATOM     26  C   UNL     1      -4.304   2.265  24.631  0.00  0.00    +0.110 C 
ATOM     27  N   UNL     1      -3.983   1.702  24.462  0.00  0.00    -0.299 N 
ATOM     28  C   UNL     1      -3.789   0.902  24.420  0.00  0.00    +0.261 A 
ATOM     29  O   UNL     1      -2.973   0.854  23.808  0.00  0.00    -0.267 OA
ENDROOT
BRANCH   9   6
ATOM      3  C   UNL     1      -3.658  -2.056  24.711  0.00  0.00    +0.139 A 
ATOM      4  C   UNL     1      -4.077  -1.702  24.095  0.00  0.00    +0.037 A 
ATOM      5  C   UNL     1      -4.271  -0.900  24.136  0.00  0.00    +0.003 A 
ATOM      6  C   UNL     1      -4.045  -0.454  24.792  0.00  0.00    +0.005 A 
ATOM      7  C   UNL     1      -3.626  -0.809  25.408  0.00  0.00    +0.003 A 
ATOM      8  C   UNL     1      -3.432  -1.610  25.367  0.00  0.00    +0.037 A 
BRANCH   3   2
ATOM      1  C   UNL     1      -2.754  -3.278  24.351  0.00  0.00    +0.252 C 
ATOM      2  O   UNL     1      -3.461  -2.910  24.649  0.00  0.00    -0.471 OA
ENDBRANCH   3   2
ENDBRANCH   9   6
BRANCH  19  21
ATOM     21  C   UNL     1      -3.380   0.867  24.114  0.00  0.00    +0.083 A 
ATOM     22  C   UNL     1      -4.073   0.462  23.926  0.00  0.00    +0.012 A 
ATOM     23  C   UNL     1      -4.195  -0.115  24.503  0.00  0.00    +0.008 A 
ATOM     24  C   UNL     1      -3.578  -0.066  25.047  0.00  0.00    +0.036 A 
ATOM     25  S   UNL     1      -3.073   0.542  24.807  0.00  0.00    -0.082 S 
ENDBRANCH  19  21
TORSDOF 3
ENDMDL
MODEL 2
REMARK VINA RESULT:     -15.8      1.356      3.841
REMARK  Name = 
REMARK  3 active torsions:
REMARK  status: ('A' for Active; 'I' for Inactive)
REMARK    1  A    between atoms: O_2  and  C_3
REMARK    2  A    between atoms: C_6  and  C_9
REMARK    3  A    between atoms: C_19  and  C_21
REMARK                            x       y       z     vdW  Elec       q    Type
REMARK                         _______ _______ _______ _____ _____    ______ ____
ROOT
ATOM      9  C   UNL     1      -4.076  -0.031  24.474  0.00  0.00    +0.056 A 
ATOM     10  C   UNL     1      -4.600  -0.506  24.050  0.00  0.00    +0.006 A 
ATOM     11  C   UNL     1      -4.451  -1.313  23.967  0.00  0.00    +0.013 A 
ATOM     12  C   UNL     1      -3.777  -1.645  24.308  0.00  0.00    +0.041 A 
ATOM     13  C   UNL     1      -3.346  -2.452  24.397  0.00  0.00    +0.058 C 
ATOM     14  C   UNL     1      -3.401  -3.128  24.217  0.00  0.00    +0.011 C 
ATOM     15  C   UNL     1      -2.885  -2.656  24.635  0.00  0.00    +0.043 C 
ATOM     16  C   UNL     1      -2.154  -2.258  25.169  0.00  0.00    +0.096 C 
ATOM     17  N   UNL     1      -2.409  -1.463  25.185  0.00  0.00    -0.275 N 
ATOM     18  C   UNL     1      -2.632  -2.083  24.914  0.00  0.00    +0.100 C 
ATOM     19  C   UNL     1      -2.272  -0.658  25.442  0.00  0.00    +0.255 C 
ATOM     20  O   UNL     1      -1.531  -0.570  25.915  0.00  0.00    -0.269 OA
ATOM     26  C   UNL     1      -3.328  -1.809  24.547  0.00  0.00    +0.110 C 
ATOM     27  N   UNL     1      -3.252  -1.170  24.732  0.00  0.00    -0.299 N 
ATOM     28  C   UNL     1      -3.402  -0.363  24.815  0.00  0.00    +0.261 A 
ATOM     29  O   UNL     1      -2.624  -0.001  25.369  0.00  0.00    -0.267 OA
ENDROOT
BRANCH   9   6
ATOM      3  C   UNL     1      -4.527   2.389  24.724  0.00  0.00    +0.139 A 
ATOM      4  C   UNL     1      -4.073   2.118  24.091  0.00  0.00    +0.037 A 
ATOM      5  C   UNL     1      -3.923   1.311  24.007  0.00  0.00    +0.003 A 
ATOM      6  C   UNL     1      -4.226   0.776  24.557  0.00  0.00    +0.005 A 
ATOM      7  C   UNL     1      -4.679   1.048  25.190  0.00  0.00    +0.003 A 
ATOM      8  C   UNL     1      -4.830   1.854  25.274  0.00  0.00    +0.037 A 
BRANCH   3   2
ATOM      1  C   UNL     1      -4.830   3.715  25.493  0.00  0.00    +0.252 C 
ATOM      2  O   UNL     1      -4.676   3.253  24.795  0.00  0.00    -0.471 OA
ENDBRANCH   3   2
ENDBRANCH   9   6
BRANCH  19  21
ATOM     21  C   UNL     1      -3.016  -0.172  25.092  0.00  0.00    +0.083 A 
ATOM     22  C   UNL     1      -3.794  -0.098  25.357  0.00  0.00    +0.012 A 
ATOM     23  C   UNL     1      -4.196   0.395  24.832  0.00  0.00    +0.008 A 
ATOM     24  C   UNL     1      -3.666   0.626  24.243  0.00  0.00    +0.036 A 
ATOM     25  S   UNL     1      -2.936   0.275  24.404  0.00  0.00    -0.082 S 
ENDBRANCH  19  21
TORSDOF 3
ENDMDL
MODEL 3
REMARK VINA RESULT:     -14.3      1.753      2.489
REMARK  Name = 
REMARK  3 active torsions:
REMARK  status: ('A' for Active; 'I' for Inactive)
REMARK    1  A    between atoms: O_2  and  C_3
REMARK    2  A    between atoms: C_6  and  C_9
REMARK    3  A    between atoms: C_19  and  C_21
REMARK                            x       y       z     vdW  Elec       q    Type
REMARK                         _______ _______ _______ _____ _____    ______ ____
ROOT
ATOM      9  C   UNL     1      -3.202   1.198  24.487  0.00  0.00    +0.056 A 
ATOM     10  C   UNL     1      -3.732   0.567  24.444  0.00  0.00    +0.006 A 
ATOM     11  C   UNL     1      -4.527   0.683  24.629  0.00  0.00    +0.013 A 
ATOM     12  C   UNL     1      -4.792   1.429  24.858  0.00  0.00    +0.041 A 
ATOM     13  C   UNL     1      -5.559   1.867  25.114  0.00  0.00    +0.058 C 
ATOM     14  C   UNL     1      -6.244   1.758  25.225  0.00  0.00    +0.011 C 
ATOM     15  C   UNL     1      -5.718   2.379  25.266  0.00  0.00    +0.043 C 
ATOM     16  C   UNL     1      -5.245   3.240  25.375  0.00  0.00    +0.096 C 
ATOM     17  N   UNL     1      -4.472   3.003  25.166  0.00  0.00    -0.275 N 
ATOM     18  C   UNL     1      -5.117   2.706  25.224  0.00  0.00    +0.100 C 
ATOM     19  C   UNL     1      -3.650   3.213  25.052  0.00  0.00    +0.255 C 
ATOM     20  O   UNL     1      -3.488   4.065  25.220  0.00  0.00    -0.269 OA
ATOM     26  C   UNL     1      -4.912   1.931  25.000  0.00  0.00    +0.110 C 
ATOM     27  N   UNL     1      -4.262   2.060  24.902  0.00  0.00    -0.299 N 
ATOM     28  C   UNL     1      -3.467   1.944  24.716  0.00  0.00    +0.261 A 
ATOM     29  O   UNL     1      -3.025   2.856  24.843  0.00  0.00    -0.267 OA
ENDROOT
BRANCH   9   6
ATOM      3  C   UNL     1      -0.816   0.847  23.932  0.00  0.00    +0.139 A 
ATOM      4  C   UNL     1      -1.315   1.215  23.388  0.00  0.00    +0.037 A 
ATOM      5  C   UNL     1      -2.112   1.332  23.573  0.00  0.00    +0.003 A 
ATOM      6  C   UNL     1      -2.407   1.081  24.301  0.00  0.00    +0.005 A 
ATOM      7  C   UNL     1      -1.906   0.714  24.845  0.00  0.00    +0.003 A 
ATOM      8  C   UNL     1      -1.111   0.597  24.660  0.00  0.00    +0.037 A 
BRANCH   3   2
ATOM      1  C   UNL     1       0.411   0.042  23.397  0.00  0.00    +0.252 C 
ATOM      2  O   UNL     1       0.028   0.732  23.715  0.00  0.00    -0.471 OA
ENDBRANCH   3   2
ENDBRANCH   9   6
BRANCH  19  21
ATOM     21  C   UNL     1      -3.237   2.397  24.777  0.00  0.00    +0.083 A 
ATOM     22  C   UNL     1      -3.230   2.006  24.052  0.00  0.00    +0.012 A 
ATOM     23  C   UNL     1      -2.781   1.319  24.137  0.00  0.00    +0.008 A 
ATOM     24  C   UNL     1      -2.510   1.287  24.915  0.00  0.00    +0.036 A 
ATOM     25  S   UNL     1      -2.792   1.954  25.311  0.00  0.00    -0.082 S 
ENDBRANCH  19  21
TORSDOF 3
ENDMDL
