MODEL 1
REMARK VINA RESULT:      -9.4      0.000      0.000
REMARK  Name = 
REMARK  8 active torsions:
REMARK  status: ('A' for Active; 'I' for Inactive)
REMARK    1  A    between atoms: O_2  and  C_3
REMARK    2  A    between atoms: C_3  and  C_5
REMARK    3  A    between atoms: C_5  and  N_6
REMARK    4  A    between atoms: C_5  and  C_34
REMARK    5  A    between atoms: C_7  and  C_9
REMARK    6  A    between atoms: C_10  and  N_22
REMARK    7  A    between atoms: C_14  and  C_16
REMARK    8  A    between atoms: N_25  and  C_26
REMARK                            x       y       z     vdW  Elec       q    Type
REMARK                         _______ _______ _______ _____ _____    ______ ____
ROOT
ATOM      9  C   UNL     1      -3.016   1.911  24.757  0.00  0.00    +0.174 C 
ATOM     10  C   UNL     1      -3.274   1.131  24.680  0.00  0.00    +0.126 C 
ATOM     11  C   UNL     1      -4.083   1.114  24.841  0.00  0.00    +0.045 C 
ATOM     12  C   UNL     1      -4.324   1.883  25.017  0.00  0.00    +0.096 C 
ATOM     13  N   UNL     1      -3.664   2.375  24.965  0.00  0.00    -0.267 N 
ATOM     14  C   UNL     1      -3.655   3.189  25.098  0.00  0.00    +0.269 C 
ATOM     15  O   UNL     1      -2.949   3.611  25.026  0.00  0.00    -0.268 OA
ENDROOT
BRANCH  14  16
ATOM     16  C   UNL     1      -4.350   3.582  25.304  0.00  0.00    +0.154 A 
ATOM     17  C   UNL     1      -4.621   3.560  26.084  0.00  0.00    +0.123 A 
ATOM     18  N   UNL     1      -5.316   3.953  26.290  0.00  0.00    -0.239 NA
ATOM     19  C   UNL     1      -5.742   4.367  25.717  0.00  0.00    +0.120 A 
ATOM     20  C   UNL     1      -5.471   4.389  24.938  0.00  0.00    +0.120 A 
ATOM     21  N   UNL     1      -4.776   3.996  24.731  0.00  0.00    -0.236 NA
ENDBRANCH  14  16
BRANCH  10  22
ATOM     22  N   UNL     1      -2.806   0.482  24.478  0.00  0.00    -0.186 NA
ATOM     23  C   UNL     1      -3.122  -0.280  24.506  0.00  0.00    +0.344 C 
ATOM     24  O   UNL     1      -3.906  -0.392  24.736  0.00  0.00    -0.249 OA
ATOM     25  N   UNL     1      -2.654  -0.928  24.303  0.00  0.00    -0.159 NA
BRANCH  25  26
ATOM     26  C   UNL     1      -2.971  -1.690  24.332  0.00  0.00    +0.102 A 
ATOM     27  C   UNL     1      -2.551  -2.297  24.700  0.00  0.00    +0.158 A 
ATOM     28  F   UNL     1      -1.815  -2.143  25.041  0.00  0.00    -0.203 F 
ATOM     29  C   UNL     1      -2.867  -3.058  24.729  0.00  0.00    +0.061 A 
ATOM     30  C   UNL     1      -3.603  -3.213  24.388  0.00  0.00    +0.142 A 
ATOM     31  F   UNL     1      -3.919  -3.974  24.416  0.00  0.00    -0.204 F 
ATOM     32  C   UNL     1      -4.022  -2.606  24.019  0.00  0.00    +0.031 A 
ATOM     33  C   UNL     1      -3.706  -1.844  23.991  0.00  0.00    +0.021 A 
ENDBRANCH  25  26
ENDBRANCH  10  22
BRANCH   9   7
ATOM      6  N   UNL     1      -1.642   1.926  25.151  0.00  0.00    -0.194 NA
ATOM      7  C   UNL     1      -2.243   2.178  24.645  0.00  0.00    +0.262 C 
ATOM      8  O   UNL     1      -2.071   2.698  24.027  0.00  0.00    -0.271 OA
BRANCH   6   5
ATOM      5  C   UNL     1      -0.869   2.194  25.039  0.00  0.00    +0.193 C 
BRANCH   5  34
ATOM     34  C   UNL     1      -0.539   2.735  25.568  0.00  0.00    +0.031 C 
ATOM     35  C   UNL     1      -0.402   2.515  26.352  0.00  0.00    +0.002 C 
ATOM     36  C   UNL     1      -0.347   3.496  25.314  0.00  0.00    +0.002 C 
ENDBRANCH   5  34
BRANCH   5   3
ATOM      3  C   UNL     1      -0.427   1.920  24.399  0.00  0.00    +0.337 C 
ATOM      4  O   UNL     1      -0.345   2.388  23.724  0.00  0.00    -0.248 OA
BRANCH   3   2
ATOM      1  C   UNL     1       0.431   0.933  23.824  0.00  0.00    +0.256 C 
ATOM      2  O   UNL     1      -0.067   1.178  24.434  0.00  0.00    -0.443 OA
ENDBRANCH   3   2
ENDBRANCH   5   3
ENDBRANCH   6   5
ENDBRANCH   9   7
TORSDOF 8
ENDMDL
MODEL 2
REMARK VINA RESULT:      -9.4      1.452      3.546
REMARK  Name = 
REMARK  8 active torsions:
REMARK  status: ('A' for Active; 'I' for Inactive)
REMARK    1  A    between atoms: O_2  and  C_3
REMARK    2  A    between atoms: C_3  and  C_5
REMARK    3  A    between atoms: C_5  and  N_6
REMARK    4  A    between atoms: C_5  and  C_34
REMARK    5  A    between atoms: C_7  and  C_9
REMARK    6  A    between atoms: C_10  and  N_22
REMARK    7  A    between atoms: C_14  and  C_16
REMARK    8  A    between atoms: N_25  and  C_26
REMARK                            x       y       z     vdW  Elec       q    Type
REMARK                         _______ _______ _______ _____ _____    ______ ____
ROOT
ATOM      9  C   UNL     1      -3.386   2.128  24.872  0.00  0.00    +0.174 C 
ATOM     10  C   UNL     1      -3.272   1.464  24.397  0.00  0.00    +0.126 C 
ATOM     11  C   UNL     1      -2.513   1.509  24.075  0.00  0.00    +0.045 C 
ATOM     12  C   UNL     1      -2.159   2.202  24.352  0.00  0.00    +0.096 C 
ATOM     13  N   UNL     1      -2.700   2.584  24.845  0.00  0.00    -0.267 N 
ATOM     14  C   UNL     1      -2.574   3.296  25.241  0.00  0.00    +0.269 C 
ATOM     15  O   UNL     1      -3.169   3.614  25.718  0.00  0.00    -0.268 OA
ENDROOT
BRANCH  14  16
ATOM     16  C   UNL     1      -1.855   3.692  25.161  0.00  0.00    +0.154 A 
ATOM     17  C   UNL     1      -1.175   3.387  25.515  0.00  0.00    +0.123 A 
ATOM     18  N   UNL     1      -0.455   3.783  25.436  0.00  0.00    -0.239 NA
ATOM     19  C   UNL     1      -0.416   4.484  25.002  0.00  0.00    +0.120 A 
ATOM     20  C   UNL     1      -1.096   4.788  24.648  0.00  0.00    +0.120 A 
ATOM     21  N   UNL     1      -1.816   4.393  24.727  0.00  0.00    -0.236 NA
ENDBRANCH  14  16
BRANCH  10  22
ATOM     22  N   UNL     1      -3.818   0.861  24.265  0.00  0.00    -0.186 NA
ATOM     23  C   UNL     1      -3.604   0.074  24.394  0.00  0.00    +0.344 C 
ATOM     24  O   UNL     1      -2.844  -0.109  24.655  0.00  0.00    -0.249 OA
ATOM     25  N   UNL     1      -4.152  -0.529  24.262  0.00  0.00    -0.159 NA
BRANCH  25  26
ATOM     26  C   UNL     1      -3.938  -1.316  24.392  0.00  0.00    +0.102 A 
ATOM     27  C   UNL     1      -4.062  -1.879  23.802  0.00  0.00    +0.158 A 
ATOM     28  F   UNL     1      -4.400  -1.656  23.083  0.00  0.00    -0.203 F 
ATOM     29  C   UNL     1      -3.848  -2.665  23.931  0.00  0.00    +0.061 A 
ATOM     30  C   UNL     1      -3.510  -2.888  24.650  0.00  0.00    +0.142 A 
ATOM     31  F   UNL     1      -3.296  -3.675  24.779  0.00  0.00    -0.204 F 
ATOM     32  C   UNL     1      -3.386  -2.325  25.240  0.00  0.00    +0.031 A 
ATOM     33  C   UNL     1      -3.600  -1.538  25.110  0.00  0.00    +0.021 A 
ENDBRANCH  25  26
ENDBRANCH  10  22
BRANCH   9   7
ATOM      6  N   UNL     1      -4.750   2.555  24.906  0.00  0.00    -0.194 NA
ATOM      7  C   UNL     1      -4.070   2.305  25.300  0.00  0.00    +0.262 C 
ATOM      8  O   UNL     1      -4.072   2.233  26.122  0.00  0.00    -0.271 OA
BRANCH   6   5
ATOM      5  C   UNL     1      -5.433   2.732  25.334  0.00  0.00    +0.193 C 
BRANCH   5  34
ATOM     34  C   UNL     1      -6.002   2.149  25.463  0.00  0.00    +0.031 C 
ATOM     35  C   UNL     1      -6.467   1.880  24.836  0.00  0.00    +0.002 C 
ATOM     36  C   UNL     1      -6.107   1.834  26.218  0.00  0.00    +0.002 C 
ENDBRANCH   5  34
BRANCH   5   3
ATOM      3  C   UNL     1      -5.546   3.492  25.633  0.00  0.00    +0.337 C 
ATOM      4  O   UNL     1      -5.558   3.618  26.448  0.00  0.00    -0.248 OA
BRANCH   3   2
ATOM      1  C   UNL     1      -5.926   4.850  25.400  0.00  0.00    +0.256 C 
ATOM      2  O   UNL     1      -5.648   4.128  25.115  0.00  0.00    -0.443 OA
ENDBRANCH   3   2
ENDBRANCH   5   3
ENDBRANCH   6   5
ENDBRANCH   9   7
TORSDOF 8
ENDMDL
MODEL 3
REMARK VINA RESULT:      -9.1      2.126      4.334
REMARK  Name = 
REMARK  8 active torsions:
REMARK  status: ('A' for Active; 'I' for Inactive)
REMARK    1  A    between atoms: O_2  and  C_3
REMARK    2  A    between atoms: C_3  and  C_5
REMARK    3  A    between atoms: C_5  and  N_6
REMARK    4  A    between atoms: C_5  and  C_34
REMARK    5  A    between atoms: C_7  and  C_9
REMARK    6  A    between atoms: C_10  and  N_22
REMARK    7  A    between atoms: C_14  and  C_16
REMARK    8  A    between atoms: N_25  and  C_26
REMARK                            x       y       z     vdW  Elec       q    Type
REMARK                         _______ _______ _______ _____ _____    ______ ____
ROOT
ATOM      9  C   UNL     1      -1.787   0.975  24.377  0.00  0.00    +0.174 C 
ATOM     10  C   UNL     1      -1.110   1.042  23.912  0.00  0.00    +0.126 C 
ATOM     11  C   UNL     1      -1.022   1.835  23.702  0.00  0.00    +0.045 C 
ATOM     12  C   UNL     1      -1.646   2.258  24.039  0.00  0.00    +0.096 C 
ATOM     13  N   UNL     1      -2.119   1.726  24.456  0.00  0.00    -0.267 N 
ATOM     14  C   UNL     1      -2.803   1.912  24.877  0.00  0.00    +0.269 C 
ATOM     15  O   UNL     1      -3.221   1.318  25.269  0.00  0.00    -0.268 OA
ENDROOT
BRANCH  14  16
ATOM     16  C   UNL     1      -3.070   2.692  24.907  0.00  0.00    +0.154 A 
ATOM     17  C   UNL     1      -3.621   2.960  24.353  0.00  0.00    +0.123 A 
ATOM     18  N   UNL     1      -3.889   3.740  24.382  0.00  0.00    -0.239 NA
ATOM     19  C   UNL     1      -3.605   4.252  24.965  0.00  0.00    +0.120 A 
ATOM     20  C   UNL     1      -3.055   3.983  25.517  0.00  0.00    +0.120 A 
ATOM     21  N   UNL     1      -2.787   3.203  25.489  0.00  0.00    -0.236 NA
ENDBRANCH  14  16
BRANCH  10  22
ATOM     22  N   UNL     1      -0.607   0.425  23.694  0.00  0.00    -0.186 NA
ATOM     23  C   UNL     1       0.161   0.588  23.441  0.00  0.00    +0.344 C 
ATOM     24  O   UNL     1       0.427   1.369  23.405  0.00  0.00    -0.249 OA
ATOM     25  N   UNL     1       0.663  -0.029  23.223  0.00  0.00    -0.159 NA
BRANCH  25  26
ATOM     26  C   UNL     1       1.431   0.134  22.969  0.00  0.00    +0.102 A 
ATOM     27  C   UNL     1       1.690  -0.140  22.235  0.00  0.00    +0.158 A 
ATOM     28  F   UNL     1       1.181  -0.576  21.755  0.00  0.00    -0.203 F 
ATOM     29  C   UNL     1       2.458   0.024  21.982  0.00  0.00    +0.061 A 
ATOM     30  C   UNL     1       2.967   0.461  22.462  0.00  0.00    +0.142 A 
ATOM     31  F   UNL     1       3.735   0.624  22.209  0.00  0.00    -0.204 F 
ATOM     32  C   UNL     1       2.708   0.734  23.196  0.00  0.00    +0.031 A 
ATOM     33  C   UNL     1       1.940   0.571  23.450  0.00  0.00    +0.021 A 
ENDBRANCH  25  26
ENDBRANCH  10  22
BRANCH   9   7
ATOM      6  N   UNL     1      -2.419  -0.297  24.221  0.00  0.00    -0.194 NA
ATOM      7  C   UNL     1      -2.082   0.277  24.707  0.00  0.00    +0.262 C 
ATOM      8  O   UNL     1      -2.039   0.155  25.522  0.00  0.00    -0.271 OA
BRANCH   6   5
ATOM      5  C   UNL     1      -2.714  -0.995  24.550  0.00  0.00    +0.193 C 
BRANCH   5  34
ATOM     34  C   UNL     1      -3.528  -1.102  24.630  0.00  0.00    +0.031 C 
ATOM     35  C   UNL     1      -4.012  -1.105  23.961  0.00  0.00    +0.002 C 
ATOM     36  C   UNL     1      -3.859  -1.205  25.379  0.00  0.00    +0.002 C 
ENDBRANCH   5  34
BRANCH   5   3
ATOM      3  C   UNL     1      -2.193  -1.584  24.799  0.00  0.00    +0.337 C 
ATOM      4  O   UNL     1      -1.986  -1.643  25.595  0.00  0.00    -0.248 OA
BRANCH   3   2
ATOM      1  C   UNL     1      -1.400  -2.736  24.505  0.00  0.00    +0.256 C 
ATOM      2  O   UNL     1      -1.880  -2.116  24.250  0.00  0.00    -0.443 OA
ENDBRANCH   3   2
ENDBRANCH   5   3
ENDBRANCH   6   5
ENDBRANCH   9   7
TORSDOF 8
ENDMDL
MODEL 4
REMARK VINA RESULT:      -9.1      2.175      5.181
REMARK  Name = 
REMARK  8 active torsions:
REMARK  status: ('A' for Active; 'I' for Inactive)
REMARK    1  A    between atoms: O_2  and  C_3
REMARK    2  A    between atoms: C_3  and  C_5
REMARK    3  A    between atoms: C_5  and  N_6
REMARK    4  A    between atoms: C_5  and  C_34
REMARK    5  A    between atoms: C_7  and  C_9
REMARK    6  A    between atoms: C_10  and  N_22
REMARK    7  A    between atoms: C_14  and  C_16
REMARK    8  A    between atoms: N_25  and  C_26
REMARK                            x       y       z     vdW  Elec       q    Type
REMARK                         _______ _______ _______ _____ _____    ______ ____
ROOT
ATOM      9  C   UNL     1      -1.890   0.446  24.272  0.00  0.00    +0.174 C 
ATOM     10  C   UNL     1      -2.412   1.037  24.032  0.00  0.00    +0.126 C 
ATOM     11  C   UNL     1      -1.978   1.613  23.631  0.00  0.00    +0.045 C 
ATOM     12  C   UNL     1      -1.187   1.377  23.624  0.00  0.00    +0.096 C 
ATOM     13  N   UNL     1      -1.133   0.655  24.020  0.00  0.00    -0.267 N 
ATOM     14  C   UNL     1      -0.443   0.220  24.142  0.00  0.00    +0.269 C 
ATOM     15  O   UNL     1      -0.474  -0.496  24.551  0.00  0.00    -0.268 OA
ENDROOT
BRANCH  14  16
ATOM     16  C   UNL     1       0.278   0.501  23.857  0.00  0.00    +0.154 A 
ATOM     17  C   UNL     1       0.631   1.160  24.205  0.00  0.00    +0.123 A 
ATOM     18  N   UNL     1       1.353   1.441  23.920  0.00  0.00    -0.239 NA
ATOM     19  C   UNL     1       1.721   1.062  23.285  0.00  0.00    +0.120 A 
ATOM     20  C   UNL     1       1.368   0.404  22.937  0.00  0.00    +0.120 A 
ATOM     21  N   UNL     1       0.646   0.122  23.223  0.00  0.00    -0.236 NA
ENDBRANCH  14  16
BRANCH  10  22
ATOM     22  N   UNL     1      -3.226   1.051  24.169  0.00  0.00    -0.186 NA
ATOM     23  C   UNL     1      -3.585   1.737  24.455  0.00  0.00    +0.344 C 
ATOM     24  O   UNL     1      -3.130   2.409  24.605  0.00  0.00    -0.249 OA
ATOM     25  N   UNL     1      -4.398   1.750  24.591  0.00  0.00    -0.159 NA
BRANCH  25  26
ATOM     26  C   UNL     1      -4.757   2.436  24.878  0.00  0.00    +0.102 A 
ATOM     27  C   UNL     1      -5.359   2.382  25.439  0.00  0.00    +0.158 A 
ATOM     28  F   UNL     1      -5.603   1.644  25.714  0.00  0.00    -0.203 F 
ATOM     29  C   UNL     1      -5.718   3.068  25.725  0.00  0.00    +0.061 A 
ATOM     30  C   UNL     1      -5.475   3.807  25.450  0.00  0.00    +0.142 A 
ATOM     31  F   UNL     1      -5.834   4.493  25.736  0.00  0.00    -0.204 F 
ATOM     32  C   UNL     1      -4.872   3.860  24.889  0.00  0.00    +0.031 A 
ATOM     33  C   UNL     1      -4.514   3.175  24.603  0.00  0.00    +0.021 A 
ENDBRANCH  25  26
ENDBRANCH  10  22
BRANCH   9   7
ATOM      6  N   UNL     1      -2.516  -0.838  24.321  0.00  0.00    -0.194 NA
ATOM      7  C   UNL     1      -2.090  -0.237  24.692  0.00  0.00    +0.262 C 
ATOM      8  O   UNL     1      -1.863  -0.317  25.481  0.00  0.00    -0.271 OA
BRANCH   6   5
ATOM      5  C   UNL     1      -2.716  -1.520  24.741  0.00  0.00    +0.193 C 
BRANCH   5  34
ATOM     34  C   UNL     1      -3.386  -1.527  25.222  0.00  0.00    +0.031 C 
ATOM     35  C   UNL     1      -4.136  -1.602  24.884  0.00  0.00    +0.002 C 
ATOM     36  C   UNL     1      -3.308  -1.461  26.040  0.00  0.00    +0.002 C 
ENDBRANCH   5  34
BRANCH   5   3
ATOM      3  C   UNL     1      -2.245  -2.194  24.679  0.00  0.00    +0.337 C 
ATOM      4  O   UNL     1      -1.842  -2.479  25.340  0.00  0.00    -0.248 OA
BRANCH   3   2
ATOM      1  C   UNL     1      -1.743  -3.284  23.902  0.00  0.00    +0.256 C 
ATOM      2  O   UNL     1      -2.177  -2.584  23.954  0.00  0.00    -0.443 OA
ENDBRANCH   3   2
ENDBRANCH   5   3
ENDBRANCH   6   5
ENDBRANCH   9   7
TORSDOF 8
ENDMDL
MODEL 5
REMARK VINA RESULT:      -9.0      1.810      4.308
REMARK  Name = 
REMARK  8 active torsions:
REMARK  status: ('A' for Active; 'I' for Inactive)
REMARK    1  A    between atoms: O_2  and  C_3
REMARK    2  A    between atoms: C_3  and  C_5
REMARK    3  A    between atoms: C_5  and  N_6
REMARK    4  A    between atoms: C_5  and  C_34
REMARK    5  A    between atoms: C_7  and  C_9
REMARK    6  A    between atoms: C_10  and  N_22
REMARK    7  A    between atoms: C_14  and  C_16
REMARK    8  A    between atoms: N_25  and  C_26
REMARK                            x       y       z     vdW  Elec       q    Type
REMARK                         _______ _______ _______ _____ _____    ______ ____
ROOT
ATOM      9  C   UNL     1      -0.324   0.621  24.139  0.00  0.00    +0.174 C 
ATOM     10  C   UNL     1      -0.700  -0.089  24.327  0.00  0.00    +0.126 C 
ATOM     11  C   UNL     1      -0.207  -0.709  24.094  0.00  0.00    +0.045 C 
ATOM     12  C   UNL     1       0.474  -0.380  23.761  0.00  0.00    +0.096 C 
ATOM     13  N   UNL     1       0.401   0.441  23.789  0.00  0.00    -0.267 N 
ATOM     14  C   UNL     1       0.956   0.987  23.516  0.00  0.00    +0.269 C 
ATOM     15  O   UNL     1       0.806   1.796  23.581  0.00  0.00    -0.268 OA
ENDROOT
BRANCH  14  16
ATOM     16  C   UNL     1       1.661   0.724  23.177  0.00  0.00    +0.154 A 
ATOM     17  C   UNL     1       1.642   0.224  22.521  0.00  0.00    +0.123 A 
ATOM     18  N   UNL     1       2.346  -0.039  22.182  0.00  0.00    -0.239 NA
ATOM     19  C   UNL     1       3.070   0.199  22.499  0.00  0.00    +0.120 A 
ATOM     20  C   UNL     1       3.089   0.698  23.155  0.00  0.00    +0.120 A 
ATOM     21  N   UNL     1       2.385   0.962  23.494  0.00  0.00    -0.236 NA
ENDBRANCH  14  16
BRANCH  10  22
ATOM     22  N   UNL     1      -1.439  -0.167  24.685  0.00  0.00    -0.186 NA
ATOM     23  C   UNL     1      -1.957  -0.761  24.439  0.00  0.00    +0.344 C 
ATOM     24  O   UNL     1      -1.735  -1.277  23.834  0.00  0.00    -0.249 OA
ATOM     25  N   UNL     1      -2.696  -0.839  24.797  0.00  0.00    -0.159 NA
BRANCH  25  26
ATOM     26  C   UNL     1      -3.213  -1.432  24.551  0.00  0.00    +0.102 A 
ATOM     27  C   UNL     1      -3.911  -1.234  24.158  0.00  0.00    +0.158 A 
ATOM     28  F   UNL     1      -4.091  -0.443  24.011  0.00  0.00    -0.203 F 
ATOM     29  C   UNL     1      -4.428  -1.828  23.911  0.00  0.00    +0.061 A 
ATOM     30  C   UNL     1      -4.248  -2.619  24.058  0.00  0.00    +0.142 A 
ATOM     31  F   UNL     1      -4.765  -3.213  23.812  0.00  0.00    -0.204 F 
ATOM     32  C   UNL     1      -3.550  -2.818  24.452  0.00  0.00    +0.031 A 
ATOM     33  C   UNL     1      -3.033  -2.224  24.698  0.00  0.00    +0.021 A 
ENDBRANCH  25  26
ENDBRANCH  10  22
BRANCH   9   7
ATOM      6  N   UNL     1      -0.796   1.619  25.046  0.00  0.00    -0.194 NA
ATOM      7  C   UNL     1      -0.622   1.378  24.276  0.00  0.00    +0.262 C 
ATOM      8  O   UNL     1      -0.746   1.894  23.644  0.00  0.00    -0.271 OA
BRANCH   6   5
ATOM      5  C   UNL     1      -1.094   2.377  25.183  0.00  0.00    +0.193 C 
BRANCH   5  34
ATOM     34  C   UNL     1      -0.636   2.933  25.585  0.00  0.00    +0.031 C 
ATOM     35  C   UNL     1      -0.284   2.736  26.305  0.00  0.00    +0.002 C 
ATOM     36  C   UNL     1      -0.531   3.687  25.267  0.00  0.00    +0.002 C 
ENDBRANCH   5  34
BRANCH   5   3
ATOM      3  C   UNL     1      -1.849   2.576  24.919  0.00  0.00    +0.337 C 
ATOM      4  O   UNL     1      -1.946   2.955  24.193  0.00  0.00    -0.248 OA
BRANCH   3   2
ATOM      1  C   UNL     1      -3.253   2.680  25.167  0.00  0.00    +0.256 C 
ATOM      2  O   UNL     1      -2.509   2.396  25.382  0.00  0.00    -0.443 OA
ENDBRANCH   3   2
ENDBRANCH   5   3
ENDBRANCH   6   5
ENDBRANCH   9   7
TORSDOF 8
ENDMDL
MODEL 6
REMARK VINA RESULT:      -8.6      2.174      4.783
REMARK  Name = 
REMARK  8 active torsions:
REMARK  status: ('A' for Active; 'I' for Inactive)
REMARK    1  A    between atoms: O_2  and  C_3
REMARK    2  A    between atoms: C_3  and  C_5
REMARK    3  A    between atoms: C_5  and  N_6
REMARK    4  A    between atoms: C_5  and  C_34
REMARK    5  A    between atoms: C_7  and  C_9
REMARK    6  A    between atoms: C_10  and  N_22
REMARK    7  A    between atoms: C_14  and  C_16
REMARK    8  A    between atoms: N_25  and  C_26
REMARK                            x       y       z     vdW  Elec       q    Type
REMARK                         _______ _______ _______ _____ _____    ______ ____
ROOT
ATOM      9  C   UNL     1      -2.541   0.272  24.694  0.00  0.00    +0.174 C 
ATOM     10  C   UNL     1      -3.171   0.795  24.600  0.00  0.00    +0.126 C 
ATOM     11  C   UNL     1      -3.860   0.351  24.509  0.00  0.00    +0.045 C 
ATOM     12  C   UNL     1      -3.655  -0.448  24.547  0.00  0.00    +0.096 C 
ATOM     13  N   UNL     1      -2.839  -0.496  24.661  0.00  0.00    -0.267 N 
ATOM     14  C   UNL     1      -2.400  -1.191  24.730  0.00  0.00    +0.269 C 
ATOM     15  O   UNL     1      -1.583  -1.153  24.844  0.00  0.00    -0.268 OA
ENDROOT
BRANCH  14  16
ATOM     16  C   UNL     1      -2.776  -1.924  24.686  0.00  0.00    +0.154 A 
ATOM     17  C   UNL     1      -3.120  -2.252  25.361  0.00  0.00    +0.123 A 
ATOM     18  N   UNL     1      -3.497  -2.985  25.317  0.00  0.00    -0.239 NA
ATOM     19  C   UNL     1      -3.529  -3.389  24.598  0.00  0.00    +0.120 A 
ATOM     20  C   UNL     1      -3.185  -3.061  23.925  0.00  0.00    +0.120 A 
ATOM     21  N   UNL     1      -2.809  -2.328  23.968  0.00  0.00    -0.236 NA
ENDBRANCH  14  16
BRANCH  10  22
ATOM     22  N   UNL     1      -3.122   1.619  24.598  0.00  0.00    -0.186 NA
ATOM     23  C   UNL     1      -3.775   2.072  24.819  0.00  0.00    +0.344 C 
ATOM     24  O   UNL     1      -4.478   1.702  25.042  0.00  0.00    -0.249 OA
ATOM     25  N   UNL     1      -3.726   2.895  24.816  0.00  0.00    -0.159 NA
BRANCH  25  26
ATOM     26  C   UNL     1      -4.379   3.349  25.037  0.00  0.00    +0.102 A 
ATOM     27  C   UNL     1      -4.478   4.107  24.728  0.00  0.00    +0.158 A 
ATOM     28  F   UNL     1      -3.925   4.412  24.198  0.00  0.00    -0.203 F 
ATOM     29  C   UNL     1      -5.132   4.560  24.949  0.00  0.00    +0.061 A 
ATOM     30  C   UNL     1      -5.685   4.255  25.479  0.00  0.00    +0.142 A 
ATOM     31  F   UNL     1      -6.339   4.708  25.700  0.00  0.00    -0.204 F 
ATOM     32  C   UNL     1      -5.586   3.496  25.788  0.00  0.00    +0.031 A 
ATOM     33  C   UNL     1      -4.933   3.043  25.567  0.00  0.00    +0.021 A 
ENDBRANCH  25  26
ENDBRANCH  10  22
BRANCH   9   7
ATOM      6  N   UNL     1      -1.329   0.835  24.188  0.00  0.00    -0.194 NA
ATOM      7  C   UNL     1      -1.749   0.480  24.803  0.00  0.00    +0.262 C 
ATOM      8  O   UNL     1      -1.379   0.334  25.525  0.00  0.00    -0.271 OA
BRANCH   6   5
ATOM      5  C   UNL     1      -0.538   1.044  24.296  0.00  0.00    +0.193 C 
BRANCH   5  34
ATOM     34  C   UNL     1      -0.345   1.742  24.692  0.00  0.00    +0.031 C 
ATOM     35  C   UNL     1      -0.386   2.466  24.296  0.00  0.00    +0.002 C 
ATOM     36  C   UNL     1      -0.112   1.717  25.483  0.00  0.00    +0.002 C 
ENDBRANCH   5  34
BRANCH   5   3
ATOM      3  C   UNL     1       0.060   0.554  24.008  0.00  0.00    +0.337 C 
ATOM      4  O   UNL     1       0.590   0.198  24.531  0.00  0.00    -0.248 OA
BRANCH   3   2
ATOM      1  C   UNL     1       0.758  -0.024  22.903  0.00  0.00    +0.256 C 
ATOM      2  O   UNL     1       0.129   0.421  23.196  0.00  0.00    -0.443 OA
ENDBRANCH   3   2
ENDBRANCH   5   3
ENDBRANCH   6   5
ENDBRANCH   9   7
TORSDOF 8
ENDMDL
MODEL 7
REMARK VINA RESULT:      -8.2     15.977     18.579
REMARK  Name = 
REMARK  8 active torsions:
REMARK  status: ('A' for Active; 'I' for Inactive)
REMARK    1  A    between atoms: O_2  and  C_3
REMARK    2  A    between atoms: C_3  and  C_5
REMARK    3  A    between atoms: C_5  and  N_6
REMARK    4  A    between atoms: C_5  and  C_34
REMARK    5  A    between atoms: C_7  and  C_9
REMARK    6  A    between atoms: C_10  and  N_22
REMARK    7  A    between atoms: C_14  and  C_16
REMARK    8  A    between atoms: N_25  and  C_26
REMARK                            x       y       z     vdW  Elec       q    Type
REMARK                         _______ _______ _______ _____ _____    ______ ____
ROOT
ATOM      9  C   UNL     1      13.816   7.416  18.882  0.00  0.00    +0.174 C 
ATOM     10  C   UNL     1      13.108   7.114  19.177  0.00  0.00    +0.126 C 
ATOM     11  C   UNL     1      12.532   7.195  18.591  0.00  0.00    +0.045 C 
ATOM     12  C   UNL     1      12.886   7.547  17.934  0.00  0.00    +0.096 C 
ATOM     13  N   UNL     1      13.680   7.683  18.114  0.00  0.00    -0.267 N 
ATOM     14  C   UNL     1      14.238   8.026  17.613  0.00  0.00    +0.269 C 
ATOM     15  O   UNL     1      15.016   8.128  17.870  0.00  0.00    -0.268 OA
ENDROOT
BRANCH  14  16
ATOM     16  C   UNL     1      14.020   8.268  16.855  0.00  0.00    +0.154 A 
ATOM     17  C   UNL     1      13.444   8.851  16.759  0.00  0.00    +0.123 A 
ATOM     18  N   UNL     1      13.225   9.093  16.001  0.00  0.00    -0.239 NA
ATOM     19  C   UNL     1      13.583   8.753  15.340  0.00  0.00    +0.120 A 
ATOM     20  C   UNL     1      14.159   8.171  15.437  0.00  0.00    +0.120 A 
ATOM     21  N   UNL     1      14.378   7.928  16.194  0.00  0.00    -0.236 NA
ENDBRANCH  14  16
BRANCH  10  22
ATOM     22  N   UNL     1      12.994   6.789  19.927  0.00  0.00    -0.186 NA
ATOM     23  C   UNL     1      12.285   6.918  20.330  0.00  0.00    +0.344 C 
ATOM     24  O   UNL     1      11.691   7.373  19.983  0.00  0.00    -0.249 OA
ATOM     25  N   UNL     1      12.172   6.592  21.079  0.00  0.00    -0.159 NA
BRANCH  25  26
ATOM     26  C   UNL     1      11.463   6.722  21.482  0.00  0.00    +0.102 A 
ATOM     27  C   UNL     1      10.972   6.086  21.667  0.00  0.00    +0.158 A 
ATOM     28  F   UNL     1      11.188   5.320  21.449  0.00  0.00    -0.203 F 
ATOM     29  C   UNL     1      10.263   6.216  22.069  0.00  0.00    +0.061 A 
ATOM     30  C   UNL     1      10.046   6.981  22.287  0.00  0.00    +0.142 A 
ATOM     31  F   UNL     1       9.338   7.111  22.690  0.00  0.00    -0.204 F 
ATOM     32  C   UNL     1      10.538   7.618  22.102  0.00  0.00    +0.031 A 
ATOM     33  C   UNL     1      11.246   7.488  21.699  0.00  0.00    +0.021 A 
ENDBRANCH  25  26
ENDBRANCH  10  22
BRANCH   9   7
ATOM      6  N   UNL     1      14.919   6.745  19.495  0.00  0.00    -0.194 NA
ATOM      7  C   UNL     1      14.536   7.445  19.285  0.00  0.00    +0.262 C 
ATOM      8  O   UNL     1      14.873   8.173  19.477  0.00  0.00    -0.271 OA
BRANCH   6   5
ATOM      5  C   UNL     1      15.639   6.774  19.899  0.00  0.00    +0.193 C 
BRANCH   5  34
ATOM     34  C   UNL     1      15.666   7.048  20.676  0.00  0.00    +0.031 C 
ATOM     35  C   UNL     1      15.451   6.548  21.298  0.00  0.00    +0.002 C 
ATOM     36  C   UNL     1      15.907   7.821  20.834  0.00  0.00    +0.002 C 
ENDBRANCH   5  34
BRANCH   5   3
ATOM      3  C   UNL     1      16.331   6.529  19.523  0.00  0.00    +0.337 C 
ATOM      4  O   UNL     1      17.031   6.954  19.627  0.00  0.00    -0.248 OA
BRANCH   3   2
ATOM      1  C   UNL     1      17.014   5.618  18.659  0.00  0.00    +0.256 C 
ATOM      2  O   UNL     1      16.324   5.857  19.042  0.00  0.00    -0.443 OA
ENDBRANCH   3   2
ENDBRANCH   5   3
ENDBRANCH   6   5
ENDBRANCH   9   7
TORSDOF 8
ENDMDL
MODEL 8
REMARK VINA RESULT:      -8.2      2.456      5.672
REMARK  Name = 
REMARK  8 active torsions:
REMARK  status: ('A' for Active; 'I' for Inactive)
REMARK    1  A    between atoms: O_2  and  C_3
REMARK    2  A    between atoms: C_3  and  C_5
REMARK    3  A    between atoms: C_5  and  N_6
REMARK    4  A    between atoms: C_5  and  C_34
REMARK    5  A    between atoms: C_7  and  C_9
REMARK    6  A    between atoms: C_10  and  N_22
REMARK    7  A    between atoms: C_14  and  C_16
REMARK    8  A    between atoms: N_25  and  C_26
REMARK                            x       y       z     vdW  Elec       q    Type
REMARK                         _______ _______ _______ _____ _____    ______ ____
ROOT
ATOM      9  C   UNL     1      -0.994   0.337  24.191  0.00  0.00    +0.174 C 
ATOM     10  C   UNL     1      -1.380   1.062  24.110  0.00  0.00    +0.126 C 
ATOM     11  C   UNL     1      -0.938   1.529  23.593  0.00  0.00    +0.045 C 
ATOM     12  C   UNL     1      -0.279   1.092  23.355  0.00  0.00    +0.096 C 
ATOM     13  N   UNL     1      -0.314   0.356  23.725  0.00  0.00    -0.267 N 
ATOM     14  C   UNL     1       0.234  -0.255  23.643  0.00  0.00    +0.269 C 
ATOM     15  O   UNL     1       0.126  -0.965  24.050  0.00  0.00    -0.268 OA
ENDROOT
BRANCH  14  16
ATOM     16  C   UNL     1       0.892  -0.156  23.154  0.00  0.00    +0.154 A 
ATOM     17  C   UNL     1       0.866  -0.417  22.372  0.00  0.00    +0.123 A 
ATOM     18  N   UNL     1       1.523  -0.319  21.882  0.00  0.00    -0.239 NA
ATOM     19  C   UNL     1       2.206   0.040  22.176  0.00  0.00    +0.120 A 
ATOM     20  C   UNL     1       2.231   0.301  22.958  0.00  0.00    +0.120 A 
ATOM     21  N   UNL     1       1.574   0.203  23.448  0.00  0.00    -0.236 NA
ENDBRANCH  14  16
BRANCH  10  22
ATOM     22  N   UNL     1      -2.083   1.282  24.480  0.00  0.00    -0.186 NA
ATOM     23  C   UNL     1      -2.177   2.050  24.766  0.00  0.00    +0.344 C 
ATOM     24  O   UNL     1      -1.567   2.599  24.681  0.00  0.00    -0.249 OA
ATOM     25  N   UNL     1      -2.881   2.269  25.135  0.00  0.00    -0.159 NA
BRANCH  25  26
ATOM     26  C   UNL     1      -2.975   3.038  25.421  0.00  0.00    +0.102 A 
ATOM     27  C   UNL     1      -3.687   3.437  25.303  0.00  0.00    +0.158 A 
ATOM     28  F   UNL     1      -4.306   3.069  24.901  0.00  0.00    -0.203 F 
ATOM     29  C   UNL     1      -3.781   4.206  25.589  0.00  0.00    +0.061 A 
ATOM     30  C   UNL     1      -3.163   4.575  25.991  0.00  0.00    +0.142 A 
ATOM     31  F   UNL     1      -3.256   5.344  26.277  0.00  0.00    -0.204 F 
ATOM     32  C   UNL     1      -2.450   4.176  26.109  0.00  0.00    +0.031 A 
ATOM     33  C   UNL     1      -2.357   3.407  25.823  0.00  0.00    +0.021 A 
ENDBRANCH  25  26
ENDBRANCH  10  22
BRANCH   9   7
ATOM      6  N   UNL     1      -1.950  -0.685  24.479  0.00  0.00    -0.194 NA
ATOM      7  C   UNL     1      -1.245  -0.296  24.658  0.00  0.00    +0.262 C 
ATOM      8  O   UNL     1      -0.792  -0.538  25.303  0.00  0.00    -0.271 OA
BRANCH   6   5
ATOM      5  C   UNL     1      -2.201  -1.318  24.946  0.00  0.00    +0.193 C 
BRANCH   5  34
ATOM     34  C   UNL     1      -2.590  -1.176  25.659  0.00  0.00    +0.031 C 
ATOM     35  C   UNL     1      -2.170  -1.198  26.370  0.00  0.00    +0.002 C 
ATOM     36  C   UNL     1      -3.398  -1.012  25.663  0.00  0.00    +0.002 C 
ENDBRANCH   5  34
BRANCH   5   3
ATOM      3  C   UNL     1      -2.063  -2.093  24.698  0.00  0.00    +0.337 C 
ATOM      4  O   UNL     1      -1.537  -2.572  25.116  0.00  0.00    -0.248 OA
BRANCH   3   2
ATOM      1  C   UNL     1      -2.429  -3.196  23.867  0.00  0.00    +0.256 C 
ATOM      2  O   UNL     1      -2.451  -2.388  24.032  0.00  0.00    -0.443 OA
ENDBRANCH   3   2
ENDBRANCH   5   3
ENDBRANCH   6   5
ENDBRANCH   9   7
TORSDOF 8
ENDMDL
