MODEL 1
REMARK VINA RESULT:      -9.4      0.000      0.000
REMARK  Name = 
REMARK  8 active torsions:
REMARK  status: ('A' for Active; 'I' for Inactive)
REMARK    1  A    between atoms: O_2  and  C_3
REMARK    2  A    between atoms: C_3  and  C_4
REMARK    3  A    between atoms: C_4  and  O_5
REMARK    4  A    between atoms: O_5  and  C_6
REMARK    5  A    between atoms: C_8  and  C_12
REMARK    6  A    between atoms: C_15  and  C_17
REMARK    7  A    between atoms: N_21  and  C_22
REMARK    8  A    between atoms: C_22  and  C_23
REMARK                            x       y       z     vdW  Elec       q    Type
REMARK                         _______ _______ _______ _____ _____    ______ ____
ROOT
ATOM     12  C   UNL     1      -4.044   1.491  24.466  0.00  0.00    +0.204 A 
ATOM     13  N   UNL     1      -3.873   1.404  23.664  0.00  0.00    -0.056 NA
ATOM     14  O   UNL     1      -3.690   0.613  23.527  0.00  0.00    -0.336 OA
ATOM     15  C   UNL     1      -3.747   0.209  24.244  0.00  0.00    +0.251 A 
ATOM     16  N   UNL     1      -3.966   0.751  24.825  0.00  0.00    -0.190 NA
ENDROOT
BRANCH  12   8
ATOM      6  C   UNL     1      -3.885   3.399  25.514  0.00  0.00    +0.225 A 
ATOM      7  C   UNL     1      -3.673   2.697  25.136  0.00  0.00    +0.061 A 
ATOM      8  C   UNL     1      -4.256   2.193  24.844  0.00  0.00    +0.045 A 
ATOM      9  C   UNL     1      -5.053   2.391  24.931  0.00  0.00    +0.024 A 
ATOM     10  C   UNL     1      -5.265   3.093  25.309  0.00  0.00    +0.102 A 
ATOM     11  N   UNL     1      -4.680   3.597  25.600  0.00  0.00    -0.210 NA
BRANCH   6   5
ATOM      5  O   UNL     1      -3.300   3.903  25.806  0.00  0.00    -0.457 OA
BRANCH   5   4
ATOM      4  C   UNL     1      -2.734   4.218  25.294  0.00  0.00    +0.239 C 
BRANCH   4   3
ATOM      3  C   UNL     1      -2.052   4.569  25.597  0.00  0.00    +0.189 C 
BRANCH   3   2
ATOM      1  C   UNL     1      -0.870   5.038  24.947  0.00  0.00    +0.174 C 
ATOM      2  O   UNL     1      -1.658   5.149  25.163  0.00  0.00    -0.347 OA
ENDBRANCH   3   2
ENDBRANCH   4   3
ENDBRANCH   5   4
ENDBRANCH   6   5
ENDBRANCH  12   8
BRANCH  15  17
ATOM     17  C   UNL     1      -3.609  -0.597  24.360  0.00  0.00    +0.138 C 
ATOM     18  C   UNL     1      -4.152  -1.204  24.233  0.00  0.00    +0.027 C 
ATOM     19  C   UNL     1      -3.783  -1.918  24.417  0.00  0.00    +0.019 C 
ATOM     20  C   UNL     1      -3.011  -1.752  24.658  0.00  0.00    +0.073 C 
ATOM     21  N   UNL     1      -2.904  -0.935  24.623  0.00  0.00    -0.260 NA
BRANCH  21  22
ATOM     22  C   UNL     1      -2.213  -0.527  24.816  0.00  0.00    +0.139 C 
BRANCH  22  23
ATOM     23  C   UNL     1      -1.504  -0.938  24.905  0.00  0.00    +0.155 A 
ATOM     24  N   UNL     1      -1.220  -1.272  25.604  0.00  0.00    -0.226 NA
ATOM     25  C   UNL     1      -0.495  -1.627  25.440  0.00  0.00    +0.121 A 
ATOM     26  C   UNL     1      -0.329  -1.515  24.641  0.00  0.00    +0.121 A 
ATOM     27  N   UNL     1      -0.953  -1.088  24.309  0.00  0.00    -0.226 NA
ENDBRANCH  22  23
ENDBRANCH  21  22
ENDBRANCH  15  17
TORSDOF 8
ENDMDL
MODEL 2
REMARK VINA RESULT:      -9.2      1.961      3.313
REMARK  Name = 
REMARK  8 active torsions:
REMARK  status: ('A' for Active; 'I' for Inactive)
REMARK    1  A    between atoms: O_2  and  C_3
REMARK    2  A    between atoms: C_3  and  C_4
REMARK    3  A    between atoms: C_4  and  O_5
REMARK    4  A    between atoms: O_5  and  C_6
REMARK    5  A    between atoms: C_8  and  C_12
REMARK    6  A    between atoms: C_15  and  C_17
REMARK    7  A    between atoms: N_21  and  C_22
REMARK    8  A    between atoms: C_22  and  C_23
REMARK                            x       y       z     vdW  Elec       q    Type
REMARK                         _______ _______ _______ _____ _____    ______ ____
ROOT
ATOM     12  C   UNL     1      -0.696   2.816  25.227  0.00  0.00    +0.204 A 
ATOM     13  N   UNL     1      -0.121   2.567  25.763  0.00  0.00    -0.056 NA
ATOM     14  O   UNL     1       0.218   1.874  25.471  0.00  0.00    -0.336 OA
ATOM     15  C   UNL     1      -0.147   1.695  24.753  0.00  0.00    +0.251 A 
ATOM     16  N   UNL     1      -0.712   2.276  24.602  0.00  0.00    -0.190 NA
ENDROOT
BRANCH  12   8
ATOM      6  C   UNL     1      -2.408   4.090  25.686  0.00  0.00    +0.225 A 
ATOM      7  C   UNL     1      -1.932   3.420  25.611  0.00  0.00    +0.061 A 
ATOM      8  C   UNL     1      -1.171   3.486  25.301  0.00  0.00    +0.045 A 
ATOM      9  C   UNL     1      -0.884   4.224  25.065  0.00  0.00    +0.024 A 
ATOM     10  C   UNL     1      -1.360   4.894  25.140  0.00  0.00    +0.102 A 
ATOM     11  N   UNL     1      -2.121   4.826  25.450  0.00  0.00    -0.210 NA
BRANCH   6   5
ATOM      5  O   UNL     1      -3.169   4.023  25.996  0.00  0.00    -0.457 OA
BRANCH   5   4
ATOM      4  C   UNL     1      -3.791   3.776  25.513  0.00  0.00    +0.239 C 
BRANCH   4   3
ATOM      3  C   UNL     1      -4.524   3.593  25.844  0.00  0.00    +0.189 C 
BRANCH   3   2
ATOM      1  C   UNL     1      -5.711   2.848  25.567  0.00  0.00    +0.174 C 
ATOM      2  O   UNL     1      -5.169   3.433  25.356  0.00  0.00    -0.347 OA
ENDBRANCH   3   2
ENDBRANCH   4   3
ENDBRANCH   5   4
ENDBRANCH   6   5
ENDBRANCH  12   8
BRANCH  15  17
ATOM     17  C   UNL     1       0.023   1.047  24.271  0.00  0.00    +0.138 C 
ATOM     18  C   UNL     1       0.518   1.050  23.612  0.00  0.00    +0.027 C 
ATOM     19  C   UNL     1       0.529   0.287  23.298  0.00  0.00    +0.019 C 
ATOM     20  C   UNL     1       0.039  -0.187  23.763  0.00  0.00    +0.073 C 
ATOM     21  N   UNL     1      -0.274   0.283  24.364  0.00  0.00    -0.260 NA
BRANCH  21  22
ATOM     22  C   UNL     1      -0.792   0.032  24.955  0.00  0.00    +0.139 C 
BRANCH  22  23
ATOM     23  C   UNL     1      -1.114  -0.727  24.927  0.00  0.00    +0.155 A 
ATOM     24  N   UNL     1      -0.770  -1.412  25.232  0.00  0.00    -0.226 NA
ATOM     25  C   UNL     1      -1.280  -2.041  25.081  0.00  0.00    +0.121 A 
ATOM     26  C   UNL     1      -1.939  -1.748  24.682  0.00  0.00    +0.121 A 
ATOM     27  N   UNL     1      -1.837  -0.934  24.587  0.00  0.00    -0.226 NA
ENDBRANCH  22  23
ENDBRANCH  21  22
ENDBRANCH  15  17
TORSDOF 8
ENDMDL
MODEL 3
REMARK VINA RESULT:      -9.2      1.946      5.665
REMARK  Name = 
REMARK  8 active torsions:
REMARK  status: ('A' for Active; 'I' for Inactive)
REMARK    1  A    between atoms: O_2  and  C_3
REMARK    2  A    between atoms: C_3  and  C_4
REMARK    3  A    between atoms: C_4  and  O_5
REMARK    4  A    between atoms: O_5  and  C_6
REMARK    5  A    between atoms: C_8  and  C_12
REMARK    6  A    between atoms: C_15  and  C_17
REMARK    7  A    between atoms: N_21  and  C_22
REMARK    8  A    between atoms: C_22  and  C_23
REMARK                            x       y       z     vdW  Elec       q    Type
REMARK                         _______ _______ _______ _____ _____    ______ ____
ROOT
ATOM     12  C   UNL     1      -0.527   1.607  25.077  0.00  0.00    +0.204 A 
ATOM     13  N   UNL     1      -0.300   1.786  25.849  0.00  0.00    -0.056 NA
ATOM     14  O   UNL     1      -0.559   2.551  26.019  0.00  0.00    -0.336 OA
ATOM     15  C   UNL     1      -0.945   2.844  25.352  0.00  0.00    +0.251 A 
ATOM     16  N   UNL     1      -0.926   2.261  24.769  0.00  0.00    -0.190 NA
ENDROOT
BRANCH  12   8
ATOM      6  C   UNL     1      -0.584  -0.510  24.548  0.00  0.00    +0.225 A 
ATOM      7  C   UNL     1      -0.730   0.198  24.944  0.00  0.00    +0.061 A 
ATOM      8  C   UNL     1      -0.381   0.898  24.681  0.00  0.00    +0.045 A 
ATOM      9  C   UNL     1       0.114   0.889  24.020  0.00  0.00    +0.024 A 
ATOM     10  C   UNL     1       0.260   0.180  23.624  0.00  0.00    +0.102 A 
ATOM     11  N   UNL     1      -0.089  -0.520  23.888  0.00  0.00    -0.210 NA
BRANCH   6   5
ATOM      5  O   UNL     1      -0.933  -1.210  24.812  0.00  0.00    -0.457 OA
BRANCH   5   4
ATOM      4  C   UNL     1      -1.608  -1.500  24.438  0.00  0.00    +0.239 C 
BRANCH   4   3
ATOM      3  C   UNL     1      -2.005  -2.152  24.750  0.00  0.00    +0.189 C 
BRANCH   3   2
ATOM      1  C   UNL     1      -3.330  -2.685  24.701  0.00  0.00    +0.174 C 
ATOM      2  O   UNL     1      -2.618  -2.505  24.325  0.00  0.00    -0.347 OA
ENDBRANCH   3   2
ENDBRANCH   4   3
ENDBRANCH   5   4
ENDBRANCH   6   5
ENDBRANCH  12   8
BRANCH  15  17
ATOM     17  C   UNL     1      -1.290   3.590  25.281  0.00  0.00    +0.138 C 
ATOM     18  C   UNL     1      -0.894   4.294  25.115  0.00  0.00    +0.027 C 
ATOM     19  C   UNL     1      -1.451   4.902  25.094  0.00  0.00    +0.019 C 
ATOM     20  C   UNL     1      -2.193   4.573  25.247  0.00  0.00    +0.073 C 
ATOM     21  N   UNL     1      -2.093   3.763  25.362  0.00  0.00    -0.260 NA
BRANCH  21  22
ATOM     22  C   UNL     1      -2.691   3.219  25.530  0.00  0.00    +0.139 C 
BRANCH  22  23
ATOM     23  C   UNL     1      -3.478   3.414  25.380  0.00  0.00    +0.155 A 
ATOM     24  N   UNL     1      -3.866   3.347  24.655  0.00  0.00    -0.226 NA
ATOM     25  C   UNL     1      -4.643   3.602  24.756  0.00  0.00    +0.121 A 
ATOM     26  C   UNL     1      -4.737   3.828  25.544  0.00  0.00    +0.121 A 
ATOM     27  N   UNL     1      -4.017   3.712  25.930  0.00  0.00    -0.226 NA
ENDBRANCH  22  23
ENDBRANCH  21  22
ENDBRANCH  15  17
TORSDOF 8
ENDMDL
MODEL 4
REMARK VINA RESULT:      -8.8      1.927      4.393
REMARK  Name = 
REMARK  8 active torsions:
REMARK  status: ('A' for Active; 'I' for Inactive)
REMARK    1  A    between atoms: O_2  and  C_3
REMARK    2  A    between atoms: C_3  and  C_4
REMARK    3  A    between atoms: C_4  and  O_5
REMARK    4  A    between atoms: O_5  and  C_6
REMARK    5  A    between atoms: C_8  and  C_12
REMARK    6  A    between atoms: C_15  and  C_17
REMARK    7  A    between atoms: N_21  and  C_22
REMARK    8  A    between atoms: C_22  and  C_23
REMARK                            x       y       z     vdW  Elec       q    Type
REMARK                         _______ _______ _______ _____ _____    ______ ____
ROOT
ATOM     12  C   UNL     1      -3.877   3.351  25.661  0.00  0.00    +0.204 A 
ATOM     13  N   UNL     1      -3.794   3.762  26.371  0.00  0.00    -0.056 NA
ATOM     14  O   UNL     1      -3.073   4.162  26.350  0.00  0.00    -0.336 OA
ATOM     15  C   UNL     1      -2.711   3.999  25.627  0.00  0.00    +0.251 A 
ATOM     16  N   UNL     1      -3.208   3.497  25.201  0.00  0.00    -0.190 NA
ENDROOT
BRANCH  12   8
ATOM      6  C   UNL     1      -5.030   1.681  24.856  0.00  0.00    +0.225 A 
ATOM      7  C   UNL     1      -4.389   2.155  25.069  0.00  0.00    +0.061 A 
ATOM      8  C   UNL     1      -4.518   2.876  25.448  0.00  0.00    +0.045 A 
ATOM      9  C   UNL     1      -5.288   3.123  25.614  0.00  0.00    +0.024 A 
ATOM     10  C   UNL     1      -5.928   2.649  25.401  0.00  0.00    +0.102 A 
ATOM     11  N   UNL     1      -5.799   1.928  25.022  0.00  0.00    -0.210 NA
BRANCH   6   5
ATOM      5  O   UNL     1      -4.900   0.959  24.477  0.00  0.00    -0.457 OA
BRANCH   5   4
ATOM      4  C   UNL     1      -4.530   0.342  24.881  0.00  0.00    +0.239 C 
BRANCH   4   3
ATOM      3  C   UNL     1      -4.356  -0.362  24.488  0.00  0.00    +0.189 C 
BRANCH   3   2
ATOM      1  C   UNL     1      -3.790  -1.674  24.521  0.00  0.00    +0.174 C 
ATOM      2  O   UNL     1      -4.106  -1.022  24.916  0.00  0.00    -0.347 OA
ENDBRANCH   3   2
ENDBRANCH   4   3
ENDBRANCH   5   4
ENDBRANCH   6   5
ENDBRANCH  12   8
BRANCH  15  17
ATOM     17  C   UNL     1      -1.980   4.286  25.374  0.00  0.00    +0.138 C 
ATOM     18  C   UNL     1      -1.822   5.056  25.125  0.00  0.00    +0.027 C 
ATOM     19  C   UNL     1      -1.023   5.100  24.924  0.00  0.00    +0.019 C 
ATOM     20  C   UNL     1      -0.687   4.356  25.049  0.00  0.00    +0.073 C 
ATOM     21  N   UNL     1      -1.279   3.854  25.327  0.00  0.00    -0.260 NA
BRANCH  21  22
ATOM     22  C   UNL     1      -1.186   3.058  25.525  0.00  0.00    +0.139 C 
BRANCH  22  23
ATOM     23  C   UNL     1      -0.575   2.619  25.187  0.00  0.00    +0.155 A 
ATOM     24  N   UNL     1      -0.568   2.302  24.425  0.00  0.00    -0.226 NA
ATOM     25  C   UNL     1       0.148   1.908  24.320  0.00  0.00    +0.121 A 
ATOM     26  C   UNL     1       0.585   1.979  25.016  0.00  0.00    +0.121 A 
ATOM     27  N   UNL     1       0.138   2.419  25.553  0.00  0.00    -0.226 NA
ENDBRANCH  22  23
ENDBRANCH  21  22
ENDBRANCH  15  17
TORSDOF 8
ENDMDL
MODEL 5
REMARK VINA RESULT:      -8.7      1.586      4.631
REMARK  Name = 
REMARK  8 active torsions:
REMARK  status: ('A' for Active; 'I' for Inactive)
REMARK    1  A    between atoms: O_2  and  C_3
REMARK    2  A    between atoms: C_3  and  C_4
REMARK    3  A    between atoms: C_4  and  O_5
REMARK    4  A    between atoms: O_5  and  C_6
REMARK    5  A    between atoms: C_8  and  C_12
REMARK    6  A    between atoms: C_15  and  C_17
REMARK    7  A    between atoms: N_21  and  C_22
REMARK    8  A    between atoms: C_22  and  C_23
REMARK                            x       y       z     vdW  Elec       q    Type
REMARK                         _______ _______ _______ _____ _____    ______ ____
ROOT
ATOM     12  C   UNL     1      -3.930  -0.064  24.643  0.00  0.00    +0.204 A 
ATOM     13  N   UNL     1      -4.302   0.155  23.940  0.00  0.00    -0.056 NA
ATOM     14  O   UNL     1      -4.669   0.883  24.062  0.00  0.00    -0.336 OA
ATOM     15  C   UNL     1      -4.524   1.115  24.841  0.00  0.00    +0.251 A 
ATOM     16  N   UNL     1      -4.068   0.530  25.200  0.00  0.00    -0.190 NA
ENDROOT
BRANCH  12   8
ATOM      6  C   UNL     1      -2.241  -1.414  24.939  0.00  0.00    +0.225 A 
ATOM      7  C   UNL     1      -2.674  -0.723  24.815  0.00  0.00    +0.061 A 
ATOM      8  C   UNL     1      -3.497  -0.755  24.768  0.00  0.00    +0.045 A 
ATOM      9  C   UNL     1      -3.887  -1.478  24.846  0.00  0.00    +0.024 A 
ATOM     10  C   UNL     1      -3.454  -2.169  24.971  0.00  0.00    +0.102 A 
ATOM     11  N   UNL     1      -2.631  -2.137  25.017  0.00  0.00    -0.210 NA
BRANCH   6   5
ATOM      5  O   UNL     1      -1.418  -1.382  24.986  0.00  0.00    -0.457 OA
BRANCH   5   4
ATOM      4  C   UNL     1      -0.975  -1.182  24.319  0.00  0.00    +0.239 C 
BRANCH   4   3
ATOM      3  C   UNL     1      -0.208  -0.892  24.404  0.00  0.00    +0.189 C 
BRANCH   3   2
ATOM      1  C   UNL     1       0.540  -0.150  23.439  0.00  0.00    +0.174 C 
ATOM      2  O   UNL     1       0.301  -0.874  23.755  0.00  0.00    -0.347 OA
ENDBRANCH   3   2
ENDBRANCH   4   3
ENDBRANCH   5   4
ENDBRANCH   6   5
ENDBRANCH  12   8
BRANCH  15  17
ATOM     17  C   UNL     1      -4.790   1.810  25.197  0.00  0.00    +0.138 C 
ATOM     18  C   UNL     1      -5.511   1.912  25.584  0.00  0.00    +0.027 C 
ATOM     19  C   UNL     1      -5.547   2.690  25.855  0.00  0.00    +0.019 C 
ATOM     20  C   UNL     1      -4.847   3.070  25.636  0.00  0.00    +0.073 C 
ATOM     21  N   UNL     1      -4.380   2.526  25.230  0.00  0.00    -0.260 NA
BRANCH  21  22
ATOM     22  C   UNL     1      -3.632   2.671  24.911  0.00  0.00    +0.139 C 
BRANCH  22  23
ATOM     23  C   UNL     1      -3.220   3.353  25.123  0.00  0.00    +0.155 A 
ATOM     24  N   UNL     1      -3.194   4.058  24.696  0.00  0.00    -0.226 NA
ATOM     25  C   UNL     1      -2.720   4.590  25.109  0.00  0.00    +0.121 A 
ATOM     26  C   UNL     1      -2.451   4.215  25.793  0.00  0.00    +0.121 A 
ATOM     27  N   UNL     1      -2.760   3.450  25.802  0.00  0.00    -0.226 NA
ENDBRANCH  22  23
ENDBRANCH  21  22
ENDBRANCH  15  17
TORSDOF 8
ENDMDL
MODEL 6
REMARK VINA RESULT:      -8.6      2.628      5.556
REMARK  Name = 
REMARK  8 active torsions:
REMARK  status: ('A' for Active; 'I' for Inactive)
REMARK    1  A    between atoms: O_2  and  C_3
REMARK    2  A    between atoms: C_3  and  C_4
REMARK    3  A    between atoms: C_4  and  O_5
REMARK    4  A    between atoms: O_5  and  C_6
REMARK    5  A    between atoms: C_8  and  C_12
REMARK    6  A    between atoms: C_15  and  C_17
REMARK    7  A    between atoms: N_21  and  C_22
REMARK    8  A    between atoms: C_22  and  C_23
REMARK                            x       y       z     vdW  Elec       q    Type
REMARK                         _______ _______ _______ _____ _____    ______ ____
ROOT
ATOM     12  C   UNL     1      -0.577   1.449  25.066  0.00  0.00    +0.204 A 
ATOM     13  N   UNL     1      -0.425   1.589  25.864  0.00  0.00    -0.056 NA
ATOM     14  O   UNL     1      -0.702   2.344  26.047  0.00  0.00    -0.336 OA
ATOM     15  C   UNL     1      -1.024   2.671  25.361  0.00  0.00    +0.251 A 
ATOM     16  N   UNL     1      -0.947   2.118  24.755  0.00  0.00    -0.190 NA
ENDROOT
BRANCH  12   8
ATOM      6  C   UNL     1       0.327   0.101  23.605  0.00  0.00    +0.225 A 
ATOM      7  C   UNL     1       0.141   0.789  24.021  0.00  0.00    +0.061 A 
ATOM      8  C   UNL     1      -0.391   0.761  24.651  0.00  0.00    +0.045 A 
ATOM      9  C   UNL     1      -0.737   0.042  24.866  0.00  0.00    +0.024 A 
ATOM     10  C   UNL     1      -0.551  -0.646  24.450  0.00  0.00    +0.102 A 
ATOM     11  N   UNL     1      -0.019  -0.616  23.820  0.00  0.00    -0.210 NA
BRANCH   6   5
ATOM      5  O   UNL     1       0.859   0.131  22.975  0.00  0.00    -0.457 OA
BRANCH   5   4
ATOM      4  C   UNL     1       1.665   0.015  23.110  0.00  0.00    +0.239 C 
BRANCH   4   3
ATOM      3  C   UNL     1       2.210   0.165  22.510  0.00  0.00    +0.189 C 
BRANCH   3   2
ATOM      1  C   UNL     1       3.578   0.568  22.428  0.00  0.00    +0.174 C 
ATOM      2  O   UNL     1       3.010   0.004  22.629  0.00  0.00    -0.347 OA
ENDBRANCH   3   2
ENDBRANCH   4   3
ENDBRANCH   5   4
ENDBRANCH   6   5
ENDBRANCH  12   8
BRANCH  15  17
ATOM     17  C   UNL     1      -1.364   3.420  25.294  0.00  0.00    +0.138 C 
ATOM     18  C   UNL     1      -0.958   4.128  25.177  0.00  0.00    +0.027 C 
ATOM     19  C   UNL     1      -1.513   4.737  25.143  0.00  0.00    +0.019 C 
ATOM     20  C   UNL     1      -2.262   4.406  25.240  0.00  0.00    +0.073 C 
ATOM     21  N   UNL     1      -2.170   3.592  25.333  0.00  0.00    -0.260 NA
BRANCH  21  22
ATOM     22  C   UNL     1      -2.778   3.044  25.446  0.00  0.00    +0.139 C 
BRANCH  22  23
ATOM     23  C   UNL     1      -3.562   3.268  25.323  0.00  0.00    +0.155 A 
ATOM     24  N   UNL     1      -4.076   3.572  25.892  0.00  0.00    -0.226 NA
ATOM     25  C   UNL     1      -4.800   3.719  25.527  0.00  0.00    +0.121 A 
ATOM     26  C   UNL     1      -4.736   3.507  24.733  0.00  0.00    +0.121 A 
ATOM     27  N   UNL     1      -3.969   3.228  24.606  0.00  0.00    -0.226 NA
ENDBRANCH  22  23
ENDBRANCH  21  22
ENDBRANCH  15  17
TORSDOF 8
ENDMDL
