MODEL 1
REMARK VINA RESULT:     -12.7      0.000      0.000
REMARK  Name = 
REMARK  7 active torsions:
REMARK  status: ('A' for Active; 'I' for Inactive)
REMARK    1  A    between atoms: S_2  and  C_5
REMARK    2  A    between atoms: C_8  and  C_9
REMARK    3  A    between atoms: C_9  and  N_10
REMARK    4  A    between atoms: C_14  and  C_15
REMARK    5  A    between atoms: C_17  and  C_20
REMARK    6  A    between atoms: C_24  and  N_26
REMARK    7  A    between atoms: C_29  and  C_32
REMARK                            x       y       z     vdW  Elec       q    Type
REMARK                         _______ _______ _______ _____ _____    ______ ____
ROOT
ATOM     15  C   UNL     1       0.073   1.544  24.517  0.00  0.00    +0.251 A 
ATOM     16  N   UNL     1      -0.542   2.082  24.406  0.00  0.00    -0.190 NA
ATOM     17  C   UNL     1      -0.429   2.711  24.927  0.00  0.00    +0.203 A 
ATOM     18  N   UNL     1       0.258   2.563  25.360  0.00  0.00    -0.056 NA
ATOM     19  O   UNL     1       0.568   1.841  25.107  0.00  0.00    -0.336 OA
ENDROOT
BRANCH  17  20
ATOM     20  C   UNL     1      -0.915   3.373  25.002  0.00  0.00    +0.043 A 
ATOM     21  C   UNL     1      -0.587   4.130  24.980  0.00  0.00    +0.024 A 
ATOM     22  C   UNL     1      -1.072   4.793  25.055  0.00  0.00    +0.100 A 
ATOM     23  N   UNL     1      -1.886   4.699  25.153  0.00  0.00    -0.229 NA
ATOM     24  C   UNL     1      -2.215   3.943  25.176  0.00  0.00    +0.132 A 
ATOM     25  C   UNL     1      -1.729   3.280  25.101  0.00  0.00    +0.037 A 
BRANCH  24  26
ATOM     26  N   UNL     1      -3.028   3.849  25.274  0.00  0.00    -0.293 N 
ATOM     27  C   UNL     1      -3.355   3.853  26.031  0.00  0.00    +0.093 C 
ATOM     28  C   UNL     1      -4.169   3.759  26.130  0.00  0.00    +0.031 C 
ATOM     29  C   UNL     1      -4.656   3.661  25.471  0.00  0.00    +0.083 C 
ATOM     30  C   UNL     1      -4.328   3.657  24.713  0.00  0.00    +0.031 C 
ATOM     31  C   UNL     1      -3.515   3.751  24.615  0.00  0.00    +0.093 C 
BRANCH  29  32
ATOM     32  C   UNL     1      -5.469   3.568  25.569  0.00  0.00    +0.260 C 
ATOM     33  N   UNL     1      -5.804   2.814  25.540  0.00  0.00    -0.088 NA
ATOM     34  O   UNL     1      -5.948   4.227  25.697  0.00  0.00    -0.272 OA
ENDBRANCH  29  32
ENDBRANCH  24  26
ENDBRANCH  17  20
BRANCH  15  14
ATOM     10  N   UNL     1      -0.168   0.110  24.302  0.00  0.00    -0.263 NA
ATOM     11  C   UNL     1       0.086  -0.448  23.750  0.00  0.00    +0.073 C 
ATOM     12  C   UNL     1       0.588  -0.068  23.216  0.00  0.00    +0.019 C 
ATOM     13  C   UNL     1       0.644   0.725  23.439  0.00  0.00    +0.027 C 
ATOM     14  C   UNL     1       0.177   0.835  24.110  0.00  0.00    +0.138 C 
BRANCH  10   9
ATOM      9  C   UNL     1      -0.677  -0.032  24.935  0.00  0.00    +0.099 C 
BRANCH   9   8
ATOM      5  C   UNL     1      -2.416  -1.784  24.758  0.00  0.00    +0.106 A 
ATOM      6  C   UNL     1      -2.602  -0.999  24.584  0.00  0.00    +0.018 A 
ATOM      7  C   UNL     1      -2.022  -0.415  24.643  0.00  0.00    -0.002 A 
ATOM      8  C   UNL     1      -1.256  -0.616  24.876  0.00  0.00    -0.006 A 
ATOM     35  C   UNL     1      -1.070  -1.401  25.049  0.00  0.00    -0.002 A 
ATOM     36  C   UNL     1      -1.651  -1.985  24.990  0.00  0.00    +0.018 A 
BRANCH   5   2
ATOM      1  C   UNL     1      -3.577  -2.950  24.640  0.00  0.00    +0.182 C 
ATOM      2  S   UNL     1      -2.996  -2.367  24.698  0.00  0.00    +0.010 S 
ATOM      3  O   UNL     1      -3.427  -1.999  25.299  0.00  0.00    -0.169 OA
ATOM      4  O   UNL     1      -2.567  -2.735  24.099  0.00  0.00    -0.169 OA
ENDBRANCH   5   2
ENDBRANCH   9   8
ENDBRANCH  10   9
ENDBRANCH  15  14
TORSDOF 7
ENDMDL
MODEL 2
REMARK VINA RESULT:     -11.7      1.477      4.972
REMARK  Name = 
REMARK  7 active torsions:
REMARK  status: ('A' for Active; 'I' for Inactive)
REMARK    1  A    between atoms: S_2  and  C_5
REMARK    2  A    between atoms: C_8  and  C_9
REMARK    3  A    between atoms: C_9  and  N_10
REMARK    4  A    between atoms: C_14  and  C_15
REMARK    5  A    between atoms: C_17  and  C_20
REMARK    6  A    between atoms: C_24  and  N_26
REMARK    7  A    between atoms: C_29  and  C_32
REMARK                            x       y       z     vdW  Elec       q    Type
REMARK                         _______ _______ _______ _____ _____    ______ ____
ROOT
ATOM     15  C   UNL     1      -0.411   2.998  25.031  0.00  0.00    +0.251 A 
ATOM     16  N   UNL     1      -0.622   2.350  24.567  0.00  0.00    -0.190 NA
ATOM     17  C   UNL     1      -0.104   1.732  24.740  0.00  0.00    +0.203 A 
ATOM     18  N   UNL     1       0.428   1.999  25.312  0.00  0.00    -0.056 NA
ATOM     19  O   UNL     1       0.238   2.781  25.492  0.00  0.00    -0.336 OA
ENDROOT
BRANCH  17  20
ATOM     20  C   UNL     1      -0.115   0.980  24.401  0.00  0.00    +0.043 A 
ATOM     21  C   UNL     1       0.490   0.750  23.889  0.00  0.00    +0.024 A 
ATOM     22  C   UNL     1       0.480  -0.002  23.550  0.00  0.00    +0.100 A 
ATOM     23  N   UNL     1      -0.134  -0.524  23.724  0.00  0.00    -0.229 NA
ATOM     24  C   UNL     1      -0.739  -0.295  24.236  0.00  0.00    +0.132 A 
ATOM     25  C   UNL     1      -0.729   0.458  24.575  0.00  0.00    +0.037 A 
BRANCH  24  26
ATOM     26  N   UNL     1      -1.354  -0.817  24.409  0.00  0.00    -0.293 N 
ATOM     27  C   UNL     1      -1.186  -1.601  24.601  0.00  0.00    +0.093 C 
ATOM     28  C   UNL     1      -1.801  -2.124  24.774  0.00  0.00    +0.031 C 
ATOM     29  C   UNL     1      -2.583  -1.862  24.755  0.00  0.00    +0.083 C 
ATOM     30  C   UNL     1      -2.750  -1.077  24.563  0.00  0.00    +0.031 C 
ATOM     31  C   UNL     1      -2.136  -0.555  24.389  0.00  0.00    +0.093 C 
BRANCH  29  32
ATOM     32  C   UNL     1      -3.197  -2.385  24.928  0.00  0.00    +0.260 C 
ATOM     33  N   UNL     1      -3.517  -2.857  24.332  0.00  0.00    -0.088 NA
ATOM     34  O   UNL     1      -3.492  -2.434  25.697  0.00  0.00    -0.272 OA
ENDBRANCH  29  32
ENDBRANCH  24  26
ENDBRANCH  17  20
BRANCH  15  14
ATOM     10  N   UNL     1      -1.502   3.913  25.397  0.00  0.00    -0.263 NA
ATOM     11  C   UNL     1      -1.664   4.711  25.263  0.00  0.00    +0.073 C 
ATOM     12  C   UNL     1      -1.044   5.025  24.818  0.00  0.00    +0.019 C 
ATOM     13  C   UNL     1      -0.499   4.422  24.677  0.00  0.00    +0.027 C 
ATOM     14  C   UNL     1      -0.782   3.734  25.035  0.00  0.00    +0.138 C 
BRANCH  10   9
ATOM      9  C   UNL     1      -1.977   3.387  25.818  0.00  0.00    +0.099 C 
BRANCH   9   8
ATOM      5  C   UNL     1      -4.442   3.534  25.651  0.00  0.00    +0.106 A 
ATOM      6  C   UNL     1      -4.042   3.955  26.238  0.00  0.00    +0.018 A 
ATOM      7  C   UNL     1      -3.220   3.906  26.294  0.00  0.00    -0.002 A 
ATOM      8  C   UNL     1      -2.798   3.436  25.762  0.00  0.00    -0.006 A 
ATOM     35  C   UNL     1      -3.198   3.015  25.176  0.00  0.00    -0.002 A 
ATOM     36  C   UNL     1      -4.020   3.065  25.121  0.00  0.00    +0.018 A 
BRANCH   5   2
ATOM      1  C   UNL     1      -6.085   3.632  25.542  0.00  0.00    +0.182 C 
ATOM      2  S   UNL     1      -5.263   3.584  25.596  0.00  0.00    +0.010 S 
ATOM      3  O   UNL     1      -5.329   2.817  25.895  0.00  0.00    -0.169 OA
ATOM      4  O   UNL     1      -5.198   4.349  25.298  0.00  0.00    -0.169 OA
ENDBRANCH   5   2
ENDBRANCH   9   8
ENDBRANCH  10   9
ENDBRANCH  15  14
TORSDOF 7
ENDMDL
MODEL 3
REMARK VINA RESULT:     -11.2      1.394      4.197
REMARK  Name = 
REMARK  7 active torsions:
REMARK  status: ('A' for Active; 'I' for Inactive)
REMARK    1  A    between atoms: S_2  and  C_5
REMARK    2  A    between atoms: C_8  and  C_9
REMARK    3  A    between atoms: C_9  and  N_10
REMARK    4  A    between atoms: C_14  and  C_15
REMARK    5  A    between atoms: C_17  and  C_20
REMARK    6  A    between atoms: C_24  and  N_26
REMARK    7  A    between atoms: C_29  and  C_32
REMARK                            x       y       z     vdW  Elec       q    Type
REMARK                         _______ _______ _______ _____ _____    ______ ____
ROOT
ATOM     15  C   UNL     1      -4.481   2.866  25.467  0.00  0.00    +0.251 A 
ATOM     16  N   UNL     1      -3.708   2.896  25.181  0.00  0.00    -0.190 NA
ATOM     17  C   UNL     1      -3.341   3.559  25.504  0.00  0.00    +0.203 A 
ATOM     18  N   UNL     1      -3.887   3.941  25.991  0.00  0.00    -0.056 NA
ATOM     19  O   UNL     1      -4.592   3.512  25.968  0.00  0.00    -0.336 OA
ENDROOT
BRANCH  17  20
ATOM     20  C   UNL     1      -2.564   3.801  25.366  0.00  0.00    +0.043 A 
ATOM     21  C   UNL     1      -2.349   4.587  25.491  0.00  0.00    +0.024 A 
ATOM     22  C   UNL     1      -1.573   4.830  25.353  0.00  0.00    +0.100 A 
ATOM     23  N   UNL     1      -1.012   4.286  25.090  0.00  0.00    -0.229 NA
ATOM     24  C   UNL     1      -1.226   3.499  24.965  0.00  0.00    +0.132 A 
ATOM     25  C   UNL     1      -2.003   3.257  25.103  0.00  0.00    +0.037 A 
BRANCH  24  26
ATOM     26  N   UNL     1      -0.665   2.955  24.702  0.00  0.00    -0.293 N 
ATOM     27  C   UNL     1      -0.227   2.519  25.247  0.00  0.00    +0.093 C 
ATOM     28  C   UNL     1       0.335   1.975  24.984  0.00  0.00    +0.031 C 
ATOM     29  C   UNL     1       0.458   1.867  24.176  0.00  0.00    +0.083 C 
ATOM     30  C   UNL     1       0.020   2.304  23.630  0.00  0.00    +0.031 C 
ATOM     31  C   UNL     1      -0.542   2.848  23.893  0.00  0.00    +0.093 C 
BRANCH  29  32
ATOM     32  C   UNL     1       1.020   1.323  23.913  0.00  0.00    +0.260 C 
ATOM     33  N   UNL     1       0.797   0.544  23.753  0.00  0.00    -0.088 NA
ATOM     34  O   UNL     1       1.804   1.557  23.809  0.00  0.00    -0.272 OA
ENDBRANCH  29  32
ENDBRANCH  24  26
ENDBRANCH  17  20
BRANCH  15  14
ATOM     10  N   UNL     1      -4.891   1.506  25.087  0.00  0.00    -0.263 NA
ATOM     11  C   UNL     1      -5.613   1.132  24.949  0.00  0.00    +0.073 C 
ATOM     12  C   UNL     1      -6.213   1.687  25.062  0.00  0.00    +0.019 C 
ATOM     13  C   UNL     1      -5.862   2.404  25.269  0.00  0.00    +0.027 C 
ATOM     14  C   UNL     1      -5.044   2.292  25.285  0.00  0.00    +0.138 C 
BRANCH  10   9
ATOM      9  C   UNL     1      -4.146   1.156  25.037  0.00  0.00    +0.099 C 
BRANCH   9   8
ATOM      5  C   UNL     1      -3.943  -1.250  24.492  0.00  0.00    +0.106 A 
ATOM      6  C   UNL     1      -3.974  -1.006  25.280  0.00  0.00    +0.018 A 
ATOM      7  C   UNL     1      -4.041  -0.205  25.462  0.00  0.00    -0.002 A 
ATOM      8  C   UNL     1      -4.078   0.354  24.855  0.00  0.00    -0.006 A 
ATOM     35  C   UNL     1      -4.047   0.110  24.067  0.00  0.00    -0.002 A 
ATOM     36  C   UNL     1      -3.979  -0.692  23.886  0.00  0.00    +0.018 A 
BRANCH   5   2
ATOM      1  C   UNL     1      -3.806  -2.854  24.131  0.00  0.00    +0.182 C 
ATOM      2  S   UNL     1      -3.875  -2.052  24.311  0.00  0.00    +0.010 S 
ATOM      3  O   UNL     1      -3.340  -2.146  24.934  0.00  0.00    -0.169 OA
ATOM      4  O   UNL     1      -4.408  -1.958  23.690  0.00  0.00    -0.169 OA
ENDBRANCH   5   2
ENDBRANCH   9   8
ENDBRANCH  10   9
ENDBRANCH  15  14
TORSDOF 7
ENDMDL
MODEL 4
REMARK VINA RESULT:     -11.2      1.771      4.687
REMARK  Name = 
REMARK  7 active torsions:
REMARK  status: ('A' for Active; 'I' for Inactive)
REMARK    1  A    between atoms: S_2  and  C_5
REMARK    2  A    between atoms: C_8  and  C_9
REMARK    3  A    between atoms: C_9  and  N_10
REMARK    4  A    between atoms: C_14  and  C_15
REMARK    5  A    between atoms: C_17  and  C_20
REMARK    6  A    between atoms: C_24  and  N_26
REMARK    7  A    between atoms: C_29  and  C_32
REMARK                            x       y       z     vdW  Elec       q    Type
REMARK                         _______ _______ _______ _____ _____    ______ ____
ROOT
ATOM     15  C   UNL     1      -2.944   3.862  25.528  0.00  0.00    +0.251 A 
ATOM     16  N   UNL     1      -3.279   3.205  25.157  0.00  0.00    -0.190 NA
ATOM     17  C   UNL     1      -4.013   3.062  25.503  0.00  0.00    +0.203 A 
ATOM     18  N   UNL     1      -4.134   3.632  26.088  0.00  0.00    -0.056 NA
ATOM     19  O   UNL     1      -3.474   4.126  26.103  0.00  0.00    -0.336 OA
ENDROOT
BRANCH  17  20
ATOM     20  C   UNL     1      -4.536   2.457  25.300  0.00  0.00    +0.043 A 
ATOM     21  C   UNL     1      -5.345   2.612  25.247  0.00  0.00    +0.024 A 
ATOM     22  C   UNL     1      -5.868   2.008  25.045  0.00  0.00    +0.100 A 
ATOM     23  N   UNL     1      -5.584   1.249  24.896  0.00  0.00    -0.229 NA
ATOM     24  C   UNL     1      -4.775   1.093  24.949  0.00  0.00    +0.132 A 
ATOM     25  C   UNL     1      -4.251   1.697  25.152  0.00  0.00    +0.037 A 
BRANCH  24  26
ATOM     26  N   UNL     1      -4.491   0.333  24.801  0.00  0.00    -0.293 N 
ATOM     27  C   UNL     1      -4.422   0.063  24.025  0.00  0.00    +0.093 C 
ATOM     28  C   UNL     1      -4.137  -0.697  23.876  0.00  0.00    +0.031 C 
ATOM     29  C   UNL     1      -3.921  -1.187  24.503  0.00  0.00    +0.083 C 
ATOM     30  C   UNL     1      -3.990  -0.917  25.280  0.00  0.00    +0.031 C 
ATOM     31  C   UNL     1      -4.275  -0.157  25.429  0.00  0.00    +0.093 C 
BRANCH  29  32
ATOM     32  C   UNL     1      -3.637  -1.947  24.355  0.00  0.00    +0.260 C 
ATOM     33  N   UNL     1      -2.850  -2.133  24.522  0.00  0.00    -0.088 NA
ATOM     34  O   UNL     1      -4.138  -2.520  24.039  0.00  0.00    -0.272 OA
ENDBRANCH  29  32
ENDBRANCH  24  26
ENDBRANCH  17  20
BRANCH  15  14
ATOM     10  N   UNL     1      -1.484   3.809  25.371  0.00  0.00    -0.263 NA
ATOM     11  C   UNL     1      -0.900   4.352  25.161  0.00  0.00    +0.073 C 
ATOM     12  C   UNL     1      -1.266   5.077  25.014  0.00  0.00    +0.019 C 
ATOM     13  C   UNL     1      -2.077   4.981  25.134  0.00  0.00    +0.027 C 
ATOM     14  C   UNL     1      -2.212   4.197  25.355  0.00  0.00    +0.138 C 
BRANCH  10   9
ATOM      9  C   UNL     1      -1.362   3.017  25.564  0.00  0.00    +0.099 C 
BRANCH   9   8
ATOM      5  C   UNL     1       0.284   1.672  24.296  0.00  0.00    +0.106 A 
ATOM      6  C   UNL     1      -0.450   1.847  23.963  0.00  0.00    +0.018 A 
ATOM      7  C   UNL     1      -0.999   2.295  24.385  0.00  0.00    -0.002 A 
ATOM      8  C   UNL     1      -0.813   2.569  25.142  0.00  0.00    -0.006 A 
ATOM     35  C   UNL     1      -0.079   2.394  25.475  0.00  0.00    -0.002 A 
ATOM     36  C   UNL     1       0.470   1.945  25.051  0.00  0.00    +0.018 A 
BRANCH   5   2
ATOM      1  C   UNL     1       1.380   0.774  23.449  0.00  0.00    +0.182 C 
ATOM      2  S   UNL     1       0.832   1.224  23.873  0.00  0.00    +0.010 S 
ATOM      3  O   UNL     1       0.283   0.610  23.813  0.00  0.00    -0.169 OA
ATOM      4  O   UNL     1       1.381   1.836  23.933  0.00  0.00    -0.169 OA
ENDBRANCH   5   2
ENDBRANCH   9   8
ENDBRANCH  10   9
ENDBRANCH  15  14
TORSDOF 7
ENDMDL
MODEL 5
REMARK VINA RESULT:     -10.9      1.798      3.742
REMARK  Name = 
REMARK  7 active torsions:
REMARK  status: ('A' for Active; 'I' for Inactive)
REMARK    1  A    between atoms: S_2  and  C_5
REMARK    2  A    between atoms: C_8  and  C_9
REMARK    3  A    between atoms: C_9  and  N_10
REMARK    4  A    between atoms: C_14  and  C_15
REMARK    5  A    between atoms: C_17  and  C_20
REMARK    6  A    between atoms: C_24  and  N_26
REMARK    7  A    between atoms: C_29  and  C_32
REMARK                            x       y       z     vdW  Elec       q    Type
REMARK                         _______ _______ _______ _____ _____    ______ ____
ROOT
ATOM     15  C   UNL     1      -4.293  -0.144  24.948  0.00  0.00    +0.251 A 
ATOM     16  N   UNL     1      -4.194   0.653  24.757  0.00  0.00    -0.190 NA
ATOM     17  C   UNL     1      -4.654   1.100  25.274  0.00  0.00    +0.203 A 
ATOM     18  N   UNL     1      -5.038   0.580  25.787  0.00  0.00    -0.056 NA
ATOM     19  O   UNL     1      -4.815  -0.189  25.586  0.00  0.00    -0.336 OA
ENDROOT
BRANCH  17  20
ATOM     20  C   UNL     1      -4.720   1.922  25.280  0.00  0.00    +0.043 A 
ATOM     21  C   UNL     1      -5.464   2.276  25.323  0.00  0.00    +0.024 A 
ATOM     22  C   UNL     1      -5.531   3.098  25.329  0.00  0.00    +0.100 A 
ATOM     23  N   UNL     1      -4.853   3.566  25.291  0.00  0.00    -0.229 NA
ATOM     24  C   UNL     1      -4.108   3.214  25.249  0.00  0.00    +0.132 A 
ATOM     25  C   UNL     1      -4.042   2.391  25.243  0.00  0.00    +0.037 A 
BRANCH  24  26
ATOM     26  N   UNL     1      -3.431   3.682  25.211  0.00  0.00    -0.293 N 
ATOM     27  C   UNL     1      -3.044   3.903  25.905  0.00  0.00    +0.093 C 
ATOM     28  C   UNL     1      -2.366   4.372  25.868  0.00  0.00    +0.031 C 
ATOM     29  C   UNL     1      -2.075   4.620  25.137  0.00  0.00    +0.083 C 
ATOM     30  C   UNL     1      -2.463   4.399  24.443  0.00  0.00    +0.031 C 
ATOM     31  C   UNL     1      -3.141   3.930  24.480  0.00  0.00    +0.093 C 
BRANCH  29  32
ATOM     32  C   UNL     1      -1.398   5.089  25.100  0.00  0.00    +0.260 C 
ATOM     33  N   UNL     1      -0.654   4.736  25.049  0.00  0.00    -0.088 NA
ATOM     34  O   UNL     1      -1.464   5.911  25.113  0.00  0.00    -0.272 OA
ENDBRANCH  29  32
ENDBRANCH  24  26
ENDBRANCH  17  20
BRANCH  15  14
ATOM     10  N   UNL     1      -3.132  -0.972  24.593  0.00  0.00    -0.263 NA
ATOM     11  C   UNL     1      -3.017  -1.651  24.140  0.00  0.00    +0.073 C 
ATOM     12  C   UNL     1      -3.749  -1.882  23.836  0.00  0.00    +0.019 C 
ATOM     13  C   UNL     1      -4.316  -1.345  24.102  0.00  0.00    +0.027 C 
ATOM     14  C   UNL     1      -3.935  -0.782  24.570  0.00  0.00    +0.138 C 
BRANCH  10   9
ATOM      9  C   UNL     1      -2.547  -0.556  24.999  0.00  0.00    +0.099 C 
BRANCH   9   8
ATOM      5  C   UNL     1      -0.319  -0.232  23.971  0.00  0.00    +0.106 A 
ATOM      6  C   UNL     1      -0.912   0.331  23.858  0.00  0.00    +0.018 A 
ATOM      7  C   UNL     1      -1.655   0.223  24.200  0.00  0.00    -0.002 A 
ATOM      8  C   UNL     1      -1.804  -0.448  24.656  0.00  0.00    -0.006 A 
ATOM     35  C   UNL     1      -1.212  -1.011  24.770  0.00  0.00    -0.002 A 
ATOM     36  C   UNL     1      -0.469  -0.902  24.427  0.00  0.00    +0.018 A 
BRANCH   5   2
ATOM      1  C   UNL     1       1.166  -0.015  23.286  0.00  0.00    +0.182 C 
ATOM      2  S   UNL     1       0.424  -0.123  23.629  0.00  0.00    +0.010 S 
ATOM      3  O   UNL     1       0.473  -0.933  23.481  0.00  0.00    -0.169 OA
ATOM      4  O   UNL     1       0.374   0.687  23.776  0.00  0.00    -0.169 OA
ENDBRANCH   5   2
ENDBRANCH   9   8
ENDBRANCH  10   9
ENDBRANCH  15  14
TORSDOF 7
ENDMDL
MODEL 6
REMARK VINA RESULT:      -9.9      2.731      6.216
REMARK  Name = 
REMARK  7 active torsions:
REMARK  status: ('A' for Active; 'I' for Inactive)
REMARK    1  A    between atoms: S_2  and  C_5
REMARK    2  A    between atoms: C_8  and  C_9
REMARK    3  A    between atoms: C_9  and  N_10
REMARK    4  A    between atoms: C_14  and  C_15
REMARK    5  A    between atoms: C_17  and  C_20
REMARK    6  A    between atoms: C_24  and  N_26
REMARK    7  A    between atoms: C_29  and  C_32
REMARK                            x       y       z     vdW  Elec       q    Type
REMARK                         _______ _______ _______ _____ _____    ______ ____
ROOT
ATOM     15  C   UNL     1      -0.460   0.966  24.522  0.00  0.00    +0.251 A 
ATOM     16  N   UNL     1       0.124   1.047  23.945  0.00  0.00    -0.190 NA
ATOM     17  C   UNL     1       0.336   0.293  23.689  0.00  0.00    +0.203 A 
ATOM     18  N   UNL     1      -0.117  -0.256  24.107  0.00  0.00    -0.056 NA
ATOM     19  O   UNL     1      -0.609   0.160  24.622  0.00  0.00    -0.336 OA
ENDROOT
BRANCH  17  20
ATOM     20  C   UNL     1       0.901   0.116  23.114  0.00  0.00    +0.043 A 
ATOM     21  C   UNL     1       0.663  -0.120  22.360  0.00  0.00    +0.024 A 
ATOM     22  C   UNL     1       1.227  -0.297  21.786  0.00  0.00    +0.100 A 
ATOM     23  N   UNL     1       2.030  -0.238  21.965  0.00  0.00    -0.229 NA
ATOM     24  C   UNL     1       2.269  -0.002  22.718  0.00  0.00    +0.132 A 
ATOM     25  C   UNL     1       1.704   0.175  23.293  0.00  0.00    +0.037 A 
BRANCH  24  26
ATOM     26  N   UNL     1       3.072   0.057  22.897  0.00  0.00    -0.293 N 
ATOM     27  C   UNL     1       3.458  -0.567  23.273  0.00  0.00    +0.093 C 
ATOM     28  C   UNL     1       4.261  -0.508  23.452  0.00  0.00    +0.031 C 
ATOM     29  C   UNL     1       4.679   0.176  23.255  0.00  0.00    +0.083 C 
ATOM     30  C   UNL     1       4.293   0.800  22.878  0.00  0.00    +0.031 C 
ATOM     31  C   UNL     1       3.489   0.741  22.699  0.00  0.00    +0.093 C 
BRANCH  29  32
ATOM     32  C   UNL     1       5.482   0.235  23.434  0.00  0.00    +0.260 C 
ATOM     33  N   UNL     1       5.724   0.617  24.124  0.00  0.00    -0.088 NA
ATOM     34  O   UNL     1       6.043  -0.088  22.922  0.00  0.00    -0.272 OA
ENDBRANCH  29  32
ENDBRANCH  24  26
ENDBRANCH  17  20
BRANCH  15  14
ATOM     10  N   UNL     1      -1.622   1.804  24.855  0.00  0.00    -0.263 NA
ATOM     11  C   UNL     1      -1.754   2.442  25.361  0.00  0.00    +0.073 C 
ATOM     12  C   UNL     1      -1.045   2.612  25.748  0.00  0.00    +0.019 C 
ATOM     13  C   UNL     1      -0.474   2.080  25.480  0.00  0.00    +0.027 C 
ATOM     14  C   UNL     1      -0.830   1.580  24.928  0.00  0.00    +0.138 C 
BRANCH  10   9
ATOM      9  C   UNL     1      -2.180   1.452  24.362  0.00  0.00    +0.099 C 
BRANCH   9   8
ATOM      5  C   UNL     1      -4.594   1.832  24.757  0.00  0.00    +0.106 A 
ATOM      6  C   UNL     1      -4.215   1.188  25.107  0.00  0.00    +0.018 A 
ATOM      7  C   UNL     1      -3.410   1.061  24.975  0.00  0.00    -0.002 A 
ATOM      8  C   UNL     1      -2.985   1.579  24.493  0.00  0.00    -0.006 A 
ATOM     35  C   UNL     1      -3.364   2.223  24.143  0.00  0.00    -0.002 A 
ATOM     36  C   UNL     1      -4.169   2.349  24.276  0.00  0.00    +0.018 A 
BRANCH   5   2
ATOM      1  C   UNL     1      -6.203   2.084  25.022  0.00  0.00    +0.182 C 
ATOM      2  S   UNL     1      -5.399   1.957  24.889  0.00  0.00    +0.010 S 
ATOM      3  O   UNL     1      -5.236   2.724  25.147  0.00  0.00    -0.169 OA
ATOM      4  O   UNL     1      -5.561   1.192  24.631  0.00  0.00    -0.169 OA
ENDBRANCH   5   2
ENDBRANCH   9   8
ENDBRANCH  10   9
ENDBRANCH  15  14
TORSDOF 7
ENDMDL
MODEL 7
REMARK VINA RESULT:      -9.8      1.863      4.038
REMARK  Name = 
REMARK  7 active torsions:
REMARK  status: ('A' for Active; 'I' for Inactive)
REMARK    1  A    between atoms: S_2  and  C_5
REMARK    2  A    between atoms: C_8  and  C_9
REMARK    3  A    between atoms: C_9  and  N_10
REMARK    4  A    between atoms: C_14  and  C_15
REMARK    5  A    between atoms: C_17  and  C_20
REMARK    6  A    between atoms: C_24  and  N_26
REMARK    7  A    between atoms: C_29  and  C_32
REMARK                            x       y       z     vdW  Elec       q    Type
REMARK                         _______ _______ _______ _____ _____    ______ ____
ROOT
ATOM     15  C   UNL     1      -1.922  -1.201  24.552  0.00  0.00    +0.251 A 
ATOM     16  N   UNL     1      -1.638  -0.464  24.312  0.00  0.00    -0.190 NA
ATOM     17  C   UNL     1      -0.825  -0.448  24.442  0.00  0.00    +0.203 A 
ATOM     18  N   UNL     1      -0.604  -1.175  24.764  0.00  0.00    -0.056 NA
ATOM     19  O   UNL     1      -1.282  -1.640  24.832  0.00  0.00    -0.336 OA
ENDROOT
BRANCH  17  20
ATOM     20  C   UNL     1      -0.319   0.184  24.280  0.00  0.00    +0.043 A 
ATOM     21  C   UNL     1       0.416   0.044  23.933  0.00  0.00    +0.024 A 
ATOM     22  C   UNL     1       0.922   0.674  23.770  0.00  0.00    +0.100 A 
ATOM     23  N   UNL     1       0.694   1.445  23.956  0.00  0.00    -0.229 NA
ATOM     24  C   UNL     1      -0.041   1.585  24.304  0.00  0.00    +0.132 A 
ATOM     25  C   UNL     1      -0.548   0.954  24.466  0.00  0.00    +0.037 A 
BRANCH  24  26
ATOM     26  N   UNL     1      -0.270   2.356  24.489  0.00  0.00    -0.293 N 
ATOM     27  C   UNL     1      -0.199   2.631  25.263  0.00  0.00    +0.093 C 
ATOM     28  C   UNL     1      -0.428   3.402  25.449  0.00  0.00    +0.031 C 
ATOM     29  C   UNL     1      -0.727   3.897  24.860  0.00  0.00    +0.083 C 
ATOM     30  C   UNL     1      -0.797   3.621  24.086  0.00  0.00    +0.031 C 
ATOM     31  C   UNL     1      -0.568   2.851  23.900  0.00  0.00    +0.093 C 
BRANCH  29  32
ATOM     32  C   UNL     1      -0.955   4.668  25.046  0.00  0.00    +0.260 C 
ATOM     33  N   UNL     1      -1.676   4.805  25.423  0.00  0.00    -0.088 NA
ATOM     34  O   UNL     1      -0.463   5.301  24.854  0.00  0.00    -0.272 OA
ENDBRANCH  29  32
ENDBRANCH  24  26
ENDBRANCH  17  20
BRANCH  15  14
ATOM     10  N   UNL     1      -3.354  -1.074  24.860  0.00  0.00    -0.263 NA
ATOM     11  C   UNL     1      -4.028  -1.518  24.691  0.00  0.00    +0.073 C 
ATOM     12  C   UNL     1      -3.796  -2.173  24.245  0.00  0.00    +0.019 C 
ATOM     13  C   UNL     1      -2.979  -2.134  24.140  0.00  0.00    +0.027 C 
ATOM     14  C   UNL     1      -2.705  -1.454  24.519  0.00  0.00    +0.138 C 
BRANCH  10   9
ATOM      9  C   UNL     1      -3.331  -0.373  25.293  0.00  0.00    +0.099 C 
BRANCH   9   8
ATOM      5  C   UNL     1      -5.191   1.250  25.120  0.00  0.00    +0.106 A 
ATOM      6  C   UNL     1      -4.548   1.304  24.607  0.00  0.00    +0.018 A 
ATOM      7  C   UNL     1      -3.928   0.763  24.664  0.00  0.00    -0.002 A 
ATOM      8  C   UNL     1      -3.952   0.168  25.236  0.00  0.00    -0.006 A 
ATOM     35  C   UNL     1      -4.595   0.114  25.749  0.00  0.00    -0.002 A 
ATOM     36  C   UNL     1      -5.215   0.656  25.691  0.00  0.00    +0.018 A 
BRANCH   5   2
ATOM      1  C   UNL     1      -6.430   2.334  25.004  0.00  0.00    +0.182 C 
ATOM      2  S   UNL     1      -5.811   1.792  25.062  0.00  0.00    +0.010 S 
ATOM      3  O   UNL     1      -5.383   2.330  25.519  0.00  0.00    -0.169 OA
ATOM      4  O   UNL     1      -6.238   1.255  24.605  0.00  0.00    -0.169 OA
ENDBRANCH   5   2
ENDBRANCH   9   8
ENDBRANCH  10   9
ENDBRANCH  15  14
TORSDOF 7
ENDMDL
MODEL 8
REMARK VINA RESULT:      -9.8      2.255      6.202
REMARK  Name = 
REMARK  7 active torsions:
REMARK  status: ('A' for Active; 'I' for Inactive)
REMARK    1  A    between atoms: S_2  and  C_5
REMARK    2  A    between atoms: C_8  and  C_9
REMARK    3  A    between atoms: C_9  and  N_10
REMARK    4  A    between atoms: C_14  and  C_15
REMARK    5  A    between atoms: C_17  and  C_20
REMARK    6  A    between atoms: C_24  and  N_26
REMARK    7  A    between atoms: C_29  and  C_32
REMARK                            x       y       z     vdW  Elec       q    Type
REMARK                         _______ _______ _______ _____ _____    ______ ____
ROOT
ATOM     15  C   UNL     1      -5.041   1.810  25.385  0.00  0.00    +0.251 A 
ATOM     16  N   UNL     1      -4.599   1.329  24.881  0.00  0.00    -0.190 NA
ATOM     17  C   UNL     1      -4.733   0.544  25.093  0.00  0.00    +0.203 A 
ATOM     18  N   UNL     1      -5.260   0.538  25.728  0.00  0.00    -0.056 NA
ATOM     19  O   UNL     1      -5.450   1.320  25.909  0.00  0.00    -0.336 OA
ENDROOT
BRANCH  17  20
ATOM     20  C   UNL     1      -4.401  -0.120  24.733  0.00  0.00    +0.043 A 
ATOM     21  C   UNL     1      -4.867  -0.607  24.256  0.00  0.00    +0.024 A 
ATOM     22  C   UNL     1      -4.536  -1.271  23.896  0.00  0.00    +0.100 A 
ATOM     23  N   UNL     1      -3.739  -1.448  24.013  0.00  0.00    -0.229 NA
ATOM     24  C   UNL     1      -3.273  -0.962  24.489  0.00  0.00    +0.132 A 
ATOM     25  C   UNL     1      -3.604  -0.298  24.850  0.00  0.00    +0.037 A 
BRANCH  24  26
ATOM     26  N   UNL     1      -2.476  -1.140  24.606  0.00  0.00    -0.293 N 
ATOM     27  C   UNL     1      -2.230  -1.926  24.646  0.00  0.00    +0.093 C 
ATOM     28  C   UNL     1      -1.433  -2.104  24.762  0.00  0.00    +0.031 C 
ATOM     29  C   UNL     1      -0.882  -1.496  24.839  0.00  0.00    +0.083 C 
ATOM     30  C   UNL     1      -1.127  -0.709  24.799  0.00  0.00    +0.031 C 
ATOM     31  C   UNL     1      -1.924  -0.531  24.683  0.00  0.00    +0.093 C 
BRANCH  29  32
ATOM     32  C   UNL     1      -0.085  -1.674  24.956  0.00  0.00    +0.260 C 
ATOM     33  N   UNL     1       0.487  -1.359  24.450  0.00  0.00    -0.088 NA
ATOM     34  O   UNL     1       0.141  -2.167  25.578  0.00  0.00    -0.272 OA
ENDBRANCH  29  32
ENDBRANCH  24  26
ENDBRANCH  17  20
BRANCH  15  14
ATOM     10  N   UNL     1      -4.442   3.145  25.526  0.00  0.00    -0.263 NA
ATOM     11  C   UNL     1      -4.717   3.918  25.448  0.00  0.00    +0.073 C 
ATOM     12  C   UNL     1      -5.516   3.885  25.243  0.00  0.00    +0.019 C 
ATOM     13  C   UNL     1      -5.734   3.091  25.194  0.00  0.00    +0.027 C 
ATOM     14  C   UNL     1      -5.070   2.633  25.370  0.00  0.00    +0.138 C 
BRANCH  10   9
ATOM      9  C   UNL     1      -3.674   2.922  25.726  0.00  0.00    +0.099 C 
BRANCH   9   8
ATOM      5  C   UNL     1      -1.769   4.397  25.161  0.00  0.00    +0.106 A 
ATOM      6  C   UNL     1      -2.138   4.462  25.896  0.00  0.00    +0.018 A 
ATOM      7  C   UNL     1      -2.773   3.971  26.085  0.00  0.00    -0.002 A 
ATOM      8  C   UNL     1      -3.039   3.413  25.537  0.00  0.00    -0.006 A 
ATOM     35  C   UNL     1      -2.670   3.348  24.802  0.00  0.00    -0.002 A 
ATOM     36  C   UNL     1      -2.035   3.840  24.615  0.00  0.00    +0.018 A 
BRANCH   5   2
ATOM      1  C   UNL     1      -0.498   5.380  24.786  0.00  0.00    +0.182 C 
ATOM      2  S   UNL     1      -1.133   4.889  24.974  0.00  0.00    +0.010 S 
ATOM      3  O   UNL     1      -0.645   4.228  24.897  0.00  0.00    -0.169 OA
ATOM      4  O   UNL     1      -1.622   5.549  25.050  0.00  0.00    -0.169 OA
ENDBRANCH   5   2
ENDBRANCH   9   8
ENDBRANCH  10   9
ENDBRANCH  15  14
TORSDOF 7
ENDMDL
MODEL 9
REMARK VINA RESULT:      -9.7      2.148      4.341
REMARK  Name = 
REMARK  7 active torsions:
REMARK  status: ('A' for Active; 'I' for Inactive)
REMARK    1  A    between atoms: S_2  and  C_5
REMARK    2  A    between atoms: C_8  and  C_9
REMARK    3  A    between atoms: C_9  and  N_10
REMARK    4  A    between atoms: C_14  and  C_15
REMARK    5  A    between atoms: C_17  and  C_20
REMARK    6  A    between atoms: C_24  and  N_26
REMARK    7  A    between atoms: C_29  and  C_32
REMARK                            x       y       z     vdW  Elec       q    Type
REMARK                         _______ _______ _______ _____ _____    ______ ____
ROOT
ATOM     15  C   UNL     1      -0.536  -0.264  24.327  0.00  0.00    +0.251 A 
ATOM     16  N   UNL     1      -1.354  -0.167  24.295  0.00  0.00    -0.190 NA
ATOM     17  C   UNL     1      -1.705  -0.858  24.576  0.00  0.00    +0.203 A 
ATOM     18  N   UNL     1      -1.102  -1.384  24.782  0.00  0.00    -0.056 NA
ATOM     19  O   UNL     1      -0.380  -1.016  24.628  0.00  0.00    -0.336 OA
ENDROOT
BRANCH  17  20
ATOM     20  C   UNL     1      -2.515  -1.001  24.640  0.00  0.00    +0.043 A 
ATOM     21  C   UNL     1      -2.801  -1.775  24.609  0.00  0.00    +0.024 A 
ATOM     22  C   UNL     1      -3.610  -1.919  24.673  0.00  0.00    +0.100 A 
ATOM     23  N   UNL     1      -4.134  -1.289  24.769  0.00  0.00    -0.229 NA
ATOM     24  C   UNL     1      -3.849  -0.516  24.801  0.00  0.00    +0.132 A 
ATOM     25  C   UNL     1      -3.039  -0.372  24.737  0.00  0.00    +0.037 A 
BRANCH  24  26
ATOM     26  N   UNL     1      -4.374   0.114  24.897  0.00  0.00    -0.293 N 
ATOM     27  C   UNL     1      -4.798   0.193  25.600  0.00  0.00    +0.093 C 
ATOM     28  C   UNL     1      -5.322   0.823  25.696  0.00  0.00    +0.031 C 
ATOM     29  C   UNL     1      -5.423   1.373  25.089  0.00  0.00    +0.083 C 
ATOM     30  C   UNL     1      -4.998   1.293  24.386  0.00  0.00    +0.031 C 
ATOM     31  C   UNL     1      -4.474   0.663  24.290  0.00  0.00    +0.093 C 
BRANCH  29  32
ATOM     32  C   UNL     1      -5.947   2.002  25.186  0.00  0.00    +0.260 C 
ATOM     33  N   UNL     1      -5.709   2.679  25.593  0.00  0.00    -0.088 NA
ATOM     34  O   UNL     1      -6.710   1.954  24.874  0.00  0.00    -0.272 OA
ENDBRANCH  29  32
ENDBRANCH  24  26
ENDBRANCH  17  20
BRANCH  15  14
ATOM     10  N   UNL     1       0.136   1.040  24.431  0.00  0.00    -0.263 NA
ATOM     11  C   UNL     1       0.759   1.408  24.034  0.00  0.00    +0.073 C 
ATOM     12  C   UNL     1       1.036   0.888  23.456  0.00  0.00    +0.019 C 
ATOM     13  C   UNL     1       0.584   0.198  23.496  0.00  0.00    +0.027 C 
ATOM     14  C   UNL     1       0.028   0.292  24.098  0.00  0.00    +0.138 C 
BRANCH  10   9
ATOM      9  C   UNL     1      -0.301   1.362  25.050  0.00  0.00    +0.099 C 
BRANCH   9   8
ATOM      5  C   UNL     1      -0.867   3.771  25.046  0.00  0.00    +0.106 A 
ATOM      6  C   UNL     1      -1.243   3.258  24.521  0.00  0.00    +0.018 A 
ATOM      7  C   UNL     1      -1.055   2.455  24.522  0.00  0.00    -0.002 A 
ATOM      8  C   UNL     1      -0.490   2.165  25.049  0.00  0.00    -0.006 A 
ATOM     35  C   UNL     1      -0.113   2.678  25.574  0.00  0.00    -0.002 A 
ATOM     36  C   UNL     1      -0.302   3.481  25.572  0.00  0.00    +0.018 A 
BRANCH   5   2
ATOM      1  C   UNL     1      -1.246   5.377  25.043  0.00  0.00    +0.182 C 
ATOM      2  S   UNL     1      -1.056   4.575  25.044  0.00  0.00    +0.010 S 
ATOM      3  O   UNL     1      -1.718   4.419  25.511  0.00  0.00    -0.169 OA
ATOM      4  O   UNL     1      -0.394   4.730  24.577  0.00  0.00    -0.169 OA
ENDBRANCH   5   2
ENDBRANCH   9   8
ENDBRANCH  10   9
ENDBRANCH  15  14
TORSDOF 7
ENDMDL
