MODEL 1
REMARK VINA RESULT:     -11.7      0.000      0.000
REMARK  Name = 
REMARK  8 active torsions:
REMARK  status: ('A' for Active; 'I' for Inactive)
REMARK    1  A    between atoms: C_5  and  C_6
REMARK    2  A    between atoms: C_6  and  N_7
REMARK    3  A    between atoms: C_8  and  C_10
REMARK    4  A    between atoms: C_10  and  C_11
REMARK    5  A    between atoms: C_11  and  C_12
REMARK    6  A    between atoms: C_19  and  N_22
REMARK    7  A    between atoms: N_22  and  C_23
REMARK    8  A    between atoms: C_23  and  C_24
REMARK                            x       y       z     vdW  Elec       q    Type
REMARK                         _______ _______ _______ _____ _____    ______ ____
ROOT
ATOM     12  C   UNL     1      -0.678   1.432  24.993  0.00  0.00    +0.080 C 
ATOM     13  C   UNL     1       0.080   1.597  24.711  0.00  0.00    +0.131 C 
ATOM     14  N   UNL     1       0.251   2.341  24.399  0.00  0.00    -0.203 NA
ATOM     15  C   UNL     1      -0.336   2.921  24.369  0.00  0.00    +0.256 C 
ATOM     16  O   UNL     1      -0.164   3.665  24.057  0.00  0.00    -0.272 OA
ATOM     17  C   UNL     1      -1.094   2.756  24.651  0.00  0.00    +0.138 C 
ATOM     18  C   UNL     1      -1.779   3.213  24.692  0.00  0.00    +0.044 C 
ATOM     19  C   UNL     1      -2.374   2.751  25.030  0.00  0.00    +0.091 C 
ATOM     20  C   UNL     1      -2.055   2.009  25.197  0.00  0.00    +0.090 C 
ATOM     21  N   UNL     1      -1.264   2.011  24.962  0.00  0.00    -0.265 NA
ENDROOT
BRANCH  12  11
ATOM     11  C   UNL     1      -0.848   0.687  25.305  0.00  0.00    +0.027 C 
BRANCH  11  10
ATOM     10  C   UNL     1      -0.678   0.008  24.869  0.00  0.00    +0.088 C 
BRANCH  10   8
ATOM      7  N   UNL     1      -1.726  -0.953  24.728  0.00  0.00    -0.201 NA
ATOM      8  C   UNL     1      -1.019  -0.712  25.078  0.00  0.00    +0.242 C 
ATOM      9  O   UNL     1      -0.652  -1.194  25.639  0.00  0.00    -0.273 OA
BRANCH   7   6
ATOM      6  C   UNL     1      -2.068  -1.674  24.937  0.00  0.00    +0.141 C 
BRANCH   6   5
ATOM      1  F   UNL     1      -4.947  -2.586  23.609  0.00  0.00    -0.204 F 
ATOM      2  C   UNL     1      -4.227  -2.358  23.941  0.00  0.00    +0.140 A 
ATOM      3  C   UNL     1      -4.057  -1.557  24.048  0.00  0.00    +0.029 A 
ATOM      4  C   UNL     1      -3.337  -1.330  24.380  0.00  0.00    -0.000 A 
ATOM      5  C   UNL     1      -2.787  -1.902  24.605  0.00  0.00    -0.000 A 
ATOM     30  C   UNL     1      -2.957  -2.702  24.498  0.00  0.00    -0.000 A 
ATOM     31  C   UNL     1      -3.677  -2.930  24.166  0.00  0.00    +0.029 A 
ENDBRANCH   6   5
ENDBRANCH   7   6
ENDBRANCH  10   8
ENDBRANCH  11  10
ENDBRANCH  12  11
BRANCH  19  22
ATOM     22  N   UNL     1      -3.149   2.990  25.175  0.00  0.00    -0.212 NA
BRANCH  22  23
ATOM     23  C   UNL     1      -3.759   2.738  24.680  0.00  0.00    +0.134 C 
BRANCH  23  24
ATOM     24  C   UNL     1      -4.533   2.702  24.965  0.00  0.00    +0.077 A 
ATOM     25  N   UNL     1      -4.837   3.326  25.410  0.00  0.00    -0.247 NA
ATOM     26  C   UNL     1      -5.610   3.291  25.695  0.00  0.00    +0.098 A 
ATOM     27  C   UNL     1      -6.080   2.631  25.534  0.00  0.00    +0.021 A 
ATOM     28  C   UNL     1      -5.776   2.007  25.089  0.00  0.00    +0.003 A 
ATOM     29  C   UNL     1      -5.002   2.043  24.804  0.00  0.00    +0.016 A 
ENDBRANCH  23  24
ENDBRANCH  22  23
ENDBRANCH  19  22
TORSDOF 8
ENDMDL
MODEL 2
REMARK VINA RESULT:     -11.6      2.119      3.972
REMARK  Name = 
REMARK  8 active torsions:
REMARK  status: ('A' for Active; 'I' for Inactive)
REMARK    1  A    between atoms: C_5  and  C_6
REMARK    2  A    between atoms: C_6  and  N_7
REMARK    3  A    between atoms: C_8  and  C_10
REMARK    4  A    between atoms: C_10  and  C_11
REMARK    5  A    between atoms: C_11  and  C_12
REMARK    6  A    between atoms: C_19  and  N_22
REMARK    7  A    between atoms: N_22  and  C_23
REMARK    8  A    between atoms: C_23  and  C_24
REMARK                            x       y       z     vdW  Elec       q    Type
REMARK                         _______ _______ _______ _____ _____    ______ ____
ROOT
ATOM     12  C   UNL     1      -4.954   1.481  24.973  0.00  0.00    +0.080 C 
ATOM     13  C   UNL     1      -5.707   1.368  25.289  0.00  0.00    +0.131 C 
ATOM     14  N   UNL     1      -6.100   1.994  25.654  0.00  0.00    -0.203 NA
ATOM     15  C   UNL     1      -5.739   2.735  25.704  0.00  0.00    +0.256 C 
ATOM     16  O   UNL     1      -6.132   3.361  26.069  0.00  0.00    -0.272 OA
ATOM     17  C   UNL     1      -4.985   2.848  25.388  0.00  0.00    +0.138 C 
ATOM     18  C   UNL     1      -4.494   3.510  25.355  0.00  0.00    +0.044 C 
ATOM     19  C   UNL     1      -3.798   3.292  24.969  0.00  0.00    +0.091 C 
ATOM     20  C   UNL     1      -3.859   2.496  24.764  0.00  0.00    +0.090 C 
ATOM     21  N   UNL     1      -4.593   2.220  25.023  0.00  0.00    -0.265 NA
ENDROOT
BRANCH  12  11
ATOM     11  C   UNL     1      -4.561   0.853  24.608  0.00  0.00    +0.027 C 
BRANCH  11  10
ATOM     10  C   UNL     1      -4.570   0.104  24.952  0.00  0.00    +0.088 C 
BRANCH  10   8
ATOM      7  N   UNL     1      -3.402  -0.717  24.908  0.00  0.00    -0.201 NA
ATOM      8  C   UNL     1      -4.143  -0.512  24.610  0.00  0.00    +0.242 C 
ATOM      9  O   UNL     1      -4.458  -0.925  23.968  0.00  0.00    -0.273 OA
BRANCH   7   6
ATOM      6  C   UNL     1      -2.974  -1.334  24.565  0.00  0.00    +0.141 C 
BRANCH   6   5
ATOM      1  F   UNL     1       0.116  -1.949  25.544  0.00  0.00    -0.204 F 
ATOM      2  C   UNL     1      -0.657  -1.795  25.300  0.00  0.00    +0.140 A 
ATOM      3  C   UNL     1      -1.080  -2.370  24.885  0.00  0.00    +0.029 A 
ATOM      4  C   UNL     1      -1.853  -2.215  24.640  0.00  0.00    -0.000 A 
ATOM      5  C   UNL     1      -2.202  -1.488  24.810  0.00  0.00    -0.000 A 
ATOM     30  C   UNL     1      -1.779  -0.914  25.224  0.00  0.00    -0.000 A 
ATOM     31  C   UNL     1      -1.006  -1.067  25.469  0.00  0.00    +0.029 A 
ENDBRANCH   6   5
ENDBRANCH   7   6
ENDBRANCH  10   8
ENDBRANCH  11  10
ENDBRANCH  12  11
BRANCH  19  22
ATOM     22  N   UNL     1      -3.154   3.785  24.816  0.00  0.00    -0.212 NA
BRANCH  22  23
ATOM     23  C   UNL     1      -2.557   3.871  25.378  0.00  0.00    +0.134 C 
BRANCH  23  24
ATOM     24  C   UNL     1      -1.844   4.230  25.169  0.00  0.00    +0.077 A 
ATOM     25  N   UNL     1      -1.199   3.766  24.945  0.00  0.00    -0.247 NA
ATOM     26  C   UNL     1      -0.486   4.124  24.736  0.00  0.00    +0.098 A 
ATOM     27  C   UNL     1      -0.417   4.947  24.752  0.00  0.00    +0.021 A 
ATOM     28  C   UNL     1      -1.062   5.410  24.977  0.00  0.00    +0.003 A 
ATOM     29  C   UNL     1      -1.775   5.051  25.185  0.00  0.00    +0.016 A 
ENDBRANCH  23  24
ENDBRANCH  22  23
ENDBRANCH  19  22
TORSDOF 8
ENDMDL
MODEL 3
REMARK VINA RESULT:     -11.6      1.325      4.089
REMARK  Name = 
REMARK  8 active torsions:
REMARK  status: ('A' for Active; 'I' for Inactive)
REMARK    1  A    between atoms: C_5  and  C_6
REMARK    2  A    between atoms: C_6  and  N_7
REMARK    3  A    between atoms: C_8  and  C_10
REMARK    4  A    between atoms: C_10  and  C_11
REMARK    5  A    between atoms: C_11  and  C_12
REMARK    6  A    between atoms: C_19  and  N_22
REMARK    7  A    between atoms: N_22  and  C_23
REMARK    8  A    between atoms: C_23  and  C_24
REMARK                            x       y       z     vdW  Elec       q    Type
REMARK                         _______ _______ _______ _____ _____    ______ ____
ROOT
ATOM     12  C   UNL     1      -0.914   2.266  25.140  0.00  0.00    +0.080 C 
ATOM     13  C   UNL     1      -0.242   2.703  24.943  0.00  0.00    +0.131 C 
ATOM     14  N   UNL     1       0.370   2.350  24.517  0.00  0.00    -0.203 NA
ATOM     15  C   UNL     1       0.310   1.559  24.288  0.00  0.00    +0.256 C 
ATOM     16  O   UNL     1       0.922   1.206  23.863  0.00  0.00    -0.272 OA
ATOM     17  C   UNL     1      -0.361   1.122  24.485  0.00  0.00    +0.138 C 
ATOM     18  C   UNL     1      -0.573   0.339  24.337  0.00  0.00    +0.044 C 
ATOM     19  C   UNL     1      -1.317   0.209  24.671  0.00  0.00    +0.091 C 
ATOM     20  C   UNL     1      -1.563   0.911  25.025  0.00  0.00    +0.090 C 
ATOM     21  N   UNL     1      -0.973   1.476  24.911  0.00  0.00    -0.265 NA
ENDROOT
BRANCH  12  11
ATOM     11  C   UNL     1      -1.525   2.620  25.565  0.00  0.00    +0.027 C 
BRANCH  11  10
ATOM     10  C   UNL     1      -1.824   3.351  25.329  0.00  0.00    +0.088 C 
BRANCH  10   8
ATOM      7  N   UNL     1      -3.248   3.250  25.266  0.00  0.00    -0.201 NA
ATOM      8  C   UNL     1      -2.569   3.595  25.584  0.00  0.00    +0.242 C 
ATOM      9  O   UNL     1      -2.636   4.184  26.158  0.00  0.00    -0.273 OA
BRANCH   7   6
ATOM      6  C   UNL     1      -3.994   3.494  25.521  0.00  0.00    +0.141 C 
BRANCH   6   5
ATOM      1  F   UNL     1      -6.637   1.605  24.945  0.00  0.00    -0.204 F 
ATOM      2  C   UNL     1      -5.976   2.077  25.088  0.00  0.00    +0.140 A 
ATOM      3  C   UNL     1      -5.885   2.446  25.821  0.00  0.00    +0.029 A 
ATOM      4  C   UNL     1      -5.224   2.919  25.965  0.00  0.00    -0.000 A 
ATOM      5  C   UNL     1      -4.654   3.022  25.377  0.00  0.00    -0.000 A 
ATOM     30  C   UNL     1      -4.746   2.653  24.645  0.00  0.00    -0.000 A 
ATOM     31  C   UNL     1      -5.406   2.180  24.501  0.00  0.00    +0.029 A 
ENDBRANCH   6   5
ENDBRANCH   7   6
ENDBRANCH  10   8
ENDBRANCH  11  10
ENDBRANCH  12  11
BRANCH  19  22
ATOM     22  N   UNL     1      -1.738  -0.500  24.652  0.00  0.00    -0.212 NA
BRANCH  22  23
ATOM     23  C   UNL     1      -2.547  -0.505  24.818  0.00  0.00    +0.134 C 
BRANCH  23  24
ATOM     24  C   UNL     1      -3.002  -1.166  24.629  0.00  0.00    +0.077 A 
ATOM     25  N   UNL     1      -2.763  -1.916  24.874  0.00  0.00    -0.247 NA
ATOM     26  C   UNL     1      -3.217  -2.578  24.685  0.00  0.00    +0.098 A 
ATOM     27  C   UNL     1      -3.913  -2.489  24.250  0.00  0.00    +0.021 A 
ATOM     28  C   UNL     1      -4.153  -1.739  24.004  0.00  0.00    +0.003 A 
ATOM     29  C   UNL     1      -3.697  -1.077  24.194  0.00  0.00    +0.016 A 
ENDBRANCH  23  24
ENDBRANCH  22  23
ENDBRANCH  19  22
TORSDOF 8
ENDMDL
MODEL 4
REMARK VINA RESULT:     -11.2      1.635      3.821
REMARK  Name = 
REMARK  8 active torsions:
REMARK  status: ('A' for Active; 'I' for Inactive)
REMARK    1  A    between atoms: C_5  and  C_6
REMARK    2  A    between atoms: C_6  and  N_7
REMARK    3  A    between atoms: C_8  and  C_10
REMARK    4  A    between atoms: C_10  and  C_11
REMARK    5  A    between atoms: C_11  and  C_12
REMARK    6  A    between atoms: C_19  and  N_22
REMARK    7  A    between atoms: N_22  and  C_23
REMARK    8  A    between atoms: C_23  and  C_24
REMARK                            x       y       z     vdW  Elec       q    Type
REMARK                         _______ _______ _______ _____ _____    ______ ____
ROOT
ATOM     12  C   UNL     1      -3.166   3.180  24.774  0.00  0.00    +0.080 C 
ATOM     13  C   UNL     1      -3.428   3.876  25.131  0.00  0.00    +0.131 C 
ATOM     14  N   UNL     1      -2.884   4.450  25.365  0.00  0.00    -0.203 NA
ATOM     15  C   UNL     1      -2.077   4.328  25.242  0.00  0.00    +0.256 C 
ATOM     16  O   UNL     1      -1.533   4.902  25.476  0.00  0.00    -0.272 OA
ATOM     17  C   UNL     1      -1.815   3.632  24.885  0.00  0.00    +0.138 C 
ATOM     18  C   UNL     1      -1.060   3.360  24.694  0.00  0.00    +0.044 C 
ATOM     19  C   UNL     1      -1.138   2.617  24.341  0.00  0.00    +0.091 C 
ATOM     20  C   UNL     1      -1.941   2.431  24.315  0.00  0.00    +0.090 C 
ATOM     21  N   UNL     1      -2.360   3.058  24.651  0.00  0.00    -0.265 NA
ENDROOT
BRANCH  12  11
ATOM     11  C   UNL     1      -3.711   2.606  24.540  0.00  0.00    +0.027 C 
BRANCH  11  10
ATOM     10  C   UNL     1      -4.209   2.258  25.098  0.00  0.00    +0.088 C 
BRANCH  10   8
ATOM      7  N   UNL     1      -4.234   0.832  25.011  0.00  0.00    -0.201 NA
ATOM      8  C   UNL     1      -4.609   1.561  24.915  0.00  0.00    +0.242 C 
ATOM      9  O   UNL     1      -5.385   1.591  24.637  0.00  0.00    -0.273 OA
BRANCH   7   6
ATOM      6  C   UNL     1      -4.634   0.134  24.828  0.00  0.00    +0.141 C 
BRANCH   6   5
ATOM      1  F   UNL     1      -3.014  -2.741  24.806  0.00  0.00    -0.204 F 
ATOM      2  C   UNL     1      -3.419  -2.022  24.811  0.00  0.00    +0.140 A 
ATOM      3  C   UNL     1      -3.415  -1.551  25.489  0.00  0.00    +0.029 A 
ATOM      4  C   UNL     1      -3.820  -0.833  25.494  0.00  0.00    -0.000 A 
ATOM      5  C   UNL     1      -4.229  -0.585  24.822  0.00  0.00    -0.000 A 
ATOM     30  C   UNL     1      -4.234  -1.055  24.145  0.00  0.00    -0.000 A 
ATOM     31  C   UNL     1      -3.829  -1.774  24.139  0.00  0.00    +0.029 A 
ENDBRANCH   6   5
ENDBRANCH   7   6
ENDBRANCH  10   8
ENDBRANCH  11  10
ENDBRANCH  12  11
BRANCH  19  22
ATOM     22  N   UNL     1      -0.521   2.145  24.065  0.00  0.00    -0.212 NA
BRANCH  22  23
ATOM     23  C   UNL     1      -0.300   1.468  24.481  0.00  0.00    +0.134 C 
BRANCH  23  24
ATOM     24  C   UNL     1       0.005   0.817  24.076  0.00  0.00    +0.077 A 
ATOM     25  N   UNL     1       0.638   0.914  23.557  0.00  0.00    -0.247 NA
ATOM     26  C   UNL     1       0.943   0.263  23.152  0.00  0.00    +0.098 A 
ATOM     27  C   UNL     1       0.614  -0.486  23.267  0.00  0.00    +0.021 A 
ATOM     28  C   UNL     1      -0.019  -0.583  23.787  0.00  0.00    +0.003 A 
ATOM     29  C   UNL     1      -0.323   0.069  24.191  0.00  0.00    +0.016 A 
ENDBRANCH  23  24
ENDBRANCH  22  23
ENDBRANCH  19  22
TORSDOF 8
ENDMDL
MODEL 5
REMARK VINA RESULT:     -11.2      2.208      5.130
REMARK  Name = 
REMARK  8 active torsions:
REMARK  status: ('A' for Active; 'I' for Inactive)
REMARK    1  A    between atoms: C_5  and  C_6
REMARK    2  A    between atoms: C_6  and  N_7
REMARK    3  A    between atoms: C_8  and  C_10
REMARK    4  A    between atoms: C_10  and  C_11
REMARK    5  A    between atoms: C_11  and  C_12
REMARK    6  A    between atoms: C_19  and  N_22
REMARK    7  A    between atoms: N_22  and  C_23
REMARK    8  A    between atoms: C_23  and  C_24
REMARK                            x       y       z     vdW  Elec       q    Type
REMARK                         _______ _______ _______ _____ _____    ______ ____
ROOT
ATOM     12  C   UNL     1      -4.402   3.063  25.366  0.00  0.00    +0.080 C 
ATOM     13  C   UNL     1      -4.978   3.546  25.706  0.00  0.00    +0.131 C 
ATOM     14  N   UNL     1      -5.720   3.236  25.893  0.00  0.00    -0.203 NA
ATOM     15  C   UNL     1      -5.885   2.442  25.738  0.00  0.00    +0.256 C 
ATOM     16  O   UNL     1      -6.626   2.132  25.924  0.00  0.00    -0.272 OA
ATOM     17  C   UNL     1      -5.309   1.960  25.397  0.00  0.00    +0.138 C 
ATOM     18  C   UNL     1      -5.313   1.163  25.183  0.00  0.00    +0.044 C 
ATOM     19  C   UNL     1      -4.574   0.981  24.864  0.00  0.00    +0.091 C 
ATOM     20  C   UNL     1      -4.114   1.666  24.882  0.00  0.00    +0.090 C 
ATOM     21  N   UNL     1      -4.568   2.271  25.211  0.00  0.00    -0.265 NA
ENDROOT
BRANCH  12  11
ATOM     11  C   UNL     1      -3.661   3.375  25.180  0.00  0.00    +0.027 C 
BRANCH  11  10
ATOM     10  C   UNL     1      -3.273   3.866  25.716  0.00  0.00    +0.088 C 
BRANCH  10   8
ATOM      7  N   UNL     1      -1.911   3.498  25.491  0.00  0.00    -0.201 NA
ATOM      8  C   UNL     1      -2.488   4.080  25.586  0.00  0.00    +0.242 C 
ATOM      9  O   UNL     1      -2.278   4.878  25.550  0.00  0.00    -0.273 OA
BRANCH   7   6
ATOM      6  C   UNL     1      -1.125   3.712  25.361  0.00  0.00    +0.141 C 
BRANCH   6   5
ATOM      1  F   UNL     1       1.034   1.477  24.252  0.00  0.00    -0.204 F 
ATOM      2  C   UNL     1       0.494   2.035  24.530  0.00  0.00    +0.140 A 
ATOM      3  C   UNL     1       0.177   2.595  24.012  0.00  0.00    +0.029 A 
ATOM      4  C   UNL     1      -0.363   3.153  24.290  0.00  0.00    -0.000 A 
ATOM      5  C   UNL     1      -0.585   3.153  25.084  0.00  0.00    -0.000 A 
ATOM     30  C   UNL     1      -0.268   2.595  25.601  0.00  0.00    -0.000 A 
ATOM     31  C   UNL     1       0.272   2.035  25.324  0.00  0.00    +0.029 A 
ENDBRANCH   6   5
ENDBRANCH   7   6
ENDBRANCH  10   8
ENDBRANCH  11  10
ENDBRANCH  12  11
BRANCH  19  22
ATOM     22  N   UNL     1      -4.338   0.245  24.578  0.00  0.00    -0.212 NA
BRANCH  22  23
ATOM     23  C   UNL     1      -4.158  -0.365  25.105  0.00  0.00    +0.134 C 
BRANCH  23  24
ATOM     24  C   UNL     1      -3.973  -1.116  24.818  0.00  0.00    +0.077 A 
ATOM     25  N   UNL     1      -4.312  -1.384  24.116  0.00  0.00    -0.247 NA
ATOM     26  C   UNL     1      -4.128  -2.135  23.828  0.00  0.00    +0.098 A 
ATOM     27  C   UNL     1      -3.603  -2.618  24.244  0.00  0.00    +0.021 A 
ATOM     28  C   UNL     1      -3.263  -2.350  24.946  0.00  0.00    +0.003 A 
ATOM     29  C   UNL     1      -3.448  -1.598  25.233  0.00  0.00    +0.016 A 
ENDBRANCH  23  24
ENDBRANCH  22  23
ENDBRANCH  19  22
TORSDOF 8
ENDMDL
MODEL 6
REMARK VINA RESULT:     -11.0      2.001      4.290
REMARK  Name = 
REMARK  8 active torsions:
REMARK  status: ('A' for Active; 'I' for Inactive)
REMARK    1  A    between atoms: C_5  and  C_6
REMARK    2  A    between atoms: C_6  and  N_7
REMARK    3  A    between atoms: C_8  and  C_10
REMARK    4  A    between atoms: C_10  and  C_11
REMARK    5  A    between atoms: C_11  and  C_12
REMARK    6  A    between atoms: C_19  and  N_22
REMARK    7  A    between atoms: N_22  and  C_23
REMARK    8  A    between atoms: C_23  and  C_24
REMARK                            x       y       z     vdW  Elec       q    Type
REMARK                         _______ _______ _______ _____ _____    ______ ____
ROOT
ATOM     12  C   UNL     1      -1.947  -1.146  24.421  0.00  0.00    +0.080 C 
ATOM     13  C   UNL     1      -1.720  -1.936  24.487  0.00  0.00    +0.131 C 
ATOM     14  N   UNL     1      -2.254  -2.497  24.772  0.00  0.00    -0.203 NA
ATOM     15  C   UNL     1      -3.016  -2.266  24.992  0.00  0.00    +0.256 C 
ATOM     16  O   UNL     1      -3.550  -2.826  25.278  0.00  0.00    -0.272 OA
ATOM     17  C   UNL     1      -3.242  -1.475  24.927  0.00  0.00    +0.138 C 
ATOM     18  C   UNL     1      -3.950  -1.088  25.100  0.00  0.00    +0.044 C 
ATOM     19  C   UNL     1      -3.852  -0.288  24.921  0.00  0.00    +0.091 C 
ATOM     20  C   UNL     1      -3.085  -0.182  24.638  0.00  0.00    +0.090 C 
ATOM     21  N   UNL     1      -2.707  -0.916  24.641  0.00  0.00    -0.265 NA
ENDROOT
BRANCH  12  11
ATOM     11  C   UNL     1      -1.412  -0.586  24.135  0.00  0.00    +0.027 C 
BRANCH  11  10
ATOM     10  C   UNL     1      -0.710  -0.440  24.542  0.00  0.00    +0.088 C 
BRANCH  10   8
ATOM      7  N   UNL     1      -0.447   0.947  24.762  0.00  0.00    -0.201 NA
ATOM      8  C   UNL     1      -0.271   0.238  24.378  0.00  0.00    +0.242 C 
ATOM      9  O   UNL     1       0.344   0.208  23.830  0.00  0.00    -0.273 OA
BRANCH   7   6
ATOM      6  C   UNL     1      -0.008   1.626  24.598  0.00  0.00    +0.141 C 
BRANCH   6   5
ATOM      1  F   UNL     1      -1.143   4.587  25.508  0.00  0.00    -0.204 F 
ATOM      2  C   UNL     1      -0.859   3.847  25.280  0.00  0.00    +0.140 A 
ATOM      3  C   UNL     1      -0.664   3.286  25.853  0.00  0.00    +0.029 A 
ATOM      4  C   UNL     1      -0.380   2.546  25.625  0.00  0.00    -0.000 A 
ATOM      5  C   UNL     1      -0.292   2.366  24.825  0.00  0.00    -0.000 A 
ATOM     30  C   UNL     1      -0.487   2.926  24.253  0.00  0.00    -0.000 A 
ATOM     31  C   UNL     1      -0.770   3.667  24.480  0.00  0.00    +0.029 A 
ENDBRANCH   6   5
ENDBRANCH   7   6
ENDBRANCH  10   8
ENDBRANCH  11  10
ENDBRANCH  12  11
BRANCH  19  22
ATOM     22  N   UNL     1      -4.423   0.301  25.011  0.00  0.00    -0.212 NA
BRANCH  22  23
ATOM     23  C   UNL     1      -4.318   1.036  24.650  0.00  0.00    +0.134 C 
BRANCH  23  24
ATOM     24  C   UNL     1      -4.722   1.696  24.936  0.00  0.00    +0.077 A 
ATOM     25  N   UNL     1      -5.525   1.642  25.115  0.00  0.00    -0.247 NA
ATOM     26  C   UNL     1      -5.930   2.301  25.401  0.00  0.00    +0.098 A 
ATOM     27  C   UNL     1      -5.531   3.016  25.506  0.00  0.00    +0.021 A 
ATOM     28  C   UNL     1      -4.728   3.071  25.327  0.00  0.00    +0.003 A 
ATOM     29  C   UNL     1      -4.324   2.410  25.041  0.00  0.00    +0.016 A 
ENDBRANCH  23  24
ENDBRANCH  22  23
ENDBRANCH  19  22
TORSDOF 8
ENDMDL
MODEL 7
REMARK VINA RESULT:     -11.0      1.983      3.745
REMARK  Name = 
REMARK  8 active torsions:
REMARK  status: ('A' for Active; 'I' for Inactive)
REMARK    1  A    between atoms: C_5  and  C_6
REMARK    2  A    between atoms: C_6  and  N_7
REMARK    3  A    between atoms: C_8  and  C_10
REMARK    4  A    between atoms: C_10  and  C_11
REMARK    5  A    between atoms: C_11  and  C_12
REMARK    6  A    between atoms: C_19  and  N_22
REMARK    7  A    between atoms: N_22  and  C_23
REMARK    8  A    between atoms: C_23  and  C_24
REMARK                            x       y       z     vdW  Elec       q    Type
REMARK                         _______ _______ _______ _____ _____    ______ ____
ROOT
ATOM     12  C   UNL     1      -1.442  -0.333  24.723  0.00  0.00    +0.080 C 
ATOM     13  C   UNL     1      -1.130  -1.050  24.459  0.00  0.00    +0.131 C 
ATOM     14  N   UNL     1      -0.406  -1.064  24.064  0.00  0.00    -0.203 NA
ATOM     15  C   UNL     1       0.006  -0.361  23.932  0.00  0.00    +0.256 C 
ATOM     16  O   UNL     1       0.730  -0.375  23.537  0.00  0.00    -0.272 OA
ATOM     17  C   UNL     1      -0.307   0.356  24.196  0.00  0.00    +0.138 C 
ATOM     18  C   UNL     1      -0.029   1.131  24.146  0.00  0.00    +0.044 C 
ATOM     19  C   UNL     1      -0.581   1.624  24.511  0.00  0.00    +0.091 C 
ATOM     20  C   UNL     1      -1.200   1.153  24.786  0.00  0.00    +0.090 C 
ATOM     21  N   UNL     1      -1.031   0.369  24.591  0.00  0.00    -0.265 NA
ENDROOT
BRANCH  12  11
ATOM     11  C   UNL     1      -2.166  -0.320  25.118  0.00  0.00    +0.027 C 
BRANCH  11  10
ATOM     10  C   UNL     1      -2.841  -0.622  24.754  0.00  0.00    +0.088 C 
BRANCH  10   8
ATOM      7  N   UNL     1      -3.946   0.277  24.873  0.00  0.00    -0.201 NA
ATOM      8  C   UNL     1      -3.588  -0.444  25.055  0.00  0.00    +0.242 C 
ATOM      9  O   UNL     1      -3.977  -0.987  25.539  0.00  0.00    -0.273 OA
BRANCH   7   6
ATOM      6  C   UNL     1      -4.693   0.456  25.174  0.00  0.00    +0.141 C 
BRANCH   6   5
ATOM      1  F   UNL     1      -5.745   3.582  25.231  0.00  0.00    -0.204 F 
ATOM      2  C   UNL     1      -5.482   2.801  25.218  0.00  0.00    +0.140 A 
ATOM      3  C   UNL     1      -4.996   2.540  24.603  0.00  0.00    +0.029 A 
ATOM      4  C   UNL     1      -4.733   1.758  24.589  0.00  0.00    -0.000 A 
ATOM      5  C   UNL     1      -4.956   1.237  25.189  0.00  0.00    -0.000 A 
ATOM     30  C   UNL     1      -5.441   1.498  25.802  0.00  0.00    -0.000 A 
ATOM     31  C   UNL     1      -5.705   2.279  25.817  0.00  0.00    +0.029 A 
ENDBRANCH   6   5
ENDBRANCH   7   6
ENDBRANCH  10   8
ENDBRANCH  11  10
ENDBRANCH  12  11
BRANCH  19  22
ATOM     22  N   UNL     1      -0.523   2.443  24.587  0.00  0.00    -0.212 NA
BRANCH  22  23
ATOM     23  C   UNL     1      -0.835   2.819  25.252  0.00  0.00    +0.134 C 
BRANCH  23  24
ATOM     24  C   UNL     1      -1.049   3.615  25.213  0.00  0.00    +0.077 A 
ATOM     25  N   UNL     1      -0.533   4.165  24.879  0.00  0.00    -0.247 NA
ATOM     26  C   UNL     1      -0.746   4.960  24.839  0.00  0.00    +0.098 A 
ATOM     27  C   UNL     1      -1.478   5.206  25.133  0.00  0.00    +0.021 A 
ATOM     28  C   UNL     1      -1.994   4.656  25.467  0.00  0.00    +0.003 A 
ATOM     29  C   UNL     1      -1.779   3.861  25.506  0.00  0.00    +0.016 A 
ENDBRANCH  23  24
ENDBRANCH  22  23
ENDBRANCH  19  22
TORSDOF 8
ENDMDL
MODEL 8
REMARK VINA RESULT:      -8.0     15.606     18.394
REMARK  Name = 
REMARK  8 active torsions:
REMARK  status: ('A' for Active; 'I' for Inactive)
REMARK    1  A    between atoms: C_5  and  C_6
REMARK    2  A    between atoms: C_6  and  N_7
REMARK    3  A    between atoms: C_8  and  C_10
REMARK    4  A    between atoms: C_10  and  C_11
REMARK    5  A    between atoms: C_11  and  C_12
REMARK    6  A    between atoms: C_19  and  N_22
REMARK    7  A    between atoms: N_22  and  C_23
REMARK    8  A    between atoms: C_23  and  C_24
REMARK                            x       y       z     vdW  Elec       q    Type
REMARK                         _______ _______ _______ _____ _____    ______ ____
ROOT
ATOM     12  C   UNL     1      15.080   7.633  19.363  0.00  0.00    +0.080 C 
ATOM     13  C   UNL     1      15.785   7.233  19.211  0.00  0.00    +0.131 C 
ATOM     14  N   UNL     1      16.069   6.679  19.752  0.00  0.00    -0.203 NA
ATOM     15  C   UNL     1      15.648   6.526  20.446  0.00  0.00    +0.256 C 
ATOM     16  O   UNL     1      15.933   5.973  20.987  0.00  0.00    -0.272 OA
ATOM     17  C   UNL     1      14.943   6.927  20.597  0.00  0.00    +0.138 C 
ATOM     18  C   UNL     1      14.413   6.892  21.228  0.00  0.00    +0.044 C 
ATOM     19  C   UNL     1      13.800   7.424  21.076  0.00  0.00    +0.091 C 
ATOM     20  C   UNL     1      13.953   7.787  20.352  0.00  0.00    +0.090 C 
ATOM     21  N   UNL     1      14.659   7.480  20.055  0.00  0.00    -0.265 NA
ENDROOT
BRANCH  12  11
ATOM     11  C   UNL     1      14.796   8.187  18.821  0.00  0.00    +0.027 C 
BRANCH  11  10
ATOM     10  C   UNL     1      14.563   7.946  18.067  0.00  0.00    +0.088 C 
BRANCH  10   8
ATOM      7  N   UNL     1      13.429   8.435  17.349  0.00  0.00    -0.201 NA
ATOM      8  C   UNL     1      14.228   8.489  17.545  0.00  0.00    +0.242 C 
ATOM      9  O   UNL     1      14.693   9.088  17.219  0.00  0.00    -0.273 OA
BRANCH   7   6
ATOM      6  C   UNL     1      13.093   8.978  16.826  0.00  0.00    +0.141 C 
BRANCH   6   5
ATOM      1  F   UNL     1       9.895   8.763  16.048  0.00  0.00    -0.204 F 
ATOM      2  C   UNL     1      10.694   8.817  16.242  0.00  0.00    +0.140 A 
ATOM      3  C   UNL     1      10.944   8.653  17.012  0.00  0.00    +0.029 A 
ATOM      4  C   UNL     1      11.743   8.707  17.206  0.00  0.00    -0.000 A 
ATOM      5  C   UNL     1      12.294   8.925  16.631  0.00  0.00    -0.000 A 
ATOM     30  C   UNL     1      12.045   9.088  15.863  0.00  0.00    -0.000 A 
ATOM     31  C   UNL     1      11.245   9.034  15.667  0.00  0.00    +0.029 A 
ENDBRANCH   6   5
ENDBRANCH   7   6
ENDBRANCH  10   8
ENDBRANCH  11  10
ENDBRANCH  12  11
BRANCH  19  22
ATOM     22  N   UNL     1      13.151   7.567  21.564  0.00  0.00    -0.212 NA
BRANCH  22  23
ATOM     23  C   UNL     1      12.454   7.137  21.460  0.00  0.00    +0.134 C 
BRANCH  23  24
ATOM     24  C   UNL     1      11.748   7.411  21.788  0.00  0.00    +0.077 A 
ATOM     25  N   UNL     1      11.719   8.157  22.140  0.00  0.00    -0.247 NA
ATOM     26  C   UNL     1      11.015   8.432  22.468  0.00  0.00    +0.098 A 
ATOM     27  C   UNL     1      10.337   7.960  22.445  0.00  0.00    +0.021 A 
ATOM     28  C   UNL     1      10.366   7.214  22.094  0.00  0.00    +0.003 A 
ATOM     29  C   UNL     1      11.072   6.940  21.765  0.00  0.00    +0.016 A 
ENDBRANCH  23  24
ENDBRANCH  22  23
ENDBRANCH  19  22
TORSDOF 8
ENDMDL
MODEL 9
REMARK VINA RESULT:      -7.8     16.492     18.833
REMARK  Name = 
REMARK  8 active torsions:
REMARK  status: ('A' for Active; 'I' for Inactive)
REMARK    1  A    between atoms: C_5  and  C_6
REMARK    2  A    between atoms: C_6  and  N_7
REMARK    3  A    between atoms: C_8  and  C_10
REMARK    4  A    between atoms: C_10  and  C_11
REMARK    5  A    between atoms: C_11  and  C_12
REMARK    6  A    between atoms: C_19  and  N_22
REMARK    7  A    between atoms: N_22  and  C_23
REMARK    8  A    between atoms: C_23  and  C_24
REMARK                            x       y       z     vdW  Elec       q    Type
REMARK                         _______ _______ _______ _____ _____    ______ ____
ROOT
ATOM     12  C   UNL     1      15.785   7.204  20.333  0.00  0.00    +0.080 C 
ATOM     13  C   UNL     1      16.358   6.657  20.561  0.00  0.00    +0.131 C 
ATOM     14  N   UNL     1      16.662   6.123  20.010  0.00  0.00    -0.203 NA
ATOM     15  C   UNL     1      16.391   6.137  19.230  0.00  0.00    +0.256 C 
ATOM     16  O   UNL     1      16.694   5.603  18.680  0.00  0.00    -0.272 OA
ATOM     17  C   UNL     1      15.817   6.684  19.002  0.00  0.00    +0.138 C 
ATOM     18  C   UNL     1      15.448   6.827  18.279  0.00  0.00    +0.044 C 
ATOM     19  C   UNL     1      14.916   7.449  18.383  0.00  0.00    +0.091 C 
ATOM     20  C   UNL     1      14.957   7.690  19.171  0.00  0.00    +0.090 C 
ATOM     21  N   UNL     1      15.515   7.218  19.554  0.00  0.00    -0.265 NA
ENDROOT
BRANCH  12  11
ATOM     11  C   UNL     1      15.482   7.738  20.885  0.00  0.00    +0.027 C 
BRANCH  11  10
ATOM     10  C   UNL     1      15.132   7.461  21.578  0.00  0.00    +0.088 C 
BRANCH  10   8
ATOM      7  N   UNL     1      13.738   7.734  21.736  0.00  0.00    -0.201 NA
ATOM      8  C   UNL     1      14.524   7.890  21.933  0.00  0.00    +0.242 C 
ATOM      9  O   UNL     1      14.702   8.476  22.486  0.00  0.00    -0.273 OA
BRANCH   7   6
ATOM      6  C   UNL     1      13.129   8.164  22.091  0.00  0.00    +0.141 C 
BRANCH   6   5
ATOM      1  F   UNL     1      10.090   8.089  20.810  0.00  0.00    -0.204 F 
ATOM      2  C   UNL     1      10.850   8.108  21.130  0.00  0.00    +0.140 A 
ATOM      3  C   UNL     1      11.248   7.402  21.288  0.00  0.00    +0.029 A 
ATOM      4  C   UNL     1      12.008   7.422  21.609  0.00  0.00    -0.000 A 
ATOM      5  C   UNL     1      12.370   8.145  21.771  0.00  0.00    -0.000 A 
ATOM     30  C   UNL     1      11.972   8.849  21.613  0.00  0.00    -0.000 A 
ATOM     31  C   UNL     1      11.211   8.832  21.293  0.00  0.00    +0.029 A 
ENDBRANCH   6   5
ENDBRANCH   7   6
ENDBRANCH  10   8
ENDBRANCH  11  10
ENDBRANCH  12  11
BRANCH  19  22
ATOM     22  N   UNL     1      14.429   7.773  17.801  0.00  0.00    -0.212 NA
BRANCH  22  23
ATOM     23  C   UNL     1      13.627   7.580  17.780  0.00  0.00    +0.134 C 
BRANCH  23  24
ATOM     24  C   UNL     1      13.092   8.084  17.404  0.00  0.00    +0.077 A 
ATOM     25  N   UNL     1      13.277   8.405  16.667  0.00  0.00    -0.247 NA
ATOM     26  C   UNL     1      12.743   8.909  16.290  0.00  0.00    +0.098 A 
ATOM     27  C   UNL     1      12.024   9.092  16.651  0.00  0.00    +0.021 A 
ATOM     28  C   UNL     1      11.839   8.771  17.389  0.00  0.00    +0.003 A 
ATOM     29  C   UNL     1      12.374   8.267  17.765  0.00  0.00    +0.016 A 
ENDBRANCH  23  24
ENDBRANCH  22  23
ENDBRANCH  19  22
TORSDOF 8
ENDMDL
