MODEL 1
REMARK VINA RESULT:     -12.4      0.000      0.000
REMARK  Name = 
REMARK  3 active torsions:
REMARK  status: ('A' for Active; 'I' for Inactive)
REMARK    1  A    between atoms: C_1  and  C_2
REMARK    2  A    between atoms: C_1  and  N_8
REMARK    3  A    between atoms: C_11  and  C_13
REMARK                            x       y       z     vdW  Elec       q    Type
REMARK                         _______ _______ _______ _____ _____    ______ ____
ROOT
ATOM      8  N   UNL     1      -4.246   2.227  24.617  0.00  0.00    -0.272 NA
ATOM      9  C   UNL     1      -4.957   2.062  25.002  0.00  0.00    +0.073 C 
ATOM     10  C   UNL     1      -5.016   1.243  25.089  0.00  0.00    +0.028 C 
ATOM     11  C   UNL     1      -4.340   0.903  24.758  0.00  0.00    +0.094 C 
ATOM     12  C   UNL     1      -3.865   1.511  24.467  0.00  0.00    +0.081 C 
ENDROOT
BRANCH  11  13
ATOM     13  C   UNL     1      -4.170   0.096  24.725  0.00  0.00    +0.207 A 
ATOM     14  N   UNL     1      -3.749  -0.335  25.288  0.00  0.00    -0.212 NA
ATOM     15  C   UNL     1      -3.711  -1.118  25.033  0.00  0.00    +0.119 A 
ATOM     16  C   UNL     1      -4.109  -1.172  24.313  0.00  0.00    +0.164 A 
ATOM     17  O   UNL     1      -4.393  -0.422  24.122  0.00  0.00    -0.438 OA
ATOM     18  C   UNL     1      -4.161  -1.898  23.924  0.00  0.00    +0.039 A 
ATOM     19  C   UNL     1      -3.815  -2.569  24.255  0.00  0.00    +0.003 A 
ATOM     20  C   UNL     1      -3.417  -2.515  24.976  0.00  0.00    +0.002 A 
ATOM     21  C   UNL     1      -3.364  -1.790  25.365  0.00  0.00    +0.022 A 
ENDBRANCH  11  13
BRANCH   8   1
ATOM      1  C   UNL     1      -3.966   2.977  24.418  0.00  0.00    +0.072 C 
BRANCH   1   2
ATOM      2  C   UNL     1      -3.404   3.347  24.896  0.00  0.00    +0.016 C 
ATOM      3  C   UNL     1      -3.640   3.740  25.582  0.00  0.00    +0.001 C 
ATOM      4  C   UNL     1      -3.078   4.110  26.059  0.00  0.00    +0.000 C 
ATOM      5  C   UNL     1      -2.280   4.088  25.849  0.00  0.00    +0.000 C 
ATOM      6  C   UNL     1      -2.044   3.696  25.163  0.00  0.00    +0.000 C 
ATOM      7  C   UNL     1      -2.606   3.325  24.686  0.00  0.00    +0.001 C 
ENDBRANCH   1   2
ENDBRANCH   8   1
TORSDOF 3
ENDMDL
MODEL 2
REMARK VINA RESULT:     -12.1      1.269      4.819
REMARK  Name = 
REMARK  3 active torsions:
REMARK  status: ('A' for Active; 'I' for Inactive)
REMARK    1  A    between atoms: C_1  and  C_2
REMARK    2  A    between atoms: C_1  and  N_8
REMARK    3  A    between atoms: C_11  and  C_13
REMARK                            x       y       z     vdW  Elec       q    Type
REMARK                         _______ _______ _______ _____ _____    ______ ____
ROOT
ATOM      8  N   UNL     1      -3.828   0.612  24.361  0.00  0.00    -0.272 NA
ATOM      9  C   UNL     1      -3.558   0.690  23.585  0.00  0.00    +0.073 C 
ATOM     10  C   UNL     1      -3.078   1.360  23.548  0.00  0.00    +0.028 C 
ATOM     11  C   UNL     1      -3.051   1.697  24.301  0.00  0.00    +0.094 C 
ATOM     12  C   UNL     1      -3.514   1.235  24.803  0.00  0.00    +0.081 C 
ENDROOT
BRANCH  11  13
ATOM     13  C   UNL     1      -2.634   2.376  24.514  0.00  0.00    +0.207 A 
ATOM     14  N   UNL     1      -1.819   2.485  24.450  0.00  0.00    -0.212 NA
ATOM     15  C   UNL     1      -1.641   3.241  24.724  0.00  0.00    +0.119 A 
ATOM     16  C   UNL     1      -2.345   3.601  24.958  0.00  0.00    +0.164 A 
ATOM     17  O   UNL     1      -2.960   3.066  24.828  0.00  0.00    -0.438 OA
ATOM     18  C   UNL     1      -2.336   4.369  25.259  0.00  0.00    +0.039 A 
ATOM     19  C   UNL     1      -1.623   4.777  25.326  0.00  0.00    +0.003 A 
ATOM     20  C   UNL     1      -0.918   4.418  25.092  0.00  0.00    +0.002 A 
ATOM     21  C   UNL     1      -0.926   3.650  24.791  0.00  0.00    +0.022 A 
ENDBRANCH  11  13
BRANCH   8   1
ATOM      1  C   UNL     1      -4.323   0.017  24.646  0.00  0.00    +0.072 C 
BRANCH   1   2
ATOM      2  C   UNL     1      -4.042  -0.755  24.719  0.00  0.00    +0.016 C 
ATOM      3  C   UNL     1      -4.155  -1.295  24.107  0.00  0.00    +0.001 C 
ATOM      4  C   UNL     1      -3.873  -2.068  24.182  0.00  0.00    +0.000 C 
ATOM      5  C   UNL     1      -3.478  -2.298  24.868  0.00  0.00    +0.000 C 
ATOM      6  C   UNL     1      -3.364  -1.757  25.480  0.00  0.00    +0.000 C 
ATOM      7  C   UNL     1      -3.646  -0.985  25.406  0.00  0.00    +0.001 C 
ENDBRANCH   1   2
ENDBRANCH   8   1
TORSDOF 3
ENDMDL
MODEL 3
REMARK VINA RESULT:     -11.4      1.673      2.183
REMARK  Name = 
REMARK  3 active torsions:
REMARK  status: ('A' for Active; 'I' for Inactive)
REMARK    1  A    between atoms: C_1  and  C_2
REMARK    2  A    between atoms: C_1  and  N_8
REMARK    3  A    between atoms: C_11  and  C_13
REMARK                            x       y       z     vdW  Elec       q    Type
REMARK                         _______ _______ _______ _____ _____    ______ ____
ROOT
ATOM      8  N   UNL     1      -1.092   1.914  25.221  0.00  0.00    -0.272 NA
ATOM      9  C   UNL     1      -0.716   1.710  24.516  0.00  0.00    +0.073 C 
ATOM     10  C   UNL     1      -1.099   1.049  24.204  0.00  0.00    +0.028 C 
ATOM     11  C   UNL     1      -1.712   0.844  24.717  0.00  0.00    +0.094 C 
ATOM     12  C   UNL     1      -1.707   1.378  25.346  0.00  0.00    +0.081 C 
ENDROOT
BRANCH  11  13
ATOM     13  C   UNL     1      -2.237   0.216  24.619  0.00  0.00    +0.207 A 
ATOM     14  N   UNL     1      -2.121  -0.558  24.879  0.00  0.00    -0.212 NA
ATOM     15  C   UNL     1      -2.783  -1.001  24.664  0.00  0.00    +0.119 A 
ATOM     16  C   UNL     1      -3.308  -0.501  24.271  0.00  0.00    +0.164 A 
ATOM     17  O   UNL     1      -2.971   0.251  24.243  0.00  0.00    -0.438 OA
ATOM     18  C   UNL     1      -4.025  -0.796  23.989  0.00  0.00    +0.039 A 
ATOM     19  C   UNL     1      -4.217  -1.590  24.100  0.00  0.00    +0.003 A 
ATOM     20  C   UNL     1      -3.692  -2.090  24.493  0.00  0.00    +0.002 A 
ATOM     21  C   UNL     1      -2.975  -1.797  24.776  0.00  0.00    +0.022 A 
ENDBRANCH  11  13
BRANCH   8   1
ATOM      1  C   UNL     1      -0.888   2.541  25.716  0.00  0.00    +0.072 C 
BRANCH   1   2
ATOM      2  C   UNL     1      -1.165   3.301  25.554  0.00  0.00    +0.016 C 
ATOM      3  C   UNL     1      -1.908   3.536  25.825  0.00  0.00    +0.001 C 
ATOM      4  C   UNL     1      -2.184   4.297  25.663  0.00  0.00    +0.000 C 
ATOM      5  C   UNL     1      -1.719   4.821  25.229  0.00  0.00    +0.000 C 
ATOM      6  C   UNL     1      -0.976   4.586  24.957  0.00  0.00    +0.000 C 
ATOM      7  C   UNL     1      -0.699   3.826  25.120  0.00  0.00    +0.001 C 
ENDBRANCH   1   2
ENDBRANCH   8   1
TORSDOF 3
ENDMDL
