MODEL 1
REMARK VINA RESULT:      -7.4      0.000      0.000
REMARK  Name = 
REMARK  2 active torsions:
REMARK  status: ('A' for Active; 'I' for Inactive)
REMARK    1  A    between atoms: N_6  and  C_7
REMARK    2  A    between atoms: C_7  and  C_8
REMARK                            x       y       z     vdW  Elec       q    Type
REMARK                         _______ _______ _______ _____ _____    ______ ____
ROOT
ATOM      1  C   UNL     1      -3.920   3.329  23.960  0.00  0.00    +0.117 C 
ATOM      2  N   UNL     1      -3.740   2.565  24.216  0.00  0.00    -0.261 N 
ATOM      3  C   UNL     1      -4.285   1.993  24.453  0.00  0.00    +0.116 C 
ATOM      4  C   UNL     1      -3.866   1.314  24.663  0.00  0.00    +0.113 C 
ATOM      5  C   UNL     1      -4.112   0.576  24.938  0.00  0.00    +0.094 C 
ATOM      6  N   UNL     1      -3.556  -0.008  25.106  0.00  0.00    -0.264 NA
ATOM     13  C   UNL     1      -2.752   0.145  25.000  0.00  0.00    +0.094 C 
ATOM     14  C   UNL     1      -2.505   0.883  24.726  0.00  0.00    +0.112 C 
ATOM     15  N   UNL     1      -3.063   1.468  24.557  0.00  0.00    -0.261 N 
ATOM     16  C   UNL     1      -2.985   2.241  24.281  0.00  0.00    +0.307 C 
ATOM     17  O   UNL     1      -2.276   2.622  24.101  0.00  0.00    -0.252 OA
ENDROOT
BRANCH   6   7
ATOM      7  C   UNL     1      -3.801  -0.746  25.381  0.00  0.00    +0.126 C 
BRANCH   7   8
ATOM      8  C   UNL     1      -3.816  -1.393  24.870  0.00  0.00    +0.104 A 
ATOM      9  N   UNL     1      -4.303  -1.479  24.209  0.00  0.00    -0.240 NA
ATOM     10  C   UNL     1      -4.134  -2.207  23.861  0.00  0.00    +0.106 A 
ATOM     11  C   UNL     1      -3.543  -2.573  24.307  0.00  0.00    +0.057 A 
ATOM     12  S   UNL     1      -3.347  -2.069  24.930  0.00  0.00    -0.069 S 
ENDBRANCH   7   8
ENDBRANCH   6   7
TORSDOF 2
ENDMDL
MODEL 2
REMARK VINA RESULT:      -7.3      2.973      3.926
REMARK  Name = 
REMARK  2 active torsions:
REMARK  status: ('A' for Active; 'I' for Inactive)
REMARK    1  A    between atoms: N_6  and  C_7
REMARK    2  A    between atoms: C_7  and  C_8
REMARK                            x       y       z     vdW  Elec       q    Type
REMARK                         _______ _______ _______ _____ _____    ______ ____
ROOT
ATOM      1  C   UNL     1      -5.861   1.949  25.013  0.00  0.00    +0.117 C 
ATOM      2  N   UNL     1      -5.130   2.325  25.078  0.00  0.00    -0.261 N 
ATOM      3  C   UNL     1      -4.441   2.121  24.671  0.00  0.00    +0.116 C 
ATOM      4  C   UNL     1      -3.845   2.642  24.903  0.00  0.00    +0.113 C 
ATOM      5  C   UNL     1      -3.052   2.706  24.684  0.00  0.00    +0.094 C 
ATOM      6  N   UNL     1      -2.579   3.295  25.015  0.00  0.00    -0.264 NA
ATOM     13  C   UNL     1      -2.899   3.820  25.565  0.00  0.00    +0.094 C 
ATOM     14  C   UNL     1      -3.692   3.757  25.784  0.00  0.00    +0.112 C 
ATOM     15  N   UNL     1      -4.165   3.168  25.452  0.00  0.00    -0.261 N 
ATOM     16  C   UNL     1      -4.959   2.972  25.560  0.00  0.00    +0.307 C 
ATOM     17  O   UNL     1      -5.489   3.356  26.063  0.00  0.00    -0.252 OA
ENDROOT
BRANCH   6   7
ATOM      7  C   UNL     1      -1.786   3.359  24.797  0.00  0.00    +0.126 C 
BRANCH   7   8
ATOM      8  C   UNL     1      -1.210   2.934  25.206  0.00  0.00    +0.104 A 
ATOM      9  N   UNL     1      -0.964   3.071  25.981  0.00  0.00    -0.240 NA
ATOM     10  C   UNL     1      -0.380   2.519  26.166  0.00  0.00    +0.106 A 
ATOM     11  C   UNL     1      -0.264   2.040  25.503  0.00  0.00    +0.057 A 
ATOM     12  S   UNL     1      -0.777   2.296  24.910  0.00  0.00    -0.069 S 
ENDBRANCH   7   8
ENDBRANCH   6   7
TORSDOF 2
ENDMDL
MODEL 3
REMARK VINA RESULT:      -7.3      1.240      1.595
REMARK  Name = 
REMARK  2 active torsions:
REMARK  status: ('A' for Active; 'I' for Inactive)
REMARK    1  A    between atoms: N_6  and  C_7
REMARK    2  A    between atoms: C_7  and  C_8
REMARK                            x       y       z     vdW  Elec       q    Type
REMARK                         _______ _______ _______ _____ _____    ______ ____
ROOT
ATOM      1  C   UNL     1      -5.484   3.696  25.562  0.00  0.00    +0.117 C 
ATOM      2  N   UNL     1      -5.103   3.036  25.247  0.00  0.00    -0.261 N 
ATOM      3  C   UNL     1      -5.332   2.249  25.348  0.00  0.00    +0.116 C 
ATOM      4  C   UNL     1      -4.797   1.774  24.940  0.00  0.00    +0.113 C 
ATOM      5  C   UNL     1      -4.746   0.956  24.843  0.00  0.00    +0.094 C 
ATOM      6  N   UNL     1      -4.136   0.630  24.394  0.00  0.00    -0.264 NA
ATOM     13  C   UNL     1      -3.576   1.122  24.041  0.00  0.00    +0.094 C 
ATOM     14  C   UNL     1      -3.625   1.940  24.137  0.00  0.00    +0.112 C 
ATOM     15  N   UNL     1      -4.236   2.266  24.587  0.00  0.00    -0.261 N 
ATOM     16  C   UNL     1      -4.425   3.045  24.777  0.00  0.00    +0.307 C 
ATOM     17  O   UNL     1      -4.010   3.717  24.538  0.00  0.00    -0.252 OA
ENDROOT
BRANCH   6   7
ATOM      7  C   UNL     1      -4.086  -0.188  24.298  0.00  0.00    +0.126 C 
BRANCH   7   8
ATOM      8  C   UNL     1      -3.622  -0.637  24.811  0.00  0.00    +0.104 A 
ATOM      9  N   UNL     1      -3.833  -0.877  25.572  0.00  0.00    -0.240 NA
ATOM     10  C   UNL     1      -3.207  -1.313  25.885  0.00  0.00    +0.106 A 
ATOM     11  C   UNL     1      -2.608  -1.342  25.317  0.00  0.00    +0.057 A 
ATOM     12  S   UNL     1      -2.865  -0.924  24.654  0.00  0.00    -0.069 S 
ENDBRANCH   7   8
ENDBRANCH   6   7
TORSDOF 2
ENDMDL
MODEL 4
REMARK VINA RESULT:      -7.3      1.885      3.669
REMARK  Name = 
REMARK  2 active torsions:
REMARK  status: ('A' for Active; 'I' for Inactive)
REMARK    1  A    between atoms: N_6  and  C_7
REMARK    2  A    between atoms: C_7  and  C_8
REMARK                            x       y       z     vdW  Elec       q    Type
REMARK                         _______ _______ _______ _____ _____    ______ ____
ROOT
ATOM      1  C   UNL     1      -3.416  -2.251  25.053  0.00  0.00    +0.117 C 
ATOM      2  N   UNL     1      -3.421  -1.434  24.939  0.00  0.00    -0.261 N 
ATOM      3  C   UNL     1      -4.053  -0.988  24.650  0.00  0.00    +0.116 C 
ATOM      4  C   UNL     1      -3.818  -0.199  24.625  0.00  0.00    +0.113 C 
ATOM      5  C   UNL     1      -4.210   0.488  24.389  0.00  0.00    +0.094 C 
ATOM      6  N   UNL     1      -3.827   1.216  24.426  0.00  0.00    -0.264 NA
ATOM     13  C   UNL     1      -3.049   1.260  24.699  0.00  0.00    +0.094 C 
ATOM     14  C   UNL     1      -2.656   0.574  24.935  0.00  0.00    +0.112 C 
ATOM     15  N   UNL     1      -3.040  -0.155  24.898  0.00  0.00    -0.261 N 
ATOM     16  C   UNL     1      -2.795  -0.918  25.092  0.00  0.00    +0.307 C 
ATOM     17  O   UNL     1      -2.054  -1.130  25.387  0.00  0.00    -0.252 OA
ENDROOT
BRANCH   6   7
ATOM      7  C   UNL     1      -4.219   1.903  24.190  0.00  0.00    +0.126 C 
BRANCH   7   8
ATOM      8  C   UNL     1      -4.610   2.367  24.748  0.00  0.00    +0.104 A 
ATOM      9  N   UNL     1      -5.339   2.199  25.095  0.00  0.00    -0.240 NA
ATOM     10  C   UNL     1      -5.520   2.810  25.619  0.00  0.00    +0.106 A 
ATOM     11  C   UNL     1      -4.902   3.357  25.596  0.00  0.00    +0.057 A 
ATOM     12  S   UNL     1      -4.339   3.083  25.058  0.00  0.00    -0.069 S 
ENDBRANCH   7   8
ENDBRANCH   6   7
TORSDOF 2
ENDMDL
MODEL 5
REMARK VINA RESULT:      -7.2      2.394      3.504
REMARK  Name = 
REMARK  2 active torsions:
REMARK  status: ('A' for Active; 'I' for Inactive)
REMARK    1  A    between atoms: N_6  and  C_7
REMARK    2  A    between atoms: C_7  and  C_8
REMARK                            x       y       z     vdW  Elec       q    Type
REMARK                         _______ _______ _______ _____ _____    ______ ____
ROOT
ATOM      1  C   UNL     1       0.014   2.343  25.861  0.00  0.00    +0.117 C 
ATOM      2  N   UNL     1      -0.742   2.215  25.557  0.00  0.00    -0.261 N 
ATOM      3  C   UNL     1      -1.295   2.799  25.371  0.00  0.00    +0.116 C 
ATOM      4  C   UNL     1      -1.973   2.425  25.086  0.00  0.00    +0.113 C 
ATOM      5  C   UNL     1      -2.695   2.721  24.818  0.00  0.00    +0.094 C 
ATOM      6  N   UNL     1      -3.283   2.203  24.559  0.00  0.00    -0.264 NA
ATOM     13  C   UNL     1      -3.148   1.389  24.569  0.00  0.00    +0.094 C 
ATOM     14  C   UNL     1      -2.427   1.093  24.836  0.00  0.00    +0.112 C 
ATOM     15  N   UNL     1      -1.838   1.611  25.095  0.00  0.00    -0.261 N 
ATOM     16  C   UNL     1      -1.078   1.482  25.386  0.00  0.00    +0.307 C 
ATOM     17  O   UNL     1      -0.717   0.747  25.489  0.00  0.00    -0.252 OA
ENDROOT
BRANCH   6   7
ATOM      7  C   UNL     1      -4.005   2.499  24.292  0.00  0.00    +0.126 C 
BRANCH   7   8
ATOM      8  C   UNL     1      -4.647   2.549  24.806  0.00  0.00    +0.104 A 
ATOM      9  N   UNL     1      -4.781   3.147  25.359  0.00  0.00    -0.240 NA
ATOM     10  C   UNL     1      -5.485   2.977  25.754  0.00  0.00    +0.106 A 
ATOM     11  C   UNL     1      -5.787   2.274  25.444  0.00  0.00    +0.057 A 
ATOM     12  S   UNL     1      -5.269   2.009  24.859  0.00  0.00    -0.069 S 
ENDBRANCH   7   8
ENDBRANCH   6   7
TORSDOF 2
ENDMDL
MODEL 6
REMARK VINA RESULT:      -6.6      2.443      3.874
REMARK  Name = 
REMARK  2 active torsions:
REMARK  status: ('A' for Active; 'I' for Inactive)
REMARK    1  A    between atoms: N_6  and  C_7
REMARK    2  A    between atoms: C_7  and  C_8
REMARK                            x       y       z     vdW  Elec       q    Type
REMARK                         _______ _______ _______ _____ _____    ______ ____
ROOT
ATOM      1  C   UNL     1       0.691  -0.295  23.375  0.00  0.00    +0.117 C 
ATOM      2  N   UNL     1       0.051   0.058  23.758  0.00  0.00    -0.261 N 
ATOM      3  C   UNL     1      -0.136   0.862  23.751  0.00  0.00    +0.116 C 
ATOM      4  C   UNL     1      -0.817   0.968  24.204  0.00  0.00    +0.113 C 
ATOM      5  C   UNL     1      -1.255   1.642  24.393  0.00  0.00    +0.094 C 
ATOM      6  N   UNL     1      -1.925   1.578  24.868  0.00  0.00    -0.264 NA
ATOM     13  C   UNL     1      -2.159   0.841  25.155  0.00  0.00    +0.094 C 
ATOM     14  C   UNL     1      -1.723   0.167  24.967  0.00  0.00    +0.112 C 
ATOM     15  N   UNL     1      -1.051   0.231  24.491  0.00  0.00    -0.261 N 
ATOM     16  C   UNL     1      -0.515  -0.332  24.215  0.00  0.00    +0.307 C 
ATOM     17  O   UNL     1      -0.540  -1.142  24.370  0.00  0.00    -0.252 OA
ENDROOT
BRANCH   6   7
ATOM      7  C   UNL     1      -2.363   2.252  25.057  0.00  0.00    +0.126 C 
BRANCH   7   8
ATOM      8  C   UNL     1      -3.044   2.435  24.630  0.00  0.00    +0.104 A 
ATOM      9  N   UNL     1      -3.069   2.767  23.875  0.00  0.00    -0.240 NA
ATOM     10  C   UNL     1      -3.860   2.856  23.661  0.00  0.00    +0.106 A 
ATOM     11  C   UNL     1      -4.326   2.579  24.284  0.00  0.00    +0.057 A 
ATOM     12  S   UNL     1      -3.821   2.319  24.883  0.00  0.00    -0.069 S 
ENDBRANCH   7   8
ENDBRANCH   6   7
TORSDOF 2
ENDMDL
MODEL 7
REMARK VINA RESULT:      -6.5     17.602     18.715
REMARK  Name = 
REMARK  2 active torsions:
REMARK  status: ('A' for Active; 'I' for Inactive)
REMARK    1  A    between atoms: N_6  and  C_7
REMARK    2  A    between atoms: C_7  and  C_8
REMARK                            x       y       z     vdW  Elec       q    Type
REMARK                         _______ _______ _______ _____ _____    ______ ____
ROOT
ATOM      1  C   UNL     1      16.080   7.027  19.769  0.00  0.00    +0.117 C 
ATOM      2  N   UNL     1      15.257   6.984  19.792  0.00  0.00    -0.261 N 
ATOM      3  C   UNL     1      14.799   6.818  20.459  0.00  0.00    +0.116 C 
ATOM      4  C   UNL     1      14.006   6.831  20.232  0.00  0.00    +0.113 C 
ATOM      5  C   UNL     1      13.309   6.707  20.655  0.00  0.00    +0.094 C 
ATOM      6  N   UNL     1      12.580   6.756  20.273  0.00  0.00    -0.264 NA
ATOM     13  C   UNL     1      12.548   6.931  19.468  0.00  0.00    +0.094 C 
ATOM     14  C   UNL     1      13.244   7.055  19.044  0.00  0.00    +0.112 C 
ATOM     15  N   UNL     1      13.974   7.005  19.426  0.00  0.00    -0.261 N 
ATOM     16  C   UNL     1      14.747   7.100  19.155  0.00  0.00    +0.307 C 
ATOM     17  O   UNL     1      14.970   7.279  18.381  0.00  0.00    -0.252 OA
ENDROOT
BRANCH   6   7
ATOM      7  C   UNL     1      11.882   6.632  20.696  0.00  0.00    +0.126 C 
BRANCH   7   8
ATOM      8  C   UNL     1      11.456   7.275  20.987  0.00  0.00    +0.104 A 
ATOM      9  N   UNL     1      11.004   7.800  20.540  0.00  0.00    -0.240 NA
ATOM     10  C   UNL     1      10.675   8.356  21.054  0.00  0.00    +0.106 A 
ATOM     11  C   UNL     1      10.924   8.173  21.820  0.00  0.00    +0.057 A 
ATOM     12  S   UNL     1      11.407   7.506  21.778  0.00  0.00    -0.069 S 
ENDBRANCH   7   8
ENDBRANCH   6   7
TORSDOF 2
ENDMDL
MODEL 8
REMARK VINA RESULT:      -6.5     16.609     17.686
REMARK  Name = 
REMARK  2 active torsions:
REMARK  status: ('A' for Active; 'I' for Inactive)
REMARK    1  A    between atoms: N_6  and  C_7
REMARK    2  A    between atoms: C_7  and  C_8
REMARK                            x       y       z     vdW  Elec       q    Type
REMARK                         _______ _______ _______ _____ _____    ______ ____
ROOT
ATOM      1  C   UNL     1      10.704   9.094  22.981  0.00  0.00    +0.117 C 
ATOM      2  N   UNL     1      11.041   8.555  22.455  0.00  0.00    -0.261 N 
ATOM      3  C   UNL     1      11.739   8.666  22.028  0.00  0.00    +0.116 C 
ATOM      4  C   UNL     1      11.868   7.991  21.573  0.00  0.00    +0.113 C 
ATOM      5  C   UNL     1      12.469   7.787  21.045  0.00  0.00    +0.094 C 
ATOM      6  N   UNL     1      12.452   7.058  20.662  0.00  0.00    -0.264 NA
ATOM     13  C   UNL     1      11.834   6.530  20.806  0.00  0.00    +0.094 C 
ATOM     14  C   UNL     1      11.234   6.732  21.334  0.00  0.00    +0.112 C 
ATOM     15  N   UNL     1      11.251   7.463  21.718  0.00  0.00    -0.261 N 
ATOM     16  C   UNL     1      10.740   7.812  22.263  0.00  0.00    +0.307 C 
ATOM     17  O   UNL     1      10.048   7.476  22.563  0.00  0.00    -0.252 OA
ENDROOT
BRANCH   6   7
ATOM      7  C   UNL     1      13.052   6.854  20.133  0.00  0.00    +0.126 C 
BRANCH   7   8
ATOM      8  C   UNL     1      13.014   7.103  19.348  0.00  0.00    +0.104 A 
ATOM      9  N   UNL     1      12.431   6.897  18.802  0.00  0.00    -0.240 NA
ATOM     10  C   UNL     1      12.608   7.270  18.087  0.00  0.00    +0.106 A 
ATOM     11  C   UNL     1      13.301   7.706  18.192  0.00  0.00    +0.057 A 
ATOM     12  S   UNL     1      13.551   7.604  18.972  0.00  0.00    -0.069 S 
ENDBRANCH   7   8
ENDBRANCH   6   7
TORSDOF 2
ENDMDL
MODEL 9
REMARK VINA RESULT:      -6.5     17.018     18.075
REMARK  Name = 
REMARK  2 active torsions:
REMARK  status: ('A' for Active; 'I' for Inactive)
REMARK    1  A    between atoms: N_6  and  C_7
REMARK    2  A    between atoms: C_7  and  C_8
REMARK                            x       y       z     vdW  Elec       q    Type
REMARK                         _______ _______ _______ _____ _____    ______ ____
ROOT
ATOM      1  C   UNL     1      12.075   8.949  16.861  0.00  0.00    +0.117 C 
ATOM      2  N   UNL     1      12.227   8.554  17.569  0.00  0.00    -0.261 N 
ATOM      3  C   UNL     1      11.976   8.790  18.319  0.00  0.00    +0.116 C 
ATOM      4  C   UNL     1      12.251   8.237  18.865  0.00  0.00    +0.113 C 
ATOM      5  C   UNL     1      12.173   8.184  19.685  0.00  0.00    +0.094 C 
ATOM      6  N   UNL     1      12.516   7.554  20.092  0.00  0.00    -0.264 NA
ATOM     13  C   UNL     1      12.936   6.976  19.680  0.00  0.00    +0.094 C 
ATOM     14  C   UNL     1      13.015   7.028  18.861  0.00  0.00    +0.112 C 
ATOM     15  N   UNL     1      12.672   7.659  18.453  0.00  0.00    -0.261 N 
ATOM     16  C   UNL     1      12.657   7.855  17.652  0.00  0.00    +0.307 C 
ATOM     17  O   UNL     1      13.010   7.428  17.041  0.00  0.00    -0.252 OA
ENDROOT
BRANCH   6   7
ATOM      7  C   UNL     1      12.438   7.501  20.912  0.00  0.00    +0.126 C 
BRANCH   7   8
ATOM      8  C   UNL     1      11.809   7.081  21.241  0.00  0.00    +0.104 A 
ATOM      9  N   UNL     1      11.738   6.260  21.274  0.00  0.00    -0.240 NA
ATOM     10  C   UNL     1      11.026   6.080  21.649  0.00  0.00    +0.106 A 
ATOM     11  C   UNL     1      10.655   6.790  21.847  0.00  0.00    +0.057 A 
ATOM     12  S   UNL     1      11.139   7.409  21.595  0.00  0.00    -0.069 S 
ENDBRANCH   7   8
ENDBRANCH   6   7
TORSDOF 2
ENDMDL
MODEL 10
REMARK VINA RESULT:      -6.3     18.796     19.853
REMARK  Name = 
REMARK  2 active torsions:
REMARK  status: ('A' for Active; 'I' for Inactive)
REMARK    1  A    between atoms: N_6  and  C_7
REMARK    2  A    between atoms: C_7  and  C_8
REMARK                            x       y       z     vdW  Elec       q    Type
REMARK                         _______ _______ _______ _____ _____    ______ ____
ROOT
ATOM      1  C   UNL     1      11.790   6.519  21.245  0.00  0.00    +0.117 C 
ATOM      2  N   UNL     1      12.449   6.716  20.788  0.00  0.00    -0.261 N 
ATOM      3  C   UNL     1      13.205   6.881  21.074  0.00  0.00    +0.116 C 
ATOM      4  C   UNL     1      13.690   7.049  20.429  0.00  0.00    +0.113 C 
ATOM      5  C   UNL     1      14.489   7.250  20.375  0.00  0.00    +0.094 C 
ATOM      6  N   UNL     1      14.830   7.390  19.638  0.00  0.00    -0.264 NA
ATOM     13  C   UNL     1      14.374   7.330  18.953  0.00  0.00    +0.094 C 
ATOM     14  C   UNL     1      13.575   7.129  19.006  0.00  0.00    +0.112 C 
ATOM     15  N   UNL     1      13.233   6.989  19.744  0.00  0.00    -0.261 N 
ATOM     16  C   UNL     1      12.467   6.783  19.966  0.00  0.00    +0.307 C 
ATOM     17  O   UNL     1      11.829   6.665  19.456  0.00  0.00    -0.252 OA
ENDROOT
BRANCH   6   7
ATOM      7  C   UNL     1      15.629   7.591  19.584  0.00  0.00    +0.126 C 
BRANCH   7   8
ATOM      8  C   UNL     1      16.202   6.999  19.544  0.00  0.00    +0.104 A 
ATOM      9  N   UNL     1      16.267   6.425  18.956  0.00  0.00    -0.240 NA
ATOM     10  C   UNL     1      16.916   5.948  19.134  0.00  0.00    +0.106 A 
ATOM     11  C   UNL     1      17.253   6.228  19.834  0.00  0.00    +0.057 A 
ATOM     12  S   UNL     1      16.811   6.877  20.087  0.00  0.00    -0.069 S 
ENDBRANCH   7   8
ENDBRANCH   6   7
TORSDOF 2
ENDMDL
