MODEL 1
REMARK VINA RESULT:     -13.2      0.000      0.000
REMARK  Name = 
REMARK  4 active torsions:
REMARK  status: ('A' for Active; 'I' for Inactive)
REMARK    1  A    between atoms: N_4  and  C_5
REMARK    2  A    between atoms: C_8  and  C_11
REMARK    3  A    between atoms: N_17  and  C_18
REMARK    4  A    between atoms: C_18  and  C_19
REMARK                            x       y       z     vdW  Elec       q    Type
REMARK                         _______ _______ _______ _____ _____    ______ ____
ROOT
ATOM     11  C   UNL     1      -3.408   1.155  24.469  0.00  0.00    +0.012 A 
ATOM     12  C   UNL     1      -2.665   1.400  24.733  0.00  0.00    +0.041 A 
ATOM     13  C   UNL     1      -1.869   1.059  25.041  0.00  0.00    +0.054 C 
ATOM     14  C   UNL     1      -1.549   0.451  25.183  0.00  0.00    +0.011 C 
ATOM     15  C   UNL     1      -1.374   1.246  25.216  0.00  0.00    +0.039 C 
ATOM     16  C   UNL     1      -0.978   2.144  25.326  0.00  0.00    +0.074 C 
ATOM     17  N   UNL     1      -1.621   2.612  25.070  0.00  0.00    -0.268 NA
ATOM     24  C   UNL     1      -1.473   1.921  25.153  0.00  0.00    +0.078 C 
ATOM     25  C   UNL     1      -2.202   1.611  24.896  0.00  0.00    +0.110 C 
ATOM     26  N   UNL     1      -2.484   2.204  24.768  0.00  0.00    -0.299 N 
ATOM     27  C   UNL     1      -3.045   2.764  24.539  0.00  0.00    +0.261 A 
ATOM     28  O   UNL     1      -2.864   3.568  24.574  0.00  0.00    -0.267 OA
ATOM     29  C   UNL     1      -3.787   2.519  24.275  0.00  0.00    +0.061 A 
ATOM     30  C   UNL     1      -3.969   1.715  24.240  0.00  0.00    +0.006 A 
ENDROOT
BRANCH  11   8
ATOM      5  C   UNL     1      -3.951  -1.257  24.365  0.00  0.00    +0.073 A 
ATOM      6  C   UNL     1      -4.056  -0.841  25.069  0.00  0.00    +0.017 A 
ATOM      7  C   UNL     1      -3.875  -0.037  25.104  0.00  0.00    +0.001 A 
ATOM      8  C   UNL     1      -3.589   0.351  24.434  0.00  0.00    +0.001 A 
ATOM      9  C   UNL     1      -3.483  -0.065  23.730  0.00  0.00    +0.001 A 
ATOM     10  C   UNL     1      -3.664  -0.869  23.695  0.00  0.00    +0.017 A 
BRANCH   5   4
ATOM      1  C   UNL     1      -3.718  -3.426  24.402  0.00  0.00    +0.097 C 
ATOM      2  C   UNL     1      -3.537  -2.623  24.436  0.00  0.00    +0.246 C 
ATOM      3  O   UNL     1      -2.761  -2.380  24.577  0.00  0.00    -0.273 OA
ATOM      4  N   UNL     1      -4.132  -2.061  24.330  0.00  0.00    -0.179 NA
ENDBRANCH   5   4
ENDBRANCH  11   8
BRANCH  17  18
ATOM     18  C   UNL     1      -2.054   3.290  24.884  0.00  0.00    +0.106 C 
BRANCH  18  19
ATOM     19  C   UNL     1      -1.704   4.034  24.951  0.00  0.00    +0.023 A 
ATOM     20  C   UNL     1      -1.004   4.276  24.587  0.00  0.00    +0.004 A 
ATOM     21  C   UNL     1      -0.861   5.058  24.806  0.00  0.00    +0.007 A 
ATOM     22  C   UNL     1      -1.471   5.300  25.305  0.00  0.00    +0.035 A 
ATOM     23  S   UNL     1      -1.992   4.668  25.396  0.00  0.00    -0.089 S 
ENDBRANCH  18  19
ENDBRANCH  17  18
TORSDOF 4
ENDMDL
MODEL 2
REMARK VINA RESULT:     -12.9      1.628      5.142
REMARK  Name = 
REMARK  4 active torsions:
REMARK  status: ('A' for Active; 'I' for Inactive)
REMARK    1  A    between atoms: N_4  and  C_5
REMARK    2  A    between atoms: C_8  and  C_11
REMARK    3  A    between atoms: N_17  and  C_18
REMARK    4  A    between atoms: C_18  and  C_19
REMARK                            x       y       z     vdW  Elec       q    Type
REMARK                         _______ _______ _______ _____ _____    ______ ____
ROOT
ATOM     11  C   UNL     1      -1.481   1.132  24.932  0.00  0.00    +0.012 A 
ATOM     12  C   UNL     1      -2.260   0.881  24.835  0.00  0.00    +0.041 A 
ATOM     13  C   UNL     1      -3.110   1.216  24.729  0.00  0.00    +0.054 C 
ATOM     14  C   UNL     1      -3.461   1.821  24.686  0.00  0.00    +0.011 C 
ATOM     15  C   UNL     1      -3.630   1.025  24.664  0.00  0.00    +0.039 C 
ATOM     16  C   UNL     1      -4.028   0.122  24.613  0.00  0.00    +0.074 C 
ATOM     17  N   UNL     1      -3.338  -0.341  24.698  0.00  0.00    -0.268 NA
ATOM     24  C   UNL     1      -3.510   0.350  24.678  0.00  0.00    +0.078 C 
ATOM     25  C   UNL     1      -2.746   0.666  24.774  0.00  0.00    +0.110 C 
ATOM     26  N   UNL     1      -2.434   0.075  24.812  0.00  0.00    -0.299 N 
ATOM     27  C   UNL     1      -1.829  -0.480  24.887  0.00  0.00    +0.261 A 
ATOM     28  O   UNL     1      -2.003  -1.286  24.864  0.00  0.00    -0.267 OA
ATOM     29  C   UNL     1      -1.049  -0.229  24.984  0.00  0.00    +0.061 A 
ATOM     30  C   UNL     1      -0.875   0.577  25.007  0.00  0.00    +0.006 A 
ENDROOT
BRANCH  11   8
ATOM      5  C   UNL     1      -0.959   3.551  25.001  0.00  0.00    +0.073 A 
ATOM      6  C   UNL     1      -0.966   3.151  24.279  0.00  0.00    +0.017 A 
ATOM      7  C   UNL     1      -1.140   2.345  24.257  0.00  0.00    +0.001 A 
ATOM      8  C   UNL     1      -1.307   1.939  24.955  0.00  0.00    +0.001 A 
ATOM      9  C   UNL     1      -1.299   2.339  25.676  0.00  0.00    +0.001 A 
ATOM     10  C   UNL     1      -1.125   3.145  25.699  0.00  0.00    +0.017 A 
BRANCH   5   4
ATOM      1  C   UNL     1      -1.222   5.717  25.048  0.00  0.00    +0.097 C 
ATOM      2  C   UNL     1      -1.396   4.911  25.025  0.00  0.00    +0.246 C 
ATOM      3  O   UNL     1      -2.181   4.659  25.004  0.00  0.00    -0.273 OA
ATOM      4  N   UNL     1      -0.785   4.357  25.023  0.00  0.00    -0.179 NA
ENDBRANCH   5   4
ENDBRANCH  11   8
BRANCH  17  18
ATOM     18  C   UNL     1      -2.866  -1.015  24.756  0.00  0.00    +0.106 C 
BRANCH  18  19
ATOM     19  C   UNL     1      -3.206  -1.763  24.687  0.00  0.00    +0.023 A 
ATOM     20  C   UNL     1      -3.532  -2.087  24.002  0.00  0.00    +0.004 A 
ATOM     21  C   UNL     1      -3.807  -2.844  24.184  0.00  0.00    +0.007 A 
ATOM     22  C   UNL     1      -3.651  -2.988  24.980  0.00  0.00    +0.035 A 
ATOM     23  S   UNL     1      -3.279  -2.321  25.292  0.00  0.00    -0.089 S 
ENDBRANCH  18  19
ENDBRANCH  17  18
TORSDOF 4
ENDMDL
MODEL 3
REMARK VINA RESULT:     -11.0      2.087      4.683
REMARK  Name = 
REMARK  4 active torsions:
REMARK  status: ('A' for Active; 'I' for Inactive)
REMARK    1  A    between atoms: N_4  and  C_5
REMARK    2  A    between atoms: C_8  and  C_11
REMARK    3  A    between atoms: N_17  and  C_18
REMARK    4  A    between atoms: C_18  and  C_19
REMARK                            x       y       z     vdW  Elec       q    Type
REMARK                         _______ _______ _______ _____ _____    ______ ____
ROOT
ATOM     11  C   UNL     1      -2.909   1.614  24.637  0.00  0.00    +0.012 A 
ATOM     12  C   UNL     1      -3.181   0.855  24.807  0.00  0.00    +0.041 A 
ATOM     13  C   UNL     1      -3.933   0.415  25.097  0.00  0.00    +0.054 C 
ATOM     14  C   UNL     1      -4.596   0.531  25.297  0.00  0.00    +0.011 C 
ATOM     15  C   UNL     1      -4.097  -0.107  25.207  0.00  0.00    +0.039 C 
ATOM     16  C   UNL     1      -3.655  -0.989  25.161  0.00  0.00    +0.074 C 
ATOM     17  N   UNL     1      -2.900  -0.754  24.893  0.00  0.00    -0.268 NA
ATOM     24  C   UNL     1      -3.520  -0.445  25.059  0.00  0.00    +0.078 C 
ATOM     25  C   UNL     1      -3.306   0.344  24.903  0.00  0.00    +0.110 C 
ATOM     26  N   UNL     1      -2.678   0.206  24.717  0.00  0.00    -0.299 N 
ATOM     27  C   UNL     1      -1.903   0.318  24.456  0.00  0.00    +0.261 A 
ATOM     28  O   UNL     1      -1.401  -0.330  24.365  0.00  0.00    -0.267 OA
ATOM     29  C   UNL     1      -1.631   1.078  24.285  0.00  0.00    +0.061 A 
ATOM     30  C   UNL     1      -2.134   1.726  24.376  0.00  0.00    +0.006 A 
ENDROOT
BRANCH  11   8
ATOM      5  C   UNL     1      -4.416   3.559  24.908  0.00  0.00    +0.073 A 
ATOM      6  C   UNL     1      -4.430   3.121  24.210  0.00  0.00    +0.017 A 
ATOM      7  C   UNL     1      -3.928   2.472  24.119  0.00  0.00    +0.001 A 
ATOM      8  C   UNL     1      -3.411   2.263  24.727  0.00  0.00    +0.001 A 
ATOM      9  C   UNL     1      -3.397   2.701  25.426  0.00  0.00    +0.001 A 
ATOM     10  C   UNL     1      -3.900   3.349  25.516  0.00  0.00    +0.017 A 
BRANCH   5   4
ATOM      1  C   UNL     1      -6.093   4.792  25.562  0.00  0.00    +0.097 C 
ATOM      2  C   UNL     1      -5.591   4.144  25.472  0.00  0.00    +0.246 C 
ATOM      3  O   UNL     1      -5.761   3.434  25.854  0.00  0.00    -0.273 OA
ATOM      4  N   UNL     1      -4.918   4.206  24.998  0.00  0.00    -0.179 NA
ENDBRANCH   5   4
ENDBRANCH  11   8
BRANCH  17  18
ATOM     18  C   UNL     1      -2.114  -0.821  24.648  0.00  0.00    +0.106 C 
BRANCH  18  19
ATOM     19  C   UNL     1      -1.746  -1.559  24.644  0.00  0.00    +0.023 A 
ATOM     20  C   UNL     1      -1.934  -2.192  24.150  0.00  0.00    +0.004 A 
ATOM     21  C   UNL     1      -1.428  -2.818  24.334  0.00  0.00    +0.007 A 
ATOM     22  C   UNL     1      -0.927  -2.571  24.941  0.00  0.00    +0.035 A 
ATOM     23  S   UNL     1      -1.123  -1.793  25.133  0.00  0.00    -0.089 S 
ENDBRANCH  18  19
ENDBRANCH  17  18
TORSDOF 4
ENDMDL
MODEL 4
REMARK VINA RESULT:     -10.4      2.254      3.714
REMARK  Name = 
REMARK  4 active torsions:
REMARK  status: ('A' for Active; 'I' for Inactive)
REMARK    1  A    between atoms: N_4  and  C_5
REMARK    2  A    between atoms: C_8  and  C_11
REMARK    3  A    between atoms: N_17  and  C_18
REMARK    4  A    between atoms: C_18  and  C_19
REMARK                            x       y       z     vdW  Elec       q    Type
REMARK                         _______ _______ _______ _____ _____    ______ ____
ROOT
ATOM     11  C   UNL     1      -2.321   0.159  24.704  0.00  0.00    +0.012 A 
ATOM     12  C   UNL     1      -2.709   0.828  24.419  0.00  0.00    +0.041 A 
ATOM     13  C   UNL     1      -2.579   1.542  23.855  0.00  0.00    +0.054 C 
ATOM     14  C   UNL     1      -2.101   1.826  23.427  0.00  0.00    +0.011 C 
ATOM     15  C   UNL     1      -2.860   1.989  23.675  0.00  0.00    +0.039 C 
ATOM     16  C   UNL     1      -3.762   2.352  23.852  0.00  0.00    +0.074 C 
ATOM     17  N   UNL     1      -4.040   1.777  24.390  0.00  0.00    -0.268 NA
ATOM     24  C   UNL     1      -3.448   1.905  24.016  0.00  0.00    +0.078 C 
ATOM     25  C   UNL     1      -3.004   1.247  24.266  0.00  0.00    +0.110 C 
ATOM     26  N   UNL     1      -3.477   0.997  24.668  0.00  0.00    -0.299 N 
ATOM     27  C   UNL     1      -3.857   0.497  25.203  0.00  0.00    +0.261 A 
ATOM     28  O   UNL     1      -4.625   0.666  25.452  0.00  0.00    -0.267 OA
ATOM     29  C   UNL     1      -3.469  -0.173  25.488  0.00  0.00    +0.061 A 
ATOM     30  C   UNL     1      -2.701  -0.342  25.239  0.00  0.00    +0.006 A 
ENDROOT
BRANCH  11   8
ATOM      5  C   UNL     1      -0.016  -0.348  23.957  0.00  0.00    +0.073 A 
ATOM      6  C   UNL     1      -0.658  -0.711  23.588  0.00  0.00    +0.017 A 
ATOM      7  C   UNL     1      -1.426  -0.542  23.837  0.00  0.00    +0.001 A 
ATOM      8  C   UNL     1      -1.552  -0.010  24.455  0.00  0.00    +0.001 A 
ATOM      9  C   UNL     1      -0.910   0.353  24.824  0.00  0.00    +0.001 A 
ATOM     10  C   UNL     1      -0.142   0.184  24.575  0.00  0.00    +0.017 A 
BRANCH   5   4
ATOM      1  C   UNL     1       1.845  -0.277  22.820  0.00  0.00    +0.097 C 
ATOM      2  C   UNL     1       1.078  -0.108  23.069  0.00  0.00    +0.246 C 
ATOM      3  O   UNL     1       0.636   0.470  22.681  0.00  0.00    -0.273 OA
ATOM      4  N   UNL     1       0.752  -0.517  23.708  0.00  0.00    -0.179 NA
ENDBRANCH   5   4
ENDBRANCH  11   8
BRANCH  17  18
ATOM     18  C   UNL     1      -4.556   1.393  24.907  0.00  0.00    +0.106 C 
BRANCH  18  19
ATOM     19  C   UNL     1      -5.290   1.726  25.081  0.00  0.00    +0.023 A 
ATOM     20  C   UNL     1      -6.005   1.547  24.709  0.00  0.00    +0.004 A 
ATOM     21  C   UNL     1      -6.595   2.009  25.055  0.00  0.00    +0.007 A 
ATOM     22  C   UNL     1      -6.246   2.472  25.641  0.00  0.00    +0.035 A 
ATOM     23  S   UNL     1      -5.440   2.299  25.657  0.00  0.00    -0.089 S 
ENDBRANCH  18  19
ENDBRANCH  17  18
TORSDOF 4
ENDMDL
MODEL 5
REMARK VINA RESULT:     -10.1      2.370      3.684
REMARK  Name = 
REMARK  4 active torsions:
REMARK  status: ('A' for Active; 'I' for Inactive)
REMARK    1  A    between atoms: N_4  and  C_5
REMARK    2  A    between atoms: C_8  and  C_11
REMARK    3  A    between atoms: N_17  and  C_18
REMARK    4  A    between atoms: C_18  and  C_19
REMARK                            x       y       z     vdW  Elec       q    Type
REMARK                         _______ _______ _______ _____ _____    ______ ____
ROOT
ATOM     11  C   UNL     1      -1.473   2.433  24.937  0.00  0.00    +0.012 A 
ATOM     12  C   UNL     1      -2.205   2.311  24.578  0.00  0.00    +0.041 A 
ATOM     13  C   UNL     1      -2.589   1.861  23.874  0.00  0.00    +0.054 C 
ATOM     14  C   UNL     1      -2.429   1.431  23.343  0.00  0.00    +0.011 C 
ATOM     15  C   UNL     1      -3.093   1.791  23.647  0.00  0.00    +0.039 C 
ATOM     16  C   UNL     1      -3.996   2.131  23.861  0.00  0.00    +0.074 C 
ATOM     17  N   UNL     1      -3.815   2.596  24.531  0.00  0.00    -0.268 NA
ATOM     24  C   UNL     1      -3.467   2.181  24.068  0.00  0.00    +0.078 C 
ATOM     25  C   UNL     1      -2.702   2.265  24.384  0.00  0.00    +0.110 C 
ATOM     26  N   UNL     1      -2.881   2.674  24.883  0.00  0.00    -0.299 N 
ATOM     27  C   UNL     1      -2.824   3.159  25.548  0.00  0.00    +0.261 A 
ATOM     28  O   UNL     1      -3.499   3.522  25.853  0.00  0.00    -0.267 OA
ATOM     29  C   UNL     1      -2.091   3.282  25.907  0.00  0.00    +0.061 A 
ATOM     30  C   UNL     1      -1.416   2.919  25.601  0.00  0.00    +0.006 A 
ENDROOT
BRANCH  11   8
ATOM      5  C   UNL     1       0.552   1.344  24.021  0.00  0.00    +0.073 A 
ATOM      6  C   UNL     1       0.339   2.099  23.767  0.00  0.00    +0.017 A 
ATOM      7  C   UNL     1      -0.336   2.462  24.072  0.00  0.00    +0.001 A 
ATOM      8  C   UNL     1      -0.798   2.070  24.632  0.00  0.00    +0.001 A 
ATOM      9  C   UNL     1      -0.585   1.315  24.886  0.00  0.00    +0.001 A 
ATOM     10  C   UNL     1       0.090   0.952  24.581  0.00  0.00    +0.017 A 
BRANCH   5   4
ATOM      1  C   UNL     1       1.829  -0.006  22.878  0.00  0.00    +0.097 C 
ATOM      2  C   UNL     1       1.155   0.356  23.183  0.00  0.00    +0.246 C 
ATOM      3  O   UNL     1       0.406   0.094  22.956  0.00  0.00    -0.273 OA
ATOM      4  N   UNL     1       1.227   0.982  23.716  0.00  0.00    -0.179 NA
ENDBRANCH   5   4
ENDBRANCH  11   8
BRANCH  17  18
ATOM     18  C   UNL     1      -3.935   3.101  25.173  0.00  0.00    +0.106 C 
BRANCH  18  19
ATOM     19  C   UNL     1      -4.697   3.356  25.359  0.00  0.00    +0.023 A 
ATOM     20  C   UNL     1      -5.011   4.102  25.199  0.00  0.00    +0.004 A 
ATOM     21  C   UNL     1      -5.787   4.117  25.479  0.00  0.00    +0.007 A 
ATOM     22  C   UNL     1      -5.952   3.381  25.813  0.00  0.00    +0.035 A 
ATOM     23  S   UNL     1      -5.279   2.911  25.739  0.00  0.00    -0.089 S 
ENDBRANCH  18  19
ENDBRANCH  17  18
TORSDOF 4
ENDMDL
