MODEL 1
REMARK VINA RESULT:     -11.6      0.000      0.000
REMARK  Name = 
REMARK  6 active torsions:
REMARK  status: ('A' for Active; 'I' for Inactive)
REMARK    1  A    between atoms: O_2  and  C_3
REMARK    2  A    between atoms: C_6  and  C_9
REMARK    3  A    between atoms: C_15  and  N_16
REMARK    4  A    between atoms: N_16  and  S_17
REMARK    5  A    between atoms: S_17  and  C_20
REMARK    6  A    between atoms: C_23  and  C_26
REMARK                            x       y       z     vdW  Elec       q    Type
REMARK                         _______ _______ _______ _____ _____    ______ ____
ROOT
ATOM      9  C   UNL     1      -4.257   3.015  25.250  0.00  0.00    +0.045 C 
ATOM     10  C   UNL     1      -4.975   3.229  25.595  0.00  0.00    +0.041 C 
ATOM     11  C   UNL     1      -5.523   2.632  25.437  0.00  0.00    +0.184 C 
ATOM     12  O   UNL     1      -6.311   2.621  25.679  0.00  0.00    -0.220 OA
ATOM     13  C   UNL     1      -5.143   2.049  24.995  0.00  0.00    +0.200 C 
ATOM     14  O   UNL     1      -5.484   1.351  24.717  0.00  0.00    -0.219 OA
ATOM     15  C   UNL     1      -4.360   2.285  24.879  0.00  0.00    +0.135 C 
ENDROOT
BRANCH   9   6
ATOM      3  C   UNL     1      -2.161   4.330  25.317  0.00  0.00    +0.139 A 
ATOM      4  C   UNL     1      -2.428   3.942  25.995  0.00  0.00    +0.037 A 
ATOM      5  C   UNL     1      -3.126   3.504  25.973  0.00  0.00    -0.001 A 
ATOM      6  C   UNL     1      -3.559   3.453  25.273  0.00  0.00    -0.021 A 
ATOM      7  C   UNL     1      -3.293   3.840  24.594  0.00  0.00    -0.001 A 
ATOM      8  C   UNL     1      -2.595   4.279  24.616  0.00  0.00    +0.037 A 
BRANCH   3   2
ATOM      1  C   UNL     1      -0.781   4.475  24.978  0.00  0.00    +0.252 C 
ATOM      2  O   UNL     1      -1.463   4.768  25.339  0.00  0.00    -0.471 OA
ENDBRANCH   3   2
ENDBRANCH   9   6
BRANCH  15  16
ATOM     16  N   UNL     1      -3.783   1.866  24.466  0.00  0.00    -0.076 NA
BRANCH  16  17
ATOM     17  S   UNL     1      -3.732   1.046  24.544  0.00  0.00    +0.077 S 
ATOM     18  O   UNL     1      -3.988   0.957  23.765  0.00  0.00    -0.152 OA
ATOM     19  O   UNL     1      -3.477   1.136  25.323  0.00  0.00    -0.152 OA
BRANCH  17  20
ATOM     20  C   UNL     1      -3.682   0.226  24.621  0.00  0.00    +0.124 A 
ATOM     21  C   UNL     1      -3.913  -0.262  23.997  0.00  0.00    +0.021 A 
ATOM     22  C   UNL     1      -3.863  -1.082  24.073  0.00  0.00    +0.012 A 
ATOM     23  C   UNL     1      -3.581  -1.414  24.774  0.00  0.00    +0.069 A 
ATOM     24  C   UNL     1      -3.350  -0.926  25.398  0.00  0.00    +0.012 A 
ATOM     25  C   UNL     1      -3.400  -0.106  25.322  0.00  0.00    +0.021 A 
BRANCH  23  26
ATOM     26  C   UNL     1      -3.531  -2.233  24.851  0.00  0.00    +0.100 C 
ATOM     27  N   UNL     1      -3.479  -3.053  24.929  0.00  0.00    -0.191 NA
ENDBRANCH  23  26
ENDBRANCH  17  20
ENDBRANCH  16  17
ENDBRANCH  15  16
TORSDOF 6
ENDMDL
MODEL 2
REMARK VINA RESULT:     -10.9      1.443      4.444
REMARK  Name = 
REMARK  6 active torsions:
REMARK  status: ('A' for Active; 'I' for Inactive)
REMARK    1  A    between atoms: O_2  and  C_3
REMARK    2  A    between atoms: C_6  and  C_9
REMARK    3  A    between atoms: C_15  and  N_16
REMARK    4  A    between atoms: N_16  and  S_17
REMARK    5  A    between atoms: S_17  and  C_20
REMARK    6  A    between atoms: C_23  and  C_26
REMARK                            x       y       z     vdW  Elec       q    Type
REMARK                         _______ _______ _______ _____ _____    ______ ____
ROOT
ATOM      9  C   UNL     1      -4.643   0.592  24.959  0.00  0.00    +0.045 C 
ATOM     10  C   UNL     1      -5.360   0.746  25.336  0.00  0.00    +0.041 C 
ATOM     11  C   UNL     1      -5.516   1.553  25.268  0.00  0.00    +0.184 C 
ATOM     12  O   UNL     1      -6.177   1.946  25.567  0.00  0.00    -0.220 OA
ATOM     13  C   UNL     1      -4.896   1.899  24.848  0.00  0.00    +0.200 C 
ATOM     14  O   UNL     1      -4.826   2.697  24.654  0.00  0.00    -0.219 OA
ATOM     15  C   UNL     1      -4.356   1.304  24.657  0.00  0.00    +0.135 C 
ENDROOT
BRANCH   9   6
ATOM      3  C   UNL     1      -3.546  -1.618  24.764  0.00  0.00    +0.139 A 
ATOM      4  C   UNL     1      -3.948  -1.298  24.119  0.00  0.00    +0.037 A 
ATOM      5  C   UNL     1      -4.314  -0.562  24.184  0.00  0.00    -0.001 A 
ATOM      6  C   UNL     1      -4.277  -0.145  24.894  0.00  0.00    -0.021 A 
ATOM      7  C   UNL     1      -3.875  -0.464  25.540  0.00  0.00    -0.001 A 
ATOM      8  C   UNL     1      -3.510  -1.200  25.475  0.00  0.00    +0.037 A 
BRANCH   3   2
ATOM      1  C   UNL     1      -2.389  -2.403  24.470  0.00  0.00    +0.252 C 
ATOM      2  O   UNL     1      -3.180  -2.355  24.699  0.00  0.00    -0.471 OA
ENDBRANCH   3   2
ENDBRANCH   9   6
BRANCH  15  16
ATOM     16  N   UNL     1      -3.653   1.405  24.238  0.00  0.00    -0.076 NA
BRANCH  16  17
ATOM     17  S   UNL     1      -3.167   2.053  24.396  0.00  0.00    +0.077 S 
ATOM     18  O   UNL     1      -3.353   2.371  23.659  0.00  0.00    -0.152 OA
ATOM     19  O   UNL     1      -2.980   1.733  25.134  0.00  0.00    -0.152 OA
BRANCH  17  20
ATOM     20  C   UNL     1      -2.681   2.701  24.553  0.00  0.00    +0.124 A 
ATOM     21  C   UNL     1      -2.098   2.647  25.136  0.00  0.00    +0.021 A 
ATOM     22  C   UNL     1      -1.612   3.295  25.293  0.00  0.00    +0.012 A 
ATOM     23  C   UNL     1      -1.708   3.996  24.869  0.00  0.00    +0.069 A 
ATOM     24  C   UNL     1      -2.291   4.049  24.287  0.00  0.00    +0.012 A 
ATOM     25  C   UNL     1      -2.777   3.401  24.129  0.00  0.00    +0.021 A 
BRANCH  23  26
ATOM     26  C   UNL     1      -1.222   4.644  25.026  0.00  0.00    +0.100 C 
ATOM     27  N   UNL     1      -0.737   5.292  25.182  0.00  0.00    -0.191 NA
ENDBRANCH  23  26
ENDBRANCH  17  20
ENDBRANCH  16  17
ENDBRANCH  15  16
TORSDOF 6
ENDMDL
MODEL 3
REMARK VINA RESULT:     -10.1      2.200      3.191
REMARK  Name = 
REMARK  6 active torsions:
REMARK  status: ('A' for Active; 'I' for Inactive)
REMARK    1  A    between atoms: O_2  and  C_3
REMARK    2  A    between atoms: C_6  and  C_9
REMARK    3  A    between atoms: C_15  and  N_16
REMARK    4  A    between atoms: N_16  and  S_17
REMARK    5  A    between atoms: S_17  and  C_20
REMARK    6  A    between atoms: C_23  and  C_26
REMARK                            x       y       z     vdW  Elec       q    Type
REMARK                         _______ _______ _______ _____ _____    ______ ____
ROOT
ATOM      9  C   UNL     1      -0.673   1.591  24.635  0.00  0.00    +0.045 C 
ATOM     10  C   UNL     1      -0.027   1.567  24.124  0.00  0.00    +0.041 C 
ATOM     11  C   UNL     1       0.141   0.775  23.962  0.00  0.00    +0.184 C 
ATOM     12  O   UNL     1       0.746   0.497  23.475  0.00  0.00    -0.220 OA
ATOM     13  C   UNL     1      -0.402   0.310  24.374  0.00  0.00    +0.200 C 
ATOM     14  O   UNL     1      -0.436  -0.514  24.371  0.00  0.00    -0.219 OA
ATOM     15  C   UNL     1      -0.906   0.814  24.790  0.00  0.00    +0.135 C 
ENDROOT
BRANCH   9   6
ATOM      3  C   UNL     1      -1.732   3.635  25.544  0.00  0.00    +0.139 A 
ATOM      4  C   UNL     1      -1.254   3.168  26.027  0.00  0.00    +0.037 A 
ATOM      5  C   UNL     1      -0.901   2.487  25.724  0.00  0.00    -0.001 A 
ATOM      6  C   UNL     1      -1.026   2.273  24.938  0.00  0.00    -0.021 A 
ATOM      7  C   UNL     1      -1.505   2.739  24.454  0.00  0.00    -0.001 A 
ATOM      8  C   UNL     1      -1.858   3.420  24.757  0.00  0.00    +0.037 A 
BRANCH   3   2
ATOM      1  C   UNL     1      -2.865   4.291  26.118  0.00  0.00    +0.252 C 
ATOM      2  O   UNL     1      -2.085   4.316  25.848  0.00  0.00    -0.471 OA
ENDBRANCH   3   2
ENDBRANCH   9   6
BRANCH  15  16
ATOM     16  N   UNL     1      -1.531   0.583  25.275  0.00  0.00    -0.076 NA
BRANCH  16  17
ATOM     17  S   UNL     1      -2.064   0.009  25.017  0.00  0.00    +0.077 S 
ATOM     18  O   UNL     1      -1.828  -0.486  25.634  0.00  0.00    -0.152 OA
ATOM     19  O   UNL     1      -2.299   0.504  24.400  0.00  0.00    -0.152 OA
BRANCH  17  20
ATOM     20  C   UNL     1      -2.596  -0.567  24.759  0.00  0.00    +0.124 A 
ATOM     21  C   UNL     1      -3.217  -0.359  24.257  0.00  0.00    +0.021 A 
ATOM     22  C   UNL     1      -3.750  -0.933  23.999  0.00  0.00    +0.012 A 
ATOM     23  C   UNL     1      -3.661  -1.716  24.243  0.00  0.00    +0.069 A 
ATOM     24  C   UNL     1      -3.040  -1.925  24.745  0.00  0.00    +0.012 A 
ATOM     25  C   UNL     1      -2.508  -1.350  25.003  0.00  0.00    +0.021 A 
BRANCH  23  26
ATOM     26  C   UNL     1      -4.194  -2.292  23.986  0.00  0.00    +0.100 C 
ATOM     27  N   UNL     1      -4.726  -2.866  23.728  0.00  0.00    -0.191 NA
ENDBRANCH  23  26
ENDBRANCH  17  20
ENDBRANCH  16  17
ENDBRANCH  15  16
TORSDOF 6
ENDMDL
MODEL 4
REMARK VINA RESULT:     -10.1      1.416      2.528
REMARK  Name = 
REMARK  6 active torsions:
REMARK  status: ('A' for Active; 'I' for Inactive)
REMARK    1  A    between atoms: O_2  and  C_3
REMARK    2  A    between atoms: C_6  and  C_9
REMARK    3  A    between atoms: C_15  and  N_16
REMARK    4  A    between atoms: N_16  and  S_17
REMARK    5  A    between atoms: S_17  and  C_20
REMARK    6  A    between atoms: C_23  and  C_26
REMARK                            x       y       z     vdW  Elec       q    Type
REMARK                         _______ _______ _______ _____ _____    ______ ____
ROOT
ATOM      9  C   UNL     1      -3.443   2.363  23.965  0.00  0.00    +0.045 C 
ATOM     10  C   UNL     1      -3.224   2.633  23.217  0.00  0.00    +0.041 C 
ATOM     11  C   UNL     1      -2.684   2.096  22.900  0.00  0.00    +0.184 C 
ATOM     12  O   UNL     1      -2.323   2.151  22.160  0.00  0.00    -0.220 OA
ATOM     13  C   UNL     1      -2.569   1.494  23.452  0.00  0.00    +0.200 C 
ATOM     14  O   UNL     1      -2.073   0.841  23.362  0.00  0.00    -0.219 OA
ATOM     15  C   UNL     1      -3.038   1.659  24.111  0.00  0.00    +0.135 C 
ENDROOT
BRANCH   9   6
ATOM      3  C   UNL     1      -5.034   3.471  25.504  0.00  0.00    +0.139 A 
ATOM      4  C   UNL     1      -5.315   3.000  24.887  0.00  0.00    +0.037 A 
ATOM      5  C   UNL     1      -4.785   2.631  24.374  0.00  0.00    -0.001 A 
ATOM      6  C   UNL     1      -3.973   2.732  24.478  0.00  0.00    -0.021 A 
ATOM      7  C   UNL     1      -3.691   3.202  25.095  0.00  0.00    -0.001 A 
ATOM      8  C   UNL     1      -4.221   3.572  25.607  0.00  0.00    +0.037 A 
BRANCH   3   2
ATOM      1  C   UNL     1      -6.066   4.432  25.735  0.00  0.00    +0.252 C 
ATOM      2  O   UNL     1      -5.564   3.840  26.017  0.00  0.00    -0.471 OA
ENDBRANCH   3   2
ENDBRANCH   9   6
BRANCH  15  16
ATOM     16  N   UNL     1      -3.093   1.201  24.794  0.00  0.00    -0.076 NA
BRANCH  16  17
ATOM     17  S   UNL     1      -3.187   0.383  24.736  0.00  0.00    +0.077 S 
ATOM     18  O   UNL     1      -2.437   0.275  25.063  0.00  0.00    -0.152 OA
ATOM     19  O   UNL     1      -3.937   0.492  24.410  0.00  0.00    -0.152 OA
BRANCH  17  20
ATOM     20  C   UNL     1      -3.279  -0.435  24.680  0.00  0.00    +0.124 A 
ATOM     21  C   UNL     1      -3.935  -0.749  24.288  0.00  0.00    +0.021 A 
ATOM     22  C   UNL     1      -4.028  -1.567  24.231  0.00  0.00    +0.012 A 
ATOM     23  C   UNL     1      -3.467  -2.071  24.565  0.00  0.00    +0.069 A 
ATOM     24  C   UNL     1      -2.812  -1.756  24.956  0.00  0.00    +0.012 A 
ATOM     25  C   UNL     1      -2.718  -0.938  25.014  0.00  0.00    +0.021 A 
BRANCH  23  26
ATOM     26  C   UNL     1      -3.560  -2.888  24.508  0.00  0.00    +0.100 C 
ATOM     27  N   UNL     1      -3.653  -3.706  24.451  0.00  0.00    -0.191 NA
ENDBRANCH  23  26
ENDBRANCH  17  20
ENDBRANCH  16  17
ENDBRANCH  15  16
TORSDOF 6
ENDMDL
MODEL 5
REMARK VINA RESULT:     -10.0      1.748      4.866
REMARK  Name = 
REMARK  6 active torsions:
REMARK  status: ('A' for Active; 'I' for Inactive)
REMARK    1  A    between atoms: O_2  and  C_3
REMARK    2  A    between atoms: C_6  and  C_9
REMARK    3  A    between atoms: C_15  and  N_16
REMARK    4  A    between atoms: N_16  and  S_17
REMARK    5  A    between atoms: S_17  and  C_20
REMARK    6  A    between atoms: C_23  and  C_26
REMARK                            x       y       z     vdW  Elec       q    Type
REMARK                         _______ _______ _______ _____ _____    ______ ____
ROOT
ATOM      9  C   UNL     1      -2.083  -0.035  25.127  0.00  0.00    +0.045 C 
ATOM     10  C   UNL     1      -1.367   0.086  25.518  0.00  0.00    +0.041 C 
ATOM     11  C   UNL     1      -1.175   0.886  25.459  0.00  0.00    +0.184 C 
ATOM     12  O   UNL     1      -0.504   1.248  25.772  0.00  0.00    -0.220 OA
ATOM     13  C   UNL     1      -1.772   1.260  25.030  0.00  0.00    +0.200 C 
ATOM     14  O   UNL     1      -1.803   2.062  24.839  0.00  0.00    -0.219 OA
ATOM     15  C   UNL     1      -2.333   0.691  24.825  0.00  0.00    +0.135 C 
ENDROOT
BRANCH   9   6
ATOM      3  C   UNL     1      -3.270  -2.194  24.898  0.00  0.00    +0.139 A 
ATOM      4  C   UNL     1      -2.843  -1.888  24.262  0.00  0.00    +0.037 A 
ATOM      5  C   UNL     1      -2.447  -1.169  24.338  0.00  0.00    -0.001 A 
ATOM      6  C   UNL     1      -2.479  -0.755  25.050  0.00  0.00    -0.021 A 
ATOM      7  C   UNL     1      -2.906  -1.059  25.687  0.00  0.00    -0.001 A 
ATOM      8  C   UNL     1      -3.302  -1.779  25.611  0.00  0.00    +0.037 A 
BRANCH   3   2
ATOM      1  C   UNL     1      -4.021  -3.115  24.104  0.00  0.00    +0.252 C 
ATOM      2  O   UNL     1      -3.666  -2.914  24.821  0.00  0.00    -0.471 OA
ENDBRANCH   3   2
ENDBRANCH   9   6
BRANCH  15  16
ATOM     16  N   UNL     1      -3.023   0.824  24.393  0.00  0.00    -0.076 NA
BRANCH  16  17
ATOM     17  S   UNL     1      -3.535   1.434  24.610  0.00  0.00    +0.077 S 
ATOM     18  O   UNL     1      -3.395   1.807  23.888  0.00  0.00    -0.152 OA
ATOM     19  O   UNL     1      -3.675   1.060  25.332  0.00  0.00    -0.152 OA
BRANCH  17  20
ATOM     20  C   UNL     1      -4.047   2.044  24.827  0.00  0.00    +0.124 A 
ATOM     21  C   UNL     1      -4.682   1.890  25.330  0.00  0.00    +0.021 A 
ATOM     22  C   UNL     1      -5.194   2.500  25.547  0.00  0.00    +0.012 A 
ATOM     23  C   UNL     1      -5.071   3.264  25.260  0.00  0.00    +0.069 A 
ATOM     24  C   UNL     1      -4.435   3.417  24.756  0.00  0.00    +0.012 A 
ATOM     25  C   UNL     1      -3.923   2.808  24.539  0.00  0.00    +0.021 A 
BRANCH  23  26
ATOM     26  C   UNL     1      -5.582   3.874  25.476  0.00  0.00    +0.100 C 
ATOM     27  N   UNL     1      -6.093   4.485  25.692  0.00  0.00    -0.191 NA
ENDBRANCH  23  26
ENDBRANCH  17  20
ENDBRANCH  16  17
ENDBRANCH  15  16
TORSDOF 6
ENDMDL
MODEL 6
REMARK VINA RESULT:      -9.7      1.859      3.273
REMARK  Name = 
REMARK  6 active torsions:
REMARK  status: ('A' for Active; 'I' for Inactive)
REMARK    1  A    between atoms: O_2  and  C_3
REMARK    2  A    between atoms: C_6  and  C_9
REMARK    3  A    between atoms: C_15  and  N_16
REMARK    4  A    between atoms: N_16  and  S_17
REMARK    5  A    between atoms: S_17  and  C_20
REMARK    6  A    between atoms: C_23  and  C_26
REMARK                            x       y       z     vdW  Elec       q    Type
REMARK                         _______ _______ _______ _____ _____    ______ ____
ROOT
ATOM      9  C   UNL     1      -2.224   3.661  24.958  0.00  0.00    +0.045 C 
ATOM     10  C   UNL     1      -1.688   4.244  25.189  0.00  0.00    +0.041 C 
ATOM     11  C   UNL     1      -0.935   4.008  24.948  0.00  0.00    +0.184 C 
ATOM     12  O   UNL     1      -0.235   4.427  25.066  0.00  0.00    -0.220 OA
ATOM     13  C   UNL     1      -1.006   3.279  24.569  0.00  0.00    +0.200 C 
ATOM     14  O   UNL     1      -0.388   2.841  24.241  0.00  0.00    -0.219 OA
ATOM     15  C   UNL     1      -1.803   3.064  24.575  0.00  0.00    +0.135 C 
ENDROOT
BRANCH   9   6
ATOM      3  C   UNL     1      -4.668   3.696  25.347  0.00  0.00    +0.139 A 
ATOM      4  C   UNL     1      -4.371   3.759  24.580  0.00  0.00    +0.037 A 
ATOM      5  C   UNL     1      -3.556   3.747  24.450  0.00  0.00    -0.001 A 
ATOM      6  C   UNL     1      -3.039   3.673  25.088  0.00  0.00    -0.021 A 
ATOM      7  C   UNL     1      -3.335   3.610  25.855  0.00  0.00    -0.001 A 
ATOM      8  C   UNL     1      -4.150   3.622  25.985  0.00  0.00    +0.037 A 
BRANCH   3   2
ATOM      1  C   UNL     1      -5.877   3.013  25.683  0.00  0.00    +0.252 C 
ATOM      2  O   UNL     1      -5.483   3.707  25.476  0.00  0.00    -0.471 OA
ENDBRANCH   3   2
ENDBRANCH   9   6
BRANCH  15  16
ATOM     16  N   UNL     1      -2.122   2.375  24.254  0.00  0.00    -0.076 NA
BRANCH  16  17
ATOM     17  S   UNL     1      -1.792   1.642  24.440  0.00  0.00    +0.077 S 
ATOM     18  O   UNL     1      -1.628   1.514  23.642  0.00  0.00    -0.152 OA
ATOM     19  O   UNL     1      -1.956   1.770  25.238  0.00  0.00    -0.152 OA
BRANCH  17  20
ATOM     20  C   UNL     1      -1.462   0.909  24.625  0.00  0.00    +0.124 A 
ATOM     21  C   UNL     1      -1.628   0.553  25.351  0.00  0.00    +0.021 A 
ATOM     22  C   UNL     1      -1.298  -0.180  25.537  0.00  0.00    +0.012 A 
ATOM     23  C   UNL     1      -0.803  -0.558  24.996  0.00  0.00    +0.069 A 
ATOM     24  C   UNL     1      -0.637  -0.203  24.270  0.00  0.00    +0.012 A 
ATOM     25  C   UNL     1      -0.966   0.531  24.084  0.00  0.00    +0.021 A 
BRANCH  23  26
ATOM     26  C   UNL     1      -0.473  -1.291  25.181  0.00  0.00    +0.100 C 
ATOM     27  N   UNL     1      -0.144  -2.025  25.366  0.00  0.00    -0.191 NA
ENDBRANCH  23  26
ENDBRANCH  17  20
ENDBRANCH  16  17
ENDBRANCH  15  16
TORSDOF 6
ENDMDL
