REMARK  Name = 
REMARK  5 active torsions:
REMARK  status: ('A' for Active; 'I' for Inactive)
REMARK    1  A    between atoms: O_2  and  C_3
REMARK    2  A    between atoms: C_6  and  C_9
REMARK    3  A    between atoms: C_15  and  N_16
REMARK    4  A    between atoms: N_16  and  C_17
REMARK    5  A    between atoms: C_17  and  C_18
REMARK                            x       y       z     vdW  Elec       q    Type
REMARK                         _______ _______ _______ _____ _____    ______ ____
ROOT
ATOM      9  C   UNL     1      -2.944  -2.470   0.000  0.00  0.00    +0.044 C 
ATOM     10  C   UNL     1      -3.751  -2.642   0.000  0.00  0.00    +0.041 C 
ATOM     11  C   UNL     1      -4.164  -1.927   0.000  0.00  0.00    +0.184 C 
ATOM     12  O   UNL     1      -4.984  -1.841   0.000  0.00  0.00    -0.220 OA
ATOM     13  C   UNL     1      -3.612  -1.314   0.000  0.00  0.00    +0.198 C 
ATOM     14  O   UNL     1      -3.783  -0.507   0.000  0.00  0.00    -0.219 OA
ATOM     15  C   UNL     1      -2.858  -1.650   0.000  0.00  0.00    +0.110 C 
ENDROOT
BRANCH   9   6
ATOM      3  C   UNL     1      -1.105  -4.127   0.000  0.00  0.00    +0.139 A 
ATOM      4  C   UNL     1      -1.889  -4.381   0.000  0.00  0.00    +0.037 A 
ATOM      5  C   UNL     1      -2.503  -3.829   0.000  0.00  0.00    -0.001 A 
ATOM      6  C   UNL     1      -2.331  -3.022   0.000  0.00  0.00    -0.021 A 
ATOM      7  C   UNL     1      -1.546  -2.768   0.000  0.00  0.00    -0.001 A 
ATOM      8  C   UNL     1      -0.933  -3.320   0.000  0.00  0.00    +0.037 A 
BRANCH   3   2
ATOM      1  C   UNL     1       0.293  -4.424   0.000  0.00  0.00    +0.252 C 
ATOM      2  O   UNL     1      -0.492  -4.679   0.000  0.00  0.00    -0.471 OA
ENDBRANCH   3   2
ENDBRANCH   9   6
BRANCH  15  16
ATOM     16  N   UNL     1      -2.143  -1.238   0.000  0.00  0.00    -0.212 NA
BRANCH  16  17
ATOM     17  C   UNL     1      -1.429  -1.650   0.000  0.00  0.00    +0.117 C 
BRANCH  17  18
ATOM     18  C   UNL     1      -0.715  -1.238   0.000  0.00  0.00    +0.014 A 
ATOM     19  C   UNL     1       0.000  -1.650   0.000  0.00  0.00    +0.000 A 
ATOM     20  C   UNL     1       0.715  -1.238   0.000  0.00  0.00    +0.017 A 
ATOM     21  C   UNL     1       0.715  -0.412   0.000  0.00  0.00    +0.081 A 
ATOM     22  C   UNL     1       1.429   0.000   0.000  0.00  0.00    +0.019 A 
ATOM     23  C   UNL     1       2.143  -0.412   0.000  0.00  0.00    +0.002 A 
ATOM     24  C   UNL     1       2.143  -1.238   0.000  0.00  0.00    +0.000 A 
ATOM     25  C   UNL     1       1.429  -1.650   0.000  0.00  0.00    +0.001 A 
ATOM     26  N   UNL     1       0.000   0.000   0.000  0.00  0.00    -0.244 NA
ATOM     27  C   UNL     1      -0.715  -0.412   0.000  0.00  0.00    +0.096 A 
ENDBRANCH  17  18
ENDBRANCH  16  17
ENDBRANCH  15  16
TORSDOF 5
