MODEL 1
REMARK VINA RESULT:     -14.6      0.000      0.000
REMARK  Name = 
REMARK  6 active torsions:
REMARK  status: ('A' for Active; 'I' for Inactive)
REMARK    1  A    between atoms: C_2  and  C_3
REMARK    2  A    between atoms: C_11  and  C_12
REMARK    3  A    between atoms: C_12  and  C_13
REMARK    4  A    between atoms: N_15  and  C_16
REMARK    5  A    between atoms: C_16  and  C_17
REMARK    6  A    between atoms: C_30  and  C_32
REMARK                            x       y       z     vdW  Elec       q    Type
REMARK                         _______ _______ _______ _____ _____    ______ ____
ROOT
ATOM      1  C   UNL     1      -2.283  -3.021  24.605  0.00  0.00    +0.005 C 
ATOM      2  C   UNL     1      -2.590  -2.258  24.543  0.00  0.00    +0.059 C 
ATOM      5  C   UNL     1      -3.271  -2.699  24.394  0.00  0.00    +0.154 C 
ATOM      6  O   UNL     1      -3.238  -3.523  24.396  0.00  0.00    -0.223 OA
ATOM      7  C   UNL     1      -3.986  -2.314  24.241  0.00  0.00    +0.033 C 
ATOM      8  C   UNL     1      -4.018  -1.491  24.238  0.00  0.00    +0.003 C 
ATOM      9  C   UNL     1      -3.338  -1.050  24.388  0.00  0.00    +0.006 C 
ATOM     10  C   UNL     1      -4.051  -0.667  24.236  0.00  0.00    +0.000 C 
ATOM     11  C   UNL     1      -3.370  -0.226  24.385  0.00  0.00    +0.050 C 
ATOM     23  C   UNL     1      -2.689   0.215  24.535  0.00  0.00    +0.063 A 
ATOM     24  C   UNL     1      -1.974  -0.170  24.687  0.00  0.00    +0.023 A 
ATOM     25  C   UNL     1      -1.941  -0.993  24.690  0.00  0.00    +0.034 C 
ATOM     26  C   UNL     1      -2.623  -1.435  24.540  0.00  0.00    +0.010 C 
ATOM     27  S   UNL     1      -1.398   0.407  24.815  0.00  0.00    -0.054 S 
ATOM     28  C   UNL     1      -1.755   1.147  24.741  0.00  0.00    +0.185 A 
ATOM     29  N   UNL     1      -1.381   1.877  24.826  0.00  0.00    -0.150 NA
ATOM     30  C   UNL     1      -1.812   2.574  24.737  0.00  0.00    +0.275 C 
ATOM     31  O   UNL     1      -2.618   2.542  24.562  0.00  0.00    -0.268 OA
ATOM     40  N   UNL     1      -2.553   1.028  24.569  0.00  0.00    -0.227 NA
ENDROOT
BRANCH  30  32
ATOM     32  C   UNL     1      -1.438   3.304  24.822  0.00  0.00    +0.110 A 
ATOM     33  C   UNL     1      -1.637   3.800  25.451  0.00  0.00    +0.147 A 
ATOM     34  F   UNL     1      -2.211   3.565  25.994  0.00  0.00    -0.204 F 
ATOM     35  C   UNL     1      -1.263   4.530  25.536  0.00  0.00    +0.030 A 
ATOM     36  C   UNL     1      -0.689   4.765  24.991  0.00  0.00    +0.005 A 
ATOM     37  C   UNL     1      -0.489   4.270  24.363  0.00  0.00    +0.030 A 
ATOM     38  C   UNL     1      -0.864   3.539  24.278  0.00  0.00    +0.147 A 
ATOM     39  F   UNL     1      -0.664   3.044  23.649  0.00  0.00    -0.204 F 
ENDBRANCH  30  32
BRANCH   2   3
ATOM      3  C   UNL     1      -1.802  -2.083  24.714  0.00  0.00    +0.184 C 
ATOM      4  O   UNL     1      -1.260  -2.694  24.832  0.00  0.00    -0.220 OA
ENDBRANCH   2   3
BRANCH  11  12
ATOM     12  C   UNL     1      -4.084   0.158  24.233  0.00  0.00    +0.093 C 
BRANCH  12  13
ATOM     13  C   UNL     1      -4.533   0.458  24.858  0.00  0.00    +0.242 C 
ATOM     14  O   UNL     1      -4.552   0.060  25.580  0.00  0.00    -0.273 OA
ATOM     15  N   UNL     1      -4.962   1.155  24.759  0.00  0.00    -0.200 NA
BRANCH  15  16
ATOM     16  C   UNL     1      -5.411   1.455  25.383  0.00  0.00    +0.143 C 
BRANCH  16  17
ATOM     17  C   UNL     1      -5.493   2.270  25.478  0.00  0.00    +0.019 A 
ATOM     18  C   UNL     1      -5.671   2.745  24.828  0.00  0.00    +0.001 A 
ATOM     19  C   UNL     1      -5.754   3.560  24.923  0.00  0.00    +0.020 A 
ATOM     20  C   UNL     1      -5.657   3.901  25.668  0.00  0.00    +0.099 A 
ATOM     21  N   UNL     1      -5.479   3.426  26.318  0.00  0.00    -0.243 NA
ATOM     22  C   UNL     1      -5.397   2.610  26.223  0.00  0.00    +0.096 A 
ENDBRANCH  16  17
ENDBRANCH  15  16
ENDBRANCH  12  13
ENDBRANCH  11  12
TORSDOF 6
ENDMDL
MODEL 2
REMARK VINA RESULT:     -14.3      2.417      6.073
REMARK  Name = 
REMARK  6 active torsions:
REMARK  status: ('A' for Active; 'I' for Inactive)
REMARK    1  A    between atoms: C_2  and  C_3
REMARK    2  A    between atoms: C_11  and  C_12
REMARK    3  A    between atoms: C_12  and  C_13
REMARK    4  A    between atoms: N_15  and  C_16
REMARK    5  A    between atoms: C_16  and  C_17
REMARK    6  A    between atoms: C_30  and  C_32
REMARK                            x       y       z     vdW  Elec       q    Type
REMARK                         _______ _______ _______ _____ _____    ______ ____
ROOT
ATOM      1  C   UNL     1      -2.326   4.868  25.806  0.00  0.00    +0.005 C 
ATOM      2  C   UNL     1      -2.099   4.184  25.404  0.00  0.00    +0.059 C 
ATOM      5  C   UNL     1      -1.513   4.704  25.147  0.00  0.00    +0.154 C 
ATOM      6  O   UNL     1      -1.508   5.485  25.411  0.00  0.00    -0.223 OA
ATOM      7  C   UNL     1      -0.930   4.441  24.624  0.00  0.00    +0.033 C 
ATOM      8  C   UNL     1      -0.934   3.660  24.360  0.00  0.00    +0.003 C 
ATOM      9  C   UNL     1      -1.521   3.141  24.618  0.00  0.00    +0.006 C 
ATOM     10  C   UNL     1      -0.939   2.879  24.096  0.00  0.00    +0.000 C 
ATOM     11  C   UNL     1      -1.526   2.359  24.354  0.00  0.00    +0.050 C 
ATOM     23  C   UNL     1      -2.112   1.840  24.611  0.00  0.00    +0.063 A 
ATOM     24  C   UNL     1      -2.695   2.103  25.134  0.00  0.00    +0.023 A 
ATOM     25  C   UNL     1      -2.691   2.883  25.398  0.00  0.00    +0.034 C 
ATOM     26  C   UNL     1      -2.104   3.403  25.140  0.00  0.00    +0.010 C 
ATOM     27  S   UNL     1      -3.199   1.469  25.291  0.00  0.00    -0.054 S 
ATOM     28  C   UNL     1      -2.929   0.815  24.867  0.00  0.00    +0.185 A 
ATOM     29  N   UNL     1      -3.270   0.064  24.863  0.00  0.00    -0.150 NA
ATOM     30  C   UNL     1      -2.936  -0.538  24.410  0.00  0.00    +0.275 C 
ATOM     31  O   UNL     1      -2.261  -0.390  23.959  0.00  0.00    -0.268 OA
ATOM     40  N   UNL     1      -2.257   1.045  24.447  0.00  0.00    -0.227 NA
ENDROOT
BRANCH  30  32
ATOM     32  C   UNL     1      -3.278  -1.289  24.406  0.00  0.00    +0.110 A 
ATOM     33  C   UNL     1      -3.883  -1.465  23.873  0.00  0.00    +0.147 A 
ATOM     34  F   UNL     1      -4.146  -0.889  23.344  0.00  0.00    -0.204 F 
ATOM     35  C   UNL     1      -4.224  -2.216  23.869  0.00  0.00    +0.030 A 
ATOM     36  C   UNL     1      -3.960  -2.791  24.399  0.00  0.00    +0.005 A 
ATOM     37  C   UNL     1      -3.356  -2.616  24.931  0.00  0.00    +0.030 A 
ATOM     38  C   UNL     1      -3.015  -1.865  24.935  0.00  0.00    +0.147 A 
ATOM     39  F   UNL     1      -2.409  -1.689  25.468  0.00  0.00    -0.204 F 
ENDBRANCH  30  32
BRANCH   2   3
ATOM      3  C   UNL     1      -2.765   3.903  25.802  0.00  0.00    +0.184 C 
ATOM      4  O   UNL     1      -3.170   4.393  26.328  0.00  0.00    -0.220 OA
ENDBRANCH   2   3
BRANCH  11  12
ATOM     12  C   UNL     1      -0.943   2.097  23.832  0.00  0.00    +0.093 C 
BRANCH  12  13
ATOM     13  C   UNL     1      -0.319   1.633  24.109  0.00  0.00    +0.242 C 
ATOM     14  O   UNL     1      -0.186   1.564  24.920  0.00  0.00    -0.273 OA
ATOM     15  N   UNL     1       0.171   1.240  23.575  0.00  0.00    -0.200 NA
BRANCH  15  16
ATOM     16  C   UNL     1       0.794   0.776  23.851  0.00  0.00    +0.143 C 
BRANCH  16  17
ATOM     17  C   UNL     1       1.361   0.490  23.325  0.00  0.00    +0.019 A 
ATOM     18  C   UNL     1       2.127   0.795  23.338  0.00  0.00    +0.001 A 
ATOM     19  C   UNL     1       2.694   0.510  22.811  0.00  0.00    +0.020 A 
ATOM     20  C   UNL     1       2.495  -0.082  22.271  0.00  0.00    +0.099 A 
ATOM     21  N   UNL     1       1.729  -0.387  22.259  0.00  0.00    -0.243 NA
ATOM     22  C   UNL     1       1.162  -0.101  22.785  0.00  0.00    +0.096 A 
ENDBRANCH  16  17
ENDBRANCH  15  16
ENDBRANCH  12  13
ENDBRANCH  11  12
TORSDOF 6
ENDMDL
MODEL 3
REMARK VINA RESULT:     -14.1      2.176      5.686
REMARK  Name = 
REMARK  6 active torsions:
REMARK  status: ('A' for Active; 'I' for Inactive)
REMARK    1  A    between atoms: C_2  and  C_3
REMARK    2  A    between atoms: C_11  and  C_12
REMARK    3  A    between atoms: C_12  and  C_13
REMARK    4  A    between atoms: N_15  and  C_16
REMARK    5  A    between atoms: C_16  and  C_17
REMARK    6  A    between atoms: C_30  and  C_32
REMARK                            x       y       z     vdW  Elec       q    Type
REMARK                         _______ _______ _______ _____ _____    ______ ____
ROOT
ATOM      1  C   UNL     1      -5.514   4.068  25.616  0.00  0.00    +0.005 C 
ATOM      2  C   UNL     1      -4.960   3.543  25.302  0.00  0.00    +0.059 C 
ATOM      5  C   UNL     1      -4.591   4.260  25.130  0.00  0.00    +0.154 C 
ATOM      6  O   UNL     1      -4.950   4.971  25.345  0.00  0.00    -0.223 OA
ATOM      7  C   UNL     1      -3.863   4.266  24.741  0.00  0.00    +0.033 C 
ATOM      8  C   UNL     1      -3.504   3.556  24.525  0.00  0.00    +0.003 C 
ATOM      9  C   UNL     1      -3.873   2.839  24.698  0.00  0.00    +0.006 C 
ATOM     10  C   UNL     1      -3.146   2.845  24.310  0.00  0.00    +0.000 C 
ATOM     11  C   UNL     1      -3.515   2.127  24.483  0.00  0.00    +0.050 C 
ATOM     23  C   UNL     1      -3.883   1.410  24.656  0.00  0.00    +0.063 A 
ATOM     24  C   UNL     1      -4.612   1.404  25.045  0.00  0.00    +0.023 A 
ATOM     25  C   UNL     1      -4.970   2.115  25.260  0.00  0.00    +0.034 C 
ATOM     26  C   UNL     1      -4.602   2.832  25.087  0.00  0.00    +0.010 C 
ATOM     27  S   UNL     1      -4.841   0.618  25.142  0.00  0.00    -0.054 S 
ATOM     28  C   UNL     1      -4.257   0.138  24.813  0.00  0.00    +0.185 A 
ATOM     29  N   UNL     1      -4.262  -0.687  24.789  0.00  0.00    -0.150 NA
ATOM     30  C   UNL     1      -3.635  -1.093  24.440  0.00  0.00    +0.275 C 
ATOM     31  O   UNL     1      -3.002  -0.676  24.116  0.00  0.00    -0.268 OA
ATOM     40  N   UNL     1      -3.665   0.628  24.513  0.00  0.00    -0.227 NA
ENDROOT
BRANCH  30  32
ATOM     32  C   UNL     1      -3.641  -1.918  24.416  0.00  0.00    +0.110 A 
ATOM     33  C   UNL     1      -3.251  -2.351  25.001  0.00  0.00    +0.147 A 
ATOM     34  F   UNL     1      -2.856  -1.959  25.609  0.00  0.00    -0.204 F 
ATOM     35  C   UNL     1      -3.257  -3.176  24.976  0.00  0.00    +0.030 A 
ATOM     36  C   UNL     1      -3.653  -3.567  24.367  0.00  0.00    +0.005 A 
ATOM     37  C   UNL     1      -4.043  -3.135  23.783  0.00  0.00    +0.030 A 
ATOM     38  C   UNL     1      -4.037  -2.310  23.808  0.00  0.00    +0.147 A 
ATOM     39  F   UNL     1      -4.427  -1.877  23.223  0.00  0.00    -0.204 F 
ENDBRANCH  30  32
BRANCH   2   3
ATOM      3  C   UNL     1      -5.521   3.008  25.584  0.00  0.00    +0.184 C 
ATOM      4  O   UNL     1      -6.171   3.281  26.014  0.00  0.00    -0.220 OA
ENDBRANCH   2   3
BRANCH  11  12
ATOM     12  C   UNL     1      -2.787   2.134  24.095  0.00  0.00    +0.093 C 
BRANCH  12  13
ATOM     13  C   UNL     1      -2.098   1.934  24.505  0.00  0.00    +0.242 C 
ATOM     14  O   UNL     1      -2.068   2.020  25.324  0.00  0.00    -0.273 OA
ATOM     15  N   UNL     1      -1.442   1.651  24.095  0.00  0.00    -0.200 NA
BRANCH  15  16
ATOM     16  C   UNL     1      -0.754   1.452  24.504  0.00  0.00    +0.143 C 
BRANCH  16  17
ATOM     17  C   UNL     1      -0.116   1.117  24.101  0.00  0.00    +0.019 A 
ATOM     18  C   UNL     1      -0.160   0.337  23.838  0.00  0.00    +0.001 A 
ATOM     19  C   UNL     1       0.478   0.002  23.435  0.00  0.00    +0.020 A 
ATOM     20  C   UNL     1       1.158   0.446  23.296  0.00  0.00    +0.099 A 
ATOM     21  N   UNL     1       1.201   1.227  23.560  0.00  0.00    -0.243 NA
ATOM     22  C   UNL     1       0.563   1.562  23.963  0.00  0.00    +0.096 A 
ENDBRANCH  16  17
ENDBRANCH  15  16
ENDBRANCH  12  13
ENDBRANCH  11  12
TORSDOF 6
ENDMDL
MODEL 4
REMARK VINA RESULT:     -13.8      1.385      3.435
REMARK  Name = 
REMARK  6 active torsions:
REMARK  status: ('A' for Active; 'I' for Inactive)
REMARK    1  A    between atoms: C_2  and  C_3
REMARK    2  A    between atoms: C_11  and  C_12
REMARK    3  A    between atoms: C_12  and  C_13
REMARK    4  A    between atoms: N_15  and  C_16
REMARK    5  A    between atoms: C_16  and  C_17
REMARK    6  A    between atoms: C_30  and  C_32
REMARK                            x       y       z     vdW  Elec       q    Type
REMARK                         _______ _______ _______ _____ _____    ______ ____
ROOT
ATOM      1  C   UNL     1      -3.821  -3.138  23.944  0.00  0.00    +0.005 C 
ATOM      2  C   UNL     1      -3.538  -2.427  24.251  0.00  0.00    +0.059 C 
ATOM      5  C   UNL     1      -2.888  -2.913  24.393  0.00  0.00    +0.154 C 
ATOM      6  O   UNL     1      -2.910  -3.708  24.174  0.00  0.00    -0.223 OA
ATOM      7  C   UNL     1      -2.213  -2.604  24.757  0.00  0.00    +0.033 C 
ATOM      8  C   UNL     1      -2.190  -1.810  24.976  0.00  0.00    +0.003 C 
ATOM      9  C   UNL     1      -2.840  -1.324  24.834  0.00  0.00    +0.006 C 
ATOM     10  C   UNL     1      -2.167  -1.016  25.196  0.00  0.00    +0.000 C 
ATOM     11  C   UNL     1      -2.818  -0.529  25.053  0.00  0.00    +0.050 C 
ATOM     23  C   UNL     1      -3.468  -0.042  24.910  0.00  0.00    +0.063 A 
ATOM     24  C   UNL     1      -4.142  -0.351  24.547  0.00  0.00    +0.023 A 
ATOM     25  C   UNL     1      -4.165  -1.145  24.327  0.00  0.00    +0.034 C 
ATOM     26  C   UNL     1      -3.515  -1.632  24.470  0.00  0.00    +0.010 C 
ATOM     27  S   UNL     1      -4.695   0.258  24.478  0.00  0.00    -0.054 S 
ATOM     28  C   UNL     1      -4.363   0.942  24.797  0.00  0.00    +0.185 A 
ATOM     29  N   UNL     1      -4.725   1.682  24.841  0.00  0.00    -0.150 NA
ATOM     30  C   UNL     1      -4.323   2.318  25.178  0.00  0.00    +0.275 C 
ATOM     31  O   UNL     1      -3.558   2.216  25.470  0.00  0.00    -0.268 OA
ATOM     40  N   UNL     1      -3.605   0.757  25.064  0.00  0.00    -0.227 NA
ENDROOT
BRANCH  30  32
ATOM     32  C   UNL     1      -4.685   3.058  25.222  0.00  0.00    +0.110 A 
ATOM     33  C   UNL     1      -4.444   3.667  24.720  0.00  0.00    +0.147 A 
ATOM     34  F   UNL     1      -3.840   3.535  24.173  0.00  0.00    -0.204 F 
ATOM     35  C   UNL     1      -4.806   4.407  24.764  0.00  0.00    +0.030 A 
ATOM     36  C   UNL     1      -5.410   4.538  25.311  0.00  0.00    +0.005 A 
ATOM     37  C   UNL     1      -5.651   3.930  25.813  0.00  0.00    +0.030 A 
ATOM     38  C   UNL     1      -5.289   3.190  25.768  0.00  0.00    +0.147 A 
ATOM     39  F   UNL     1      -5.531   2.581  26.271  0.00  0.00    -0.204 F 
ENDBRANCH  30  32
BRANCH   2   3
ATOM      3  C   UNL     1      -4.287  -2.187  24.001  0.00  0.00    +0.184 C 
ATOM      4  O   UNL     1      -4.776  -2.716  23.598  0.00  0.00    -0.220 OA
ENDBRANCH   2   3
BRANCH  11  12
ATOM     12  C   UNL     1      -2.144  -0.221  25.416  0.00  0.00    +0.093 C 
BRANCH  12  13
ATOM     13  C   UNL     1      -1.615   0.241  24.981  0.00  0.00    +0.242 C 
ATOM     14  O   UNL     1      -1.532   0.118  24.170  0.00  0.00    -0.273 OA
ATOM     15  N   UNL     1      -1.170   0.823  25.358  0.00  0.00    -0.200 NA
BRANCH  15  16
ATOM     16  C   UNL     1      -0.642   1.284  24.924  0.00  0.00    +0.143 C 
BRANCH  16  17
ATOM     17  C   UNL     1      -0.395   2.016  25.215  0.00  0.00    +0.019 A 
ATOM     18  C   UNL     1      -0.564   2.705  24.796  0.00  0.00    +0.001 A 
ATOM     19  C   UNL     1      -0.318   3.436  25.088  0.00  0.00    +0.020 A 
ATOM     20  C   UNL     1       0.098   3.478  25.799  0.00  0.00    +0.099 A 
ATOM     21  N   UNL     1       0.267   2.788  26.218  0.00  0.00    -0.243 NA
ATOM     22  C   UNL     1       0.020   2.057  25.926  0.00  0.00    +0.096 A 
ENDBRANCH  16  17
ENDBRANCH  15  16
ENDBRANCH  12  13
ENDBRANCH  11  12
TORSDOF 6
ENDMDL
MODEL 5
REMARK VINA RESULT:     -13.1      1.906      4.629
REMARK  Name = 
REMARK  6 active torsions:
REMARK  status: ('A' for Active; 'I' for Inactive)
REMARK    1  A    between atoms: C_2  and  C_3
REMARK    2  A    between atoms: C_11  and  C_12
REMARK    3  A    between atoms: C_12  and  C_13
REMARK    4  A    between atoms: N_15  and  C_16
REMARK    5  A    between atoms: C_16  and  C_17
REMARK    6  A    between atoms: C_30  and  C_32
REMARK                            x       y       z     vdW  Elec       q    Type
REMARK                         _______ _______ _______ _____ _____    ______ ____
ROOT
ATOM      1  C   UNL     1      -4.741   4.304  25.852  0.00  0.00    +0.005 C 
ATOM      2  C   UNL     1      -4.538   3.576  25.522  0.00  0.00    +0.059 C 
ATOM      5  C   UNL     1      -5.359   3.500  25.541  0.00  0.00    +0.154 C 
ATOM      6  O   UNL     1      -5.824   4.114  25.838  0.00  0.00    -0.223 OA
ATOM      7  C   UNL     1      -5.716   2.809  25.263  0.00  0.00    +0.033 C 
ATOM      8  C   UNL     1      -5.252   2.196  24.966  0.00  0.00    +0.003 C 
ATOM      9  C   UNL     1      -4.431   2.272  24.947  0.00  0.00    +0.006 C 
ATOM     10  C   UNL     1      -4.787   1.583  24.670  0.00  0.00    +0.000 C 
ATOM     11  C   UNL     1      -3.966   1.658  24.651  0.00  0.00    +0.050 C 
ATOM     23  C   UNL     1      -3.145   1.734  24.632  0.00  0.00    +0.063 A 
ATOM     24  C   UNL     1      -2.788   2.425  24.910  0.00  0.00    +0.023 A 
ATOM     25  C   UNL     1      -3.252   3.038  25.207  0.00  0.00    +0.034 C 
ATOM     26  C   UNL     1      -4.074   2.962  25.226  0.00  0.00    +0.010 C 
ATOM     27  S   UNL     1      -1.972   2.341  24.822  0.00  0.00    -0.054 S 
ATOM     28  C   UNL     1      -1.824   1.601  24.491  0.00  0.00    +0.185 A 
ATOM     29  N   UNL     1      -1.082   1.290  24.308  0.00  0.00    -0.150 NA
ATOM     30  C   UNL     1      -1.020   0.538  23.977  0.00  0.00    +0.275 C 
ATOM     31  O   UNL     1      -1.700   0.095  23.827  0.00  0.00    -0.268 OA
ATOM     40  N   UNL     1      -2.549   1.226  24.373  0.00  0.00    -0.227 NA
ENDROOT
BRANCH  30  32
ATOM     32  C   UNL     1      -0.278   0.228  23.795  0.00  0.00    +0.110 A 
ATOM     33  C   UNL     1       0.035  -0.388  24.247  0.00  0.00    +0.147 A 
ATOM     34  F   UNL     1      -0.396  -0.693  24.881  0.00  0.00    -0.204 F 
ATOM     35  C   UNL     1       0.777  -0.699  24.065  0.00  0.00    +0.030 A 
ATOM     36  C   UNL     1       1.207  -0.393  23.431  0.00  0.00    +0.005 A 
ATOM     37  C   UNL     1       0.896   0.222  22.979  0.00  0.00    +0.030 A 
ATOM     38  C   UNL     1       0.153   0.532  23.161  0.00  0.00    +0.147 A 
ATOM     39  F   UNL     1      -0.159   1.149  22.709  0.00  0.00    -0.204 F 
ENDBRANCH  30  32
BRANCH   2   3
ATOM      3  C   UNL     1      -3.788   3.905  25.618  0.00  0.00    +0.184 C 
ATOM      4  O   UNL     1      -3.698   4.616  26.027  0.00  0.00    -0.220 OA
ENDBRANCH   2   3
BRANCH  11  12
ATOM     12  C   UNL     1      -4.323   0.968  24.373  0.00  0.00    +0.093 C 
BRANCH  12  13
ATOM     13  C   UNL     1      -4.319   0.285  24.837  0.00  0.00    +0.242 C 
ATOM     14  O   UNL     1      -4.373   0.345  25.658  0.00  0.00    -0.273 OA
ATOM     15  N   UNL     1      -4.261  -0.455  24.480  0.00  0.00    -0.200 NA
BRANCH  15  16
ATOM     16  C   UNL     1      -4.256  -1.138  24.943  0.00  0.00    +0.143 C 
BRANCH  16  17
ATOM     17  C   UNL     1      -4.003  -1.854  24.621  0.00  0.00    +0.019 A 
ATOM     18  C   UNL     1      -3.432  -2.302  25.012  0.00  0.00    +0.001 A 
ATOM     19  C   UNL     1      -3.179  -3.018  24.690  0.00  0.00    +0.020 A 
ATOM     20  C   UNL     1      -3.496  -3.286  23.978  0.00  0.00    +0.099 A 
ATOM     21  N   UNL     1      -4.068  -2.837  23.587  0.00  0.00    -0.243 NA
ATOM     22  C   UNL     1      -4.321  -2.121  23.909  0.00  0.00    +0.096 A 
ENDBRANCH  16  17
ENDBRANCH  15  16
ENDBRANCH  12  13
ENDBRANCH  11  12
TORSDOF 6
ENDMDL
MODEL 6
REMARK VINA RESULT:     -13.1      2.189      4.164
REMARK  Name = 
REMARK  6 active torsions:
REMARK  status: ('A' for Active; 'I' for Inactive)
REMARK    1  A    between atoms: C_2  and  C_3
REMARK    2  A    between atoms: C_11  and  C_12
REMARK    3  A    between atoms: C_12  and  C_13
REMARK    4  A    between atoms: N_15  and  C_16
REMARK    5  A    between atoms: C_16  and  C_17
REMARK    6  A    between atoms: C_30  and  C_32
REMARK                            x       y       z     vdW  Elec       q    Type
REMARK                         _______ _______ _______ _____ _____    ______ ____
ROOT
ATOM      1  C   UNL     1      -3.588  -2.325  24.758  0.00  0.00    +0.005 C 
ATOM      2  C   UNL     1      -2.947  -1.807  24.717  0.00  0.00    +0.059 C 
ATOM      5  C   UNL     1      -2.558  -2.525  24.605  0.00  0.00    +0.154 C 
ATOM      6  O   UNL     1      -2.985  -3.231  24.603  0.00  0.00    -0.223 OA
ATOM      7  C   UNL     1      -1.739  -2.538  24.496  0.00  0.00    +0.033 C 
ATOM      8  C   UNL     1      -1.312  -1.833  24.499  0.00  0.00    +0.003 C 
ATOM      9  C   UNL     1      -1.702  -1.115  24.610  0.00  0.00    +0.006 C 
ATOM     10  C   UNL     1      -0.885  -1.128  24.502  0.00  0.00    +0.000 C 
ATOM     11  C   UNL     1      -1.274  -0.409  24.613  0.00  0.00    +0.050 C 
ATOM     23  C   UNL     1      -1.664   0.309  24.724  0.00  0.00    +0.063 A 
ATOM     24  C   UNL     1      -2.483   0.322  24.833  0.00  0.00    +0.023 A 
ATOM     25  C   UNL     1      -2.910  -0.383  24.831  0.00  0.00    +0.034 C 
ATOM     26  C   UNL     1      -2.520  -1.102  24.719  0.00  0.00    +0.010 C 
ATOM     27  S   UNL     1      -2.714   1.108  24.929  0.00  0.00    -0.054 S 
ATOM     28  C   UNL     1      -2.040   1.581  24.880  0.00  0.00    +0.185 A 
ATOM     29  N   UNL     1      -2.018   2.403  24.946  0.00  0.00    -0.150 NA
ATOM     30  C   UNL     1      -1.300   2.803  24.884  0.00  0.00    +0.275 C 
ATOM     31  O   UNL     1      -0.602   2.381  24.757  0.00  0.00    -0.268 OA
ATOM     40  N   UNL     1      -1.392   1.087  24.753  0.00  0.00    -0.227 NA
ENDROOT
BRANCH  30  32
ATOM     32  C   UNL     1      -1.278   3.625  24.950  0.00  0.00    +0.110 A 
ATOM     33  C   UNL     1      -1.679   4.000  25.566  0.00  0.00    +0.147 A 
ATOM     34  F   UNL     1      -2.102   3.553  26.116  0.00  0.00    -0.204 F 
ATOM     35  C   UNL     1      -1.658   4.823  25.632  0.00  0.00    +0.030 A 
ATOM     36  C   UNL     1      -1.235   5.269  25.082  0.00  0.00    +0.005 A 
ATOM     37  C   UNL     1      -0.834   4.894  24.466  0.00  0.00    +0.030 A 
ATOM     38  C   UNL     1      -0.856   4.072  24.401  0.00  0.00    +0.147 A 
ATOM     39  F   UNL     1      -0.455   3.696  23.784  0.00  0.00    -0.204 F 
ENDBRANCH  30  32
BRANCH   2   3
ATOM      3  C   UNL     1      -3.560  -1.269  24.842  0.00  0.00    +0.184 C 
ATOM      4  O   UNL     1      -4.345  -1.524  24.818  0.00  0.00    -0.220 OA
ENDBRANCH   2   3
BRANCH  11  12
ATOM     12  C   UNL     1      -0.457  -0.422  24.504  0.00  0.00    +0.093 C 
BRANCH  12  13
ATOM     13  C   UNL     1      -0.134  -0.208  23.775  0.00  0.00    +0.242 C 
ATOM     14  O   UNL     1      -0.621  -0.138  23.113  0.00  0.00    -0.273 OA
ATOM     15  N   UNL     1       0.675  -0.066  23.708  0.00  0.00    -0.200 NA
BRANCH  15  16
ATOM     16  C   UNL     1       0.998   0.148  22.979  0.00  0.00    +0.143 C 
BRANCH  16  17
ATOM     17  C   UNL     1       1.802   0.325  22.920  0.00  0.00    +0.019 A 
ATOM     18  C   UNL     1       2.309  -0.193  22.527  0.00  0.00    +0.001 A 
ATOM     19  C   UNL     1       3.113  -0.016  22.468  0.00  0.00    +0.020 A 
ATOM     20  C   UNL     1       3.409   0.679  22.801  0.00  0.00    +0.099 A 
ATOM     21  N   UNL     1       2.900   1.196  23.193  0.00  0.00    -0.243 NA
ATOM     22  C   UNL     1       2.096   1.019  23.253  0.00  0.00    +0.096 A 
ENDBRANCH  16  17
ENDBRANCH  15  16
ENDBRANCH  12  13
ENDBRANCH  11  12
TORSDOF 6
ENDMDL
MODEL 7
REMARK VINA RESULT:     -12.8      1.666      4.826
REMARK  Name = 
REMARK  6 active torsions:
REMARK  status: ('A' for Active; 'I' for Inactive)
REMARK    1  A    between atoms: C_2  and  C_3
REMARK    2  A    between atoms: C_11  and  C_12
REMARK    3  A    between atoms: C_12  and  C_13
REMARK    4  A    between atoms: N_15  and  C_16
REMARK    5  A    between atoms: C_16  and  C_17
REMARK    6  A    between atoms: C_30  and  C_32
REMARK                            x       y       z     vdW  Elec       q    Type
REMARK                         _______ _______ _______ _____ _____    ______ ____
ROOT
ATOM      1  C   UNL     1       0.031   4.625  24.196  0.00  0.00    +0.005 C 
ATOM      2  C   UNL     1      -0.615   4.208  24.494  0.00  0.00    +0.059 C 
ATOM      5  C   UNL     1      -0.771   4.954  24.807  0.00  0.00    +0.154 C 
ATOM      6  O   UNL     1      -0.257   5.582  24.654  0.00  0.00    -0.223 OA
ATOM      7  C   UNL     1      -1.442   5.075  25.273  0.00  0.00    +0.033 C 
ATOM      8  C   UNL     1      -1.955   4.448  25.426  0.00  0.00    +0.003 C 
ATOM      9  C   UNL     1      -1.799   3.702  25.113  0.00  0.00    +0.006 C 
ATOM     10  C   UNL     1      -2.469   3.822  25.579  0.00  0.00    +0.000 C 
ATOM     11  C   UNL     1      -2.313   3.074  25.266  0.00  0.00    +0.050 C 
ATOM     23  C   UNL     1      -2.157   2.327  24.953  0.00  0.00    +0.063 A 
ATOM     24  C   UNL     1      -1.486   2.207  24.487  0.00  0.00    +0.023 A 
ATOM     25  C   UNL     1      -0.973   2.833  24.334  0.00  0.00    +0.034 C 
ATOM     26  C   UNL     1      -1.128   3.581  24.647  0.00  0.00    +0.010 C 
ATOM     27  S   UNL     1      -1.477   1.415  24.256  0.00  0.00    -0.054 S 
ATOM     28  C   UNL     1      -2.140   1.046  24.578  0.00  0.00    +0.185 A 
ATOM     29  N   UNL     1      -2.347   0.253  24.486  0.00  0.00    -0.150 NA
ATOM     30  C   UNL     1      -3.030  -0.040  24.843  0.00  0.00    +0.275 C 
ATOM     31  O   UNL     1      -3.507   0.461  25.293  0.00  0.00    -0.268 OA
ATOM     40  N   UNL     1      -2.560   1.610  25.009  0.00  0.00    -0.227 NA
ENDROOT
BRANCH  30  32
ATOM     32  C   UNL     1      -3.236  -0.833  24.751  0.00  0.00    +0.110 A 
ATOM     33  C   UNL     1      -2.936  -1.401  25.269  0.00  0.00    +0.147 A 
ATOM     34  F   UNL     1      -2.429  -1.174  25.879  0.00  0.00    -0.204 F 
ATOM     35  C   UNL     1      -3.143  -2.194  25.177  0.00  0.00    +0.030 A 
ATOM     36  C   UNL     1      -3.650  -2.420  24.566  0.00  0.00    +0.005 A 
ATOM     37  C   UNL     1      -3.950  -1.853  24.048  0.00  0.00    +0.030 A 
ATOM     38  C   UNL     1      -3.743  -1.059  24.140  0.00  0.00    +0.147 A 
ATOM     39  F   UNL     1      -4.043  -0.491  23.622  0.00  0.00    -0.204 F 
ENDBRANCH  30  32
BRANCH   2   3
ATOM      3  C   UNL     1      -0.234   3.606  24.078  0.00  0.00    +0.184 C 
ATOM      4  O   UNL     1       0.435   3.776  23.626  0.00  0.00    -0.220 OA
ENDBRANCH   2   3
BRANCH  11  12
ATOM     12  C   UNL     1      -2.983   3.194  25.732  0.00  0.00    +0.093 C 
BRANCH  12  13
ATOM     13  C   UNL     1      -3.724   3.275  25.377  0.00  0.00    +0.242 C 
ATOM     14  O   UNL     1      -3.786   3.601  24.621  0.00  0.00    -0.273 OA
ATOM     15  N   UNL     1      -4.402   3.030  25.776  0.00  0.00    -0.200 NA
BRANCH  15  16
ATOM     16  C   UNL     1      -5.142   3.110  25.422  0.00  0.00    +0.143 C 
BRANCH  16  17
ATOM     17  C   UNL     1      -5.742   2.569  25.591  0.00  0.00    +0.019 A 
ATOM     18  C   UNL     1      -6.066   2.110  24.987  0.00  0.00    +0.001 A 
ATOM     19  C   UNL     1      -6.665   1.570  25.157  0.00  0.00    +0.020 A 
ATOM     20  C   UNL     1      -6.941   1.488  25.930  0.00  0.00    +0.099 A 
ATOM     21  N   UNL     1      -6.617   1.947  26.533  0.00  0.00    -0.243 NA
ATOM     22  C   UNL     1      -6.018   2.488  26.364  0.00  0.00    +0.096 A 
ENDBRANCH  16  17
ENDBRANCH  15  16
ENDBRANCH  12  13
ENDBRANCH  11  12
TORSDOF 6
ENDMDL
