REMARK  Name = 
REMARK  9 active torsions:
REMARK  status: ('A' for Active; 'I' for Inactive)
REMARK    1  A    between atoms: C_5  and  S_7
REMARK    2  A    between atoms: S_7  and  N_10
REMARK    3  A    between atoms: N_10  and  C_11
REMARK    4  A    between atoms: C_15  and  C_17
REMARK    5  A    between atoms: N_19  and  C_20
REMARK    6  A    between atoms: C_20  and  C_21
REMARK    7  A    between atoms: C_20  and  C_28
REMARK    8  A    between atoms: C_21  and  C_22
REMARK    9  A    between atoms: C_31  and  C_33
REMARK                            x       y       z     vdW  Elec       q    Type
REMARK                         _______ _______ _______ _____ _____    ______ ____
ROOT
ATOM     11  C   UNL     1       2.526 -10.371   0.000  0.00  0.00    +0.102 C 
ATOM     12  C   UNL     1       3.346 -10.457   0.000  0.00  0.00    +0.041 C 
ATOM     13  C   UNL     1       3.682 -11.210   0.000  0.00  0.00    +0.096 C 
ATOM     14  N   UNL     1       3.197 -11.878   0.000  0.00  0.00    -0.267 N 
ATOM     15  C   UNL     1       2.376 -11.792   0.000  0.00  0.00    +0.155 C 
ATOM     16  C   UNL     1       2.041 -11.038   0.000  0.00  0.00    +0.049 C 
ATOM     31  C   UNL     1       3.532 -12.632   0.000  0.00  0.00    +0.284 C 
ATOM     32  O   UNL     1       3.047 -13.299   0.000  0.00  0.00    -0.267 OA
ENDROOT
BRANCH  31  33
ATOM     33  C   UNL     1       4.353 -12.718   0.000  0.00  0.00    +0.199 A 
ATOM     34  C   UNL     1       4.905 -12.105   0.000  0.00  0.00    +0.045 A 
ATOM     35  C   UNL     1       5.658 -12.440   0.000  0.00  0.00    +0.044 A 
ATOM     36  C   UNL     1       5.572 -13.261   0.000  0.00  0.00    +0.180 A 
ATOM     37  O   UNL     1       4.765 -13.432   0.000  0.00  0.00    -0.446 OA
ENDBRANCH  31  33
BRANCH  15  17
ATOM     17  C   UNL     1       1.891 -12.459   0.000  0.00  0.00    +0.260 C 
ATOM     18  O   UNL     1       1.071 -12.373   0.000  0.00  0.00    -0.272 OA
ATOM     19  N   UNL     1       2.227 -13.213   0.000  0.00  0.00    -0.196 NA
BRANCH  19  20
ATOM     20  C   UNL     1       1.742 -13.880   0.000  0.00  0.00    +0.179 C 
BRANCH  20  28
ATOM     28  C   UNL     1       0.921 -13.794   0.000  0.00  0.00    +0.281 C 
ATOM     29  N   UNL     1       0.436 -14.461   0.000  0.00  0.00    -0.086 NA
ATOM     30  O   UNL     1       0.586 -13.040   0.000  0.00  0.00    -0.270 OA
ENDBRANCH  20  28
BRANCH  20  21
ATOM     21  C   UNL     1       2.078 -14.634   0.000  0.00  0.00    +0.057 C 
BRANCH  21  22
ATOM     22  C   UNL     1       1.593 -15.301   0.000  0.00  0.00    -0.020 A 
ATOM     23  C   UNL     1       1.928 -16.055   0.000  0.00  0.00    -0.004 A 
ATOM     24  C   UNL     1       1.443 -16.723   0.000  0.00  0.00    -0.000 A 
ATOM     25  C   UNL     1       0.623 -16.636   0.000  0.00  0.00    -0.000 A 
ATOM     26  C   UNL     1       0.287 -15.883   0.000  0.00  0.00    -0.000 A 
ATOM     27  C   UNL     1       0.772 -15.215   0.000  0.00  0.00    -0.004 A 
ENDBRANCH  21  22
ENDBRANCH  20  21
ENDBRANCH  19  20
ENDBRANCH  15  17
BRANCH  11  10
ATOM     10  N   UNL     1       2.190  -9.617   0.000  0.00  0.00    -0.078 NA
BRANCH  10   7
ATOM      7  S   UNL     1       2.675  -8.950   0.000  0.00  0.00    +0.095 S 
ATOM      8  O   UNL     1       2.007  -8.465   0.000  0.00  0.00    -0.150 OA
ATOM      9  O   UNL     1       3.342  -9.434   0.000  0.00  0.00    -0.150 OA
BRANCH   7   5
ATOM      1  C   UNL     1       3.572  -6.188   0.000  0.00  0.00    +0.132 C 
ATOM      2  N   UNL     1       3.572  -7.013   0.000  0.00  0.00    -0.305 N 
ATOM      3  C   UNL     1       4.240  -7.497   0.000  0.00  0.00    +0.180 A 
ATOM      4  N   UNL     1       3.985  -8.282   0.000  0.00  0.00    -0.204 NA
ATOM      5  C   UNL     1       3.160  -8.282   0.000  0.00  0.00    +0.223 A 
ATOM      6  C   UNL     1       2.905  -7.497   0.000  0.00  0.00    +0.117 A 
ENDBRANCH   7   5
ENDBRANCH  10   7
ENDBRANCH  11  10
TORSDOF 9
