MODEL 1
REMARK VINA RESULT:     -11.2      0.000      0.000
REMARK  Name = 
REMARK  4 active torsions:
REMARK  status: ('A' for Active; 'I' for Inactive)
REMARK    1  A    between atoms: C_4  and  N_18
REMARK    2  A    between atoms: C_6  and  C_7
REMARK    3  A    between atoms: C_9  and  C_12
REMARK    4  A    between atoms: N_21  and  C_22
REMARK                            x       y       z     vdW  Elec       q    Type
REMARK                         _______ _______ _______ _____ _____    ______ ____
ROOT
ATOM      1  C   UNL     1       0.112  -0.337  23.479  0.00  0.00    +0.090 C 
ATOM      2  N   UNL     1      -0.123   0.125  24.120  0.00  0.00    -0.264 NA
ATOM      3  C   UNL     1       0.182   0.865  24.322  0.00  0.00    +0.094 C 
ATOM      4  C   UNL     1      -0.210   1.126  24.999  0.00  0.00    +0.115 C 
ATOM      5  C   UNL     1      -0.757   0.547  25.216  0.00  0.00    +0.049 C 
ATOM      6  C   UNL     1      -0.703  -0.071  24.673  0.00  0.00    +0.139 C 
ENDROOT
BRANCH   6   7
ATOM      7  C   UNL     1      -1.151  -0.764  24.680  0.00  0.00    +0.251 A 
ATOM      8  N   UNL     1      -1.945  -0.830  24.469  0.00  0.00    -0.188 NA
ATOM      9  C   UNL     1      -2.168  -1.620  24.559  0.00  0.00    +0.221 A 
ATOM     10  N   UNL     1      -1.511  -2.042  24.826  0.00  0.00    -0.054 NA
ATOM     11  O   UNL     1      -0.882  -1.513  24.901  0.00  0.00    -0.336 OA
BRANCH   9  12
ATOM     12  C   UNL     1      -2.916  -1.932  24.409  0.00  0.00    +0.120 A 
ATOM     13  N   UNL     1      -3.510  -1.451  24.097  0.00  0.00    -0.241 NA
ATOM     14  C   UNL     1      -4.257  -1.765  23.947  0.00  0.00    +0.099 A 
ATOM     15  C   UNL     1      -4.413  -2.559  24.108  0.00  0.00    +0.021 A 
ATOM     16  C   UNL     1      -3.819  -3.040  24.419  0.00  0.00    +0.003 A 
ATOM     17  C   UNL     1      -3.071  -2.727  24.569  0.00  0.00    +0.022 A 
ENDBRANCH   9  12
ENDBRANCH   6   7
BRANCH   4  18
ATOM     18  N   UNL     1      -0.079   1.840  25.391  0.00  0.00    -0.187 NA
ATOM     19  C   UNL     1      -0.550   2.495  25.223  0.00  0.00    +0.343 C 
ATOM     20  O   UNL     1      -1.153   2.438  24.663  0.00  0.00    -0.249 OA
ATOM     21  N   UNL     1      -0.419   3.210  25.615  0.00  0.00    -0.161 NA
BRANCH  21  22
ATOM     22  C   UNL     1      -0.890   3.865  25.446  0.00  0.00    +0.075 A 
ATOM     23  C   UNL     1      -0.611   4.455  24.941  0.00  0.00    +0.016 A 
ATOM     24  C   UNL     1      -1.081   5.110  24.772  0.00  0.00    -0.003 A 
ATOM     25  C   UNL     1      -1.832   5.177  25.108  0.00  0.00    -0.022 A 
ATOM     26  C   UNL     1      -2.303   5.833  24.939  0.00  0.00    +0.031 C 
ATOM     27  C   UNL     1      -2.112   4.587  25.613  0.00  0.00    -0.003 A 
ATOM     28  C   UNL     1      -1.640   3.932  25.782  0.00  0.00    +0.016 A 
ENDBRANCH  21  22
ENDBRANCH   4  18
TORSDOF 4
ENDMDL
MODEL 2
REMARK VINA RESULT:     -11.0      2.352      6.307
REMARK  Name = 
REMARK  4 active torsions:
REMARK  status: ('A' for Active; 'I' for Inactive)
REMARK    1  A    between atoms: C_4  and  N_18
REMARK    2  A    between atoms: C_6  and  C_7
REMARK    3  A    between atoms: C_9  and  C_12
REMARK    4  A    between atoms: N_21  and  C_22
REMARK                            x       y       z     vdW  Elec       q    Type
REMARK                         _______ _______ _______ _____ _____    ______ ____
ROOT
ATOM      1  C   UNL     1      -5.383   3.208  25.854  0.00  0.00    +0.090 C 
ATOM      2  N   UNL     1      -5.107   2.556  25.433  0.00  0.00    -0.264 NA
ATOM      3  C   UNL     1      -5.446   1.803  25.426  0.00  0.00    +0.094 C 
ATOM      4  C   UNL     1      -4.992   1.324  24.933  0.00  0.00    +0.115 C 
ATOM      5  C   UNL     1      -4.372   1.779  24.635  0.00  0.00    +0.049 C 
ATOM      6  C   UNL     1      -4.443   2.540  24.944  0.00  0.00    +0.139 C 
ENDROOT
BRANCH   6   7
ATOM      7  C   UNL     1      -3.938   3.175  24.791  0.00  0.00    +0.251 A 
ATOM      8  N   UNL     1      -3.140   3.219  24.993  0.00  0.00    -0.188 NA
ATOM      9  C   UNL     1      -2.852   3.948  24.736  0.00  0.00    +0.221 A 
ATOM     10  N   UNL     1      -3.472   4.355  24.374  0.00  0.00    -0.054 NA
ATOM     11  O   UNL     1      -4.144   3.877  24.408  0.00  0.00    -0.336 OA
BRANCH   9  12
ATOM     12  C   UNL     1      -2.079   4.223  24.825  0.00  0.00    +0.120 A 
ATOM     13  N   UNL     1      -1.443   3.714  24.695  0.00  0.00    -0.241 NA
ATOM     14  C   UNL     1      -0.671   3.989  24.784  0.00  0.00    +0.099 A 
ATOM     15  C   UNL     1      -0.534   4.773  25.002  0.00  0.00    +0.021 A 
ATOM     16  C   UNL     1      -1.170   5.282  25.132  0.00  0.00    +0.003 A 
ATOM     17  C   UNL     1      -1.943   5.006  25.043  0.00  0.00    +0.022 A 
ENDBRANCH   9  12
ENDBRANCH   6   7
BRANCH   4  18
ATOM     18  N   UNL     1      -5.133   0.527  24.767  0.00  0.00    -0.187 NA
ATOM     19  C   UNL     1      -4.510  -0.013  24.783  0.00  0.00    +0.343 C 
ATOM     20  O   UNL     1      -3.747   0.240  24.966  0.00  0.00    -0.249 OA
ATOM     21  N   UNL     1      -4.651  -0.809  24.617  0.00  0.00    -0.161 NA
BRANCH  21  22
ATOM     22  C   UNL     1      -4.028  -1.350  24.634  0.00  0.00    +0.075 A 
ATOM     23  C   UNL     1      -3.754  -1.685  23.931  0.00  0.00    +0.016 A 
ATOM     24  C   UNL     1      -3.132  -2.225  23.947  0.00  0.00    -0.003 A 
ATOM     25  C   UNL     1      -2.782  -2.432  24.666  0.00  0.00    -0.022 A 
ATOM     26  C   UNL     1      -2.160  -2.973  24.682  0.00  0.00    +0.031 C 
ATOM     27  C   UNL     1      -3.057  -2.097  25.369  0.00  0.00    -0.003 A 
ATOM     28  C   UNL     1      -3.679  -1.557  25.352  0.00  0.00    +0.016 A 
ENDBRANCH  21  22
ENDBRANCH   4  18
TORSDOF 4
ENDMDL
MODEL 3
REMARK VINA RESULT:     -10.9      0.806      5.652
REMARK  Name = 
REMARK  4 active torsions:
REMARK  status: ('A' for Active; 'I' for Inactive)
REMARK    1  A    between atoms: C_4  and  N_18
REMARK    2  A    between atoms: C_6  and  C_7
REMARK    3  A    between atoms: C_9  and  C_12
REMARK    4  A    between atoms: N_21  and  C_22
REMARK                            x       y       z     vdW  Elec       q    Type
REMARK                         _______ _______ _______ _____ _____    ______ ____
ROOT
ATOM      1  C   UNL     1       0.547   1.163  23.956  0.00  0.00    +0.090 C 
ATOM      2  N   UNL     1       0.011   0.799  24.468  0.00  0.00    -0.264 NA
ATOM      3  C   UNL     1      -0.193  -0.001  24.467  0.00  0.00    +0.094 C 
ATOM      4  C   UNL     1      -0.744  -0.122  25.068  0.00  0.00    +0.115 C 
ATOM      5  C   UNL     1      -0.880   0.601  25.440  0.00  0.00    +0.049 C 
ATOM      6  C   UNL     1      -0.414   1.171  25.069  0.00  0.00    +0.139 C 
ENDROOT
BRANCH   6   7
ATOM      7  C   UNL     1      -0.378   1.972  25.265  0.00  0.00    +0.251 A 
ATOM      8  N   UNL     1      -0.932   2.546  25.058  0.00  0.00    -0.188 NA
ATOM      9  C   UNL     1      -0.678   3.268  25.367  0.00  0.00    +0.221 A 
ATOM     10  N   UNL     1       0.034   3.139  25.764  0.00  0.00    -0.054 NA
ATOM     11  O   UNL     1       0.219   2.338  25.701  0.00  0.00    -0.336 OA
BRANCH   9  12
ATOM     12  C   UNL     1      -1.067   3.991  25.292  0.00  0.00    +0.120 A 
ATOM     13  N   UNL     1      -1.841   4.075  25.566  0.00  0.00    -0.241 NA
ATOM     14  C   UNL     1      -2.229   4.798  25.490  0.00  0.00    +0.099 A 
ATOM     15  C   UNL     1      -1.844   5.439  25.140  0.00  0.00    +0.021 A 
ATOM     16  C   UNL     1      -1.071   5.356  24.866  0.00  0.00    +0.003 A 
ATOM     17  C   UNL     1      -0.682   4.632  24.942  0.00  0.00    +0.022 A 
ENDBRANCH   9  12
ENDBRANCH   6   7
BRANCH   4  18
ATOM     18  N   UNL     1      -1.098  -0.842  25.264  0.00  0.00    -0.187 NA
ATOM     19  C   UNL     1      -1.798  -1.071  24.894  0.00  0.00    +0.343 C 
ATOM     20  O   UNL     1      -2.146  -0.582  24.329  0.00  0.00    -0.249 OA
ATOM     21  N   UNL     1      -2.152  -1.791  25.090  0.00  0.00    -0.161 NA
BRANCH  21  22
ATOM     22  C   UNL     1      -2.852  -2.020  24.720  0.00  0.00    +0.075 A 
ATOM     23  C   UNL     1      -2.869  -2.701  24.253  0.00  0.00    +0.016 A 
ATOM     24  C   UNL     1      -3.568  -2.930  23.883  0.00  0.00    -0.003 A 
ATOM     25  C   UNL     1      -4.254  -2.480  23.979  0.00  0.00    -0.022 A 
ATOM     26  C   UNL     1      -4.953  -2.709  23.609  0.00  0.00    +0.031 C 
ATOM     27  C   UNL     1      -4.237  -1.799  24.446  0.00  0.00    -0.003 A 
ATOM     28  C   UNL     1      -3.537  -1.570  24.816  0.00  0.00    +0.016 A 
ENDBRANCH  21  22
ENDBRANCH   4  18
TORSDOF 4
ENDMDL
MODEL 4
REMARK VINA RESULT:     -10.4      2.350      3.153
REMARK  Name = 
REMARK  4 active torsions:
REMARK  status: ('A' for Active; 'I' for Inactive)
REMARK    1  A    between atoms: C_4  and  N_18
REMARK    2  A    between atoms: C_6  and  C_7
REMARK    3  A    between atoms: C_9  and  C_12
REMARK    4  A    between atoms: N_21  and  C_22
REMARK                            x       y       z     vdW  Elec       q    Type
REMARK                         _______ _______ _______ _____ _____    ______ ____
ROOT
ATOM      1  C   UNL     1      -6.105   1.534  24.843  0.00  0.00    +0.090 C 
ATOM      2  N   UNL     1      -5.363   1.797  25.090  0.00  0.00    -0.264 NA
ATOM      3  C   UNL     1      -5.197   2.529  25.432  0.00  0.00    +0.094 C 
ATOM      4  C   UNL     1      -4.389   2.558  25.592  0.00  0.00    +0.115 C 
ATOM      5  C   UNL     1      -4.055   1.844  25.348  0.00  0.00    +0.049 C 
ATOM      6  C   UNL     1      -4.657   1.374  25.038  0.00  0.00    +0.139 C 
ENDROOT
BRANCH   6   7
ATOM      7  C   UNL     1      -4.568   0.613  24.730  0.00  0.00    +0.251 A 
ATOM      8  N   UNL     1      -4.178  -0.015  25.094  0.00  0.00    -0.188 NA
ATOM      9  C   UNL     1      -4.223  -0.669  24.592  0.00  0.00    +0.221 A 
ATOM     10  N   UNL     1      -4.642  -0.444  23.918  0.00  0.00    -0.054 NA
ATOM     11  O   UNL     1      -4.856   0.348  24.003  0.00  0.00    -0.336 OA
BRANCH   9  12
ATOM     12  C   UNL     1      -3.906  -1.415  24.740  0.00  0.00    +0.120 A 
ATOM     13  N   UNL     1      -3.549  -1.577  25.466  0.00  0.00    -0.241 NA
ATOM     14  C   UNL     1      -3.232  -2.323  25.612  0.00  0.00    +0.099 A 
ATOM     15  C   UNL     1      -3.270  -2.910  25.033  0.00  0.00    +0.021 A 
ATOM     16  C   UNL     1      -3.627  -2.749  24.306  0.00  0.00    +0.003 A 
ATOM     17  C   UNL     1      -3.944  -2.001  24.160  0.00  0.00    +0.022 A 
ENDBRANCH   9  12
ENDBRANCH   6   7
BRANCH   4  18
ATOM     18  N   UNL     1      -3.984   3.191  25.935  0.00  0.00    -0.187 NA
ATOM     19  C   UNL     1      -3.294   3.477  25.585  0.00  0.00    +0.343 C 
ATOM     20  O   UNL     1      -3.008   3.133  24.892  0.00  0.00    -0.249 OA
ATOM     21  N   UNL     1      -2.890   4.110  25.928  0.00  0.00    -0.161 NA
BRANCH  21  22
ATOM     22  C   UNL     1      -2.200   4.396  25.578  0.00  0.00    +0.075 A 
ATOM     23  C   UNL     1      -2.190   5.151  25.245  0.00  0.00    +0.016 A 
ATOM     24  C   UNL     1      -1.501   5.438  24.895  0.00  0.00    -0.003 A 
ATOM     25  C   UNL     1      -0.821   4.971  24.877  0.00  0.00    -0.022 A 
ATOM     26  C   UNL     1      -0.132   5.258  24.527  0.00  0.00    +0.031 C 
ATOM     27  C   UNL     1      -0.831   4.216  25.210  0.00  0.00    -0.003 A 
ATOM     28  C   UNL     1      -1.521   3.929  25.560  0.00  0.00    +0.016 A 
ENDBRANCH  21  22
ENDBRANCH   4  18
TORSDOF 4
ENDMDL
MODEL 5
REMARK VINA RESULT:      -9.5      2.806      4.869
REMARK  Name = 
REMARK  4 active torsions:
REMARK  status: ('A' for Active; 'I' for Inactive)
REMARK    1  A    between atoms: C_4  and  N_18
REMARK    2  A    between atoms: C_6  and  C_7
REMARK    3  A    between atoms: C_9  and  C_12
REMARK    4  A    between atoms: N_21  and  C_22
REMARK                            x       y       z     vdW  Elec       q    Type
REMARK                         _______ _______ _______ _____ _____    ______ ____
ROOT
ATOM      1  C   UNL     1      -1.016  -0.699  24.862  0.00  0.00    +0.090 C 
ATOM      2  N   UNL     1      -0.588  -0.280  24.296  0.00  0.00    -0.264 NA
ATOM      3  C   UNL     1       0.026  -0.579  23.832  0.00  0.00    +0.094 C 
ATOM      4  C   UNL     1       0.294   0.028  23.343  0.00  0.00    +0.115 C 
ATOM      5  C   UNL     1      -0.153   0.703  23.505  0.00  0.00    +0.049 C 
ATOM      6  C   UNL     1      -0.698   0.512  24.093  0.00  0.00    +0.139 C 
ENDROOT
BRANCH   6   7
ATOM      7  C   UNL     1      -1.256   1.024  24.422  0.00  0.00    +0.251 A 
ATOM      8  N   UNL     1      -2.019   1.156  24.138  0.00  0.00    -0.188 NA
ATOM      9  C   UNL     1      -2.383   1.707  24.633  0.00  0.00    +0.221 A 
ATOM     10  N   UNL     1      -1.844   1.916  25.223  0.00  0.00    -0.054 NA
ATOM     11  O   UNL     1      -1.147   1.494  25.092  0.00  0.00    -0.336 OA
BRANCH   9  12
ATOM     12  C   UNL     1      -3.150   1.998  24.553  0.00  0.00    +0.120 A 
ATOM     13  N   UNL     1      -3.786   1.579  24.871  0.00  0.00    -0.241 NA
ATOM     14  C   UNL     1      -4.553   1.871  24.790  0.00  0.00    +0.099 A 
ATOM     15  C   UNL     1      -4.686   2.582  24.391  0.00  0.00    +0.021 A 
ATOM     16  C   UNL     1      -4.049   3.000  24.073  0.00  0.00    +0.003 A 
ATOM     17  C   UNL     1      -3.282   2.708  24.154  0.00  0.00    +0.022 A 
ENDBRANCH   9  12
ENDBRANCH   6   7
BRANCH   4  18
ATOM     18  N   UNL     1       0.904  -0.028  22.789  0.00  0.00    -0.187 NA
ATOM     19  C   UNL     1       1.686   0.083  23.025  0.00  0.00    +0.343 C 
ATOM     20  O   UNL     1       1.861   0.250  23.813  0.00  0.00    -0.249 OA
ATOM     21  N   UNL     1       2.296   0.026  22.471  0.00  0.00    -0.161 NA
BRANCH  21  22
ATOM     22  C   UNL     1       3.078   0.137  22.707  0.00  0.00    +0.075 A 
ATOM     23  C   UNL     1       3.437   0.874  22.610  0.00  0.00    +0.016 A 
ATOM     24  C   UNL     1       4.219   0.986  22.845  0.00  0.00    -0.003 A 
ATOM     25  C   UNL     1       4.644   0.361  23.178  0.00  0.00    -0.022 A 
ATOM     26  C   UNL     1       5.426   0.473  23.413  0.00  0.00    +0.031 C 
ATOM     27  C   UNL     1       4.285  -0.376  23.275  0.00  0.00    -0.003 A 
ATOM     28  C   UNL     1       3.502  -0.487  23.039  0.00  0.00    +0.016 A 
ENDBRANCH  21  22
ENDBRANCH   4  18
TORSDOF 4
ENDMDL
MODEL 6
REMARK VINA RESULT:      -9.1      2.562      4.389
REMARK  Name = 
REMARK  4 active torsions:
REMARK  status: ('A' for Active; 'I' for Inactive)
REMARK    1  A    between atoms: C_4  and  N_18
REMARK    2  A    between atoms: C_6  and  C_7
REMARK    3  A    between atoms: C_9  and  C_12
REMARK    4  A    between atoms: N_21  and  C_22
REMARK                            x       y       z     vdW  Elec       q    Type
REMARK                         _______ _______ _______ _____ _____    ______ ____
ROOT
ATOM      1  C   UNL     1      -0.722   1.440  24.360  0.00  0.00    +0.090 C 
ATOM      2  N   UNL     1      -0.278   0.875  23.956  0.00  0.00    -0.264 NA
ATOM      3  C   UNL     1       0.374   1.025  23.473  0.00  0.00    +0.094 C 
ATOM      4  C   UNL     1       0.647   0.304  23.182  0.00  0.00    +0.115 C 
ATOM      5  C   UNL     1       0.164  -0.293  23.485  0.00  0.00    +0.049 C 
ATOM      6  C   UNL     1      -0.408   0.060  23.963  0.00  0.00    +0.139 C 
ENDROOT
BRANCH   6   7
ATOM      7  C   UNL     1      -1.005  -0.332  24.376  0.00  0.00    +0.251 A 
ATOM      8  N   UNL     1      -1.624  -0.762  24.040  0.00  0.00    -0.188 NA
ATOM      9  C   UNL     1      -2.089  -1.059  24.654  0.00  0.00    +0.221 A 
ATOM     10  N   UNL     1      -1.757  -0.813  25.368  0.00  0.00    -0.054 NA
ATOM     11  O   UNL     1      -1.087  -0.364  25.196  0.00  0.00    -0.336 OA
BRANCH   9  12
ATOM     12  C   UNL     1      -2.767  -1.521  24.568  0.00  0.00    +0.120 A 
ATOM     13  N   UNL     1      -2.722  -2.341  24.652  0.00  0.00    -0.241 NA
ATOM     14  C   UNL     1      -3.400  -2.801  24.566  0.00  0.00    +0.099 A 
ATOM     15  C   UNL     1      -4.124  -2.444  24.396  0.00  0.00    +0.021 A 
ATOM     16  C   UNL     1      -4.169  -1.624  24.312  0.00  0.00    +0.003 A 
ATOM     17  C   UNL     1      -3.490  -1.163  24.398  0.00  0.00    +0.022 A 
ENDBRANCH   9  12
ENDBRANCH   6   7
BRANCH   4  18
ATOM     18  N   UNL     1       1.291   0.196  22.677  0.00  0.00    -0.187 NA
ATOM     19  C   UNL     1       2.059   0.232  22.975  0.00  0.00    +0.343 C 
ATOM     20  O   UNL     1       2.185   0.374  23.777  0.00  0.00    -0.249 OA
ATOM     21  N   UNL     1       2.703   0.125  22.469  0.00  0.00    -0.161 NA
BRANCH  21  22
ATOM     22  C   UNL     1       3.471   0.160  22.768  0.00  0.00    +0.075 A 
ATOM     23  C   UNL     1       3.907   0.858  22.701  0.00  0.00    +0.016 A 
ATOM     24  C   UNL     1       4.675   0.894  22.999  0.00  0.00    -0.003 A 
ATOM     25  C   UNL     1       5.008   0.233  23.364  0.00  0.00    -0.022 A 
ATOM     26  C   UNL     1       5.776   0.269  23.661  0.00  0.00    +0.031 C 
ATOM     27  C   UNL     1       4.572  -0.465  23.430  0.00  0.00    -0.003 A 
ATOM     28  C   UNL     1       3.804  -0.501  23.132  0.00  0.00    +0.016 A 
ENDBRANCH  21  22
ENDBRANCH   4  18
TORSDOF 4
ENDMDL
MODEL 7
REMARK VINA RESULT:      -9.1      2.721      4.328
REMARK  Name = 
REMARK  4 active torsions:
REMARK  status: ('A' for Active; 'I' for Inactive)
REMARK    1  A    between atoms: C_4  and  N_18
REMARK    2  A    between atoms: C_6  and  C_7
REMARK    3  A    between atoms: C_9  and  C_12
REMARK    4  A    between atoms: N_21  and  C_22
REMARK                            x       y       z     vdW  Elec       q    Type
REMARK                         _______ _______ _______ _____ _____    ______ ____
ROOT
ATOM      1  C   UNL     1       0.180   2.121  25.608  0.00  0.00    +0.090 C 
ATOM      2  N   UNL     1      -0.471   2.190  25.106  0.00  0.00    -0.264 NA
ATOM      3  C   UNL     1      -1.095   2.723  25.192  0.00  0.00    +0.094 C 
ATOM      4  C   UNL     1      -1.622   2.600  24.570  0.00  0.00    +0.115 C 
ATOM      5  C   UNL     1      -1.323   1.992  24.099  0.00  0.00    +0.049 C 
ATOM      6  C   UNL     1      -0.612   1.739  24.430  0.00  0.00    +0.139 C 
ENDROOT
BRANCH   6   7
ATOM      7  C   UNL     1      -0.127   1.139  24.137  0.00  0.00    +0.251 A 
ATOM      8  N   UNL     1       0.525   1.241  23.643  0.00  0.00    -0.188 NA
ATOM      9  C   UNL     1       0.847   0.497  23.488  0.00  0.00    +0.221 A 
ATOM     10  N   UNL     1       0.392  -0.065  23.886  0.00  0.00    -0.054 NA
ATOM     11  O   UNL     1      -0.210   0.331  24.287  0.00  0.00    -0.336 OA
BRANCH   9  12
ATOM     12  C   UNL     1       1.506   0.342  23.017  0.00  0.00    +0.120 A 
ATOM     13  N   UNL     1       2.240   0.660  23.217  0.00  0.00    -0.241 NA
ATOM     14  C   UNL     1       2.898   0.505  22.747  0.00  0.00    +0.099 A 
ATOM     15  C   UNL     1       2.824   0.032  22.074  0.00  0.00    +0.021 A 
ATOM     16  C   UNL     1       2.090  -0.286  21.874  0.00  0.00    +0.003 A 
ATOM     17  C   UNL     1       1.431  -0.131  22.345  0.00  0.00    +0.022 A 
ENDBRANCH   9  12
ENDBRANCH   6   7
BRANCH   4  18
ATOM     18  N   UNL     1      -2.325   3.014  24.440  0.00  0.00    -0.187 NA
ATOM     19  C   UNL     1      -3.036   2.719  24.736  0.00  0.00    +0.343 C 
ATOM     20  O   UNL     1      -3.047   2.012  25.160  0.00  0.00    -0.249 OA
ATOM     21  N   UNL     1      -3.739   3.133  24.606  0.00  0.00    -0.161 NA
BRANCH  21  22
ATOM     22  C   UNL     1      -4.450   2.838  24.901  0.00  0.00    +0.075 A 
ATOM     23  C   UNL     1      -4.848   2.239  24.496  0.00  0.00    +0.016 A 
ATOM     24  C   UNL     1      -5.560   1.945  24.790  0.00  0.00    -0.003 A 
ATOM     25  C   UNL     1      -5.874   2.248  25.491  0.00  0.00    -0.022 A 
ATOM     26  C   UNL     1      -6.586   1.953  25.785  0.00  0.00    +0.031 C 
ATOM     27  C   UNL     1      -5.476   2.847  25.896  0.00  0.00    -0.003 A 
ATOM     28  C   UNL     1      -4.765   3.141  25.601  0.00  0.00    +0.016 A 
ENDBRANCH  21  22
ENDBRANCH   4  18
TORSDOF 4
ENDMDL
