REMARK  Name = 
REMARK  9 active torsions:
REMARK  status: ('A' for Active; 'I' for Inactive)
REMARK    1  A    between atoms: C_2  and  C_4
REMARK    2  A    between atoms: C_4  and  C_5
REMARK    3  A    between atoms: C_10  and  C_11
REMARK    4  A    between atoms: C_11  and  C_12
REMARK    5  A    between atoms: C_12  and  N_13
REMARK    6  A    between atoms: N_16  and  C_19
REMARK    7  A    between atoms: C_26  and  C_28
REMARK    8  A    between atoms: C_28  and  O_29
REMARK    9  A    between atoms: O_29  and  C_30
REMARK                            x       y       z     vdW  Elec       q    Type
REMARK                         _______ _______ _______ _____ _____    ______ ____
ROOT
ATOM      5  C   UNL     1      -2.143  -1.238   0.000  0.00  0.00    +0.015 C 
ATOM      6  C   UNL     1      -1.429  -1.650   0.000  0.00  0.00    +0.022 C 
ATOM      7  C   UNL     1      -1.429  -2.475   0.000  0.00  0.00    +0.094 C 
ATOM      8  N   UNL     1      -2.143  -2.888   0.000  0.00  0.00    -0.277 N 
ATOM      9  C   UNL     1      -2.858  -2.475   0.000  0.00  0.00    +0.094 C 
ATOM     10  C   UNL     1      -2.858  -1.650   0.000  0.00  0.00    +0.022 C 
ATOM     26  C   UNL     1      -2.143  -3.712   0.000  0.00  0.00    +0.270 C 
ATOM     27  O   UNL     1      -1.429  -4.125   0.000  0.00  0.00    -0.271 OA
ENDROOT
BRANCH   5   4
ATOM      4  C   UNL     1      -2.143  -0.412   0.000  0.00  0.00    +0.114 C 
BRANCH   4   2
ATOM      1  O   UNL     1      -1.429   0.825   0.000  0.00  0.00    -0.246 OA
ATOM      2  C   UNL     1      -1.429   0.000   0.000  0.00  0.00    +0.365 C 
ATOM      3  O   UNL     1      -0.715  -0.412   0.000  0.00  0.00    -0.246 OA
ENDBRANCH   4   2
ENDBRANCH   5   4
BRANCH  10  11
ATOM     11  C   UNL     1      -3.572  -1.238   0.000  0.00  0.00    +0.019 C 
BRANCH  11  12
ATOM     12  C   UNL     1      -3.572  -0.412   0.000  0.00  0.00    +0.072 C 
BRANCH  12  13
ATOM     13  N   UNL     1      -4.287   0.000   0.000  0.00  0.00    -0.270 NA
ATOM     14  C   UNL     1      -5.001  -0.412   0.000  0.00  0.00    +0.094 C 
ATOM     15  C   UNL     1      -5.716   0.000   0.000  0.00  0.00    +0.108 C 
ATOM     16  N   UNL     1      -5.716   0.825   0.000  0.00  0.00    -0.305 N 
ATOM     17  C   UNL     1      -5.001   1.238   0.000  0.00  0.00    +0.108 C 
ATOM     18  C   UNL     1      -4.287   0.825   0.000  0.00  0.00    +0.094 C 
BRANCH  16  19
ATOM     19  C   UNL     1      -6.430   1.238   0.000  0.00  0.00    +0.048 A 
ATOM     20  C   UNL     1      -7.145   0.825   0.000  0.00  0.00    +0.017 A 
ATOM     21  C   UNL     1      -7.859   1.238   0.000  0.00  0.00    +0.031 A 
ATOM     22  C   UNL     1      -7.859   2.062   0.000  0.00  0.00    +0.140 A 
ATOM     23  F   UNL     1      -8.574   2.475   0.000  0.00  0.00    -0.204 F 
ATOM     24  C   UNL     1      -7.145   2.475   0.000  0.00  0.00    +0.031 A 
ATOM     25  C   UNL     1      -6.430   2.062   0.000  0.00  0.00    +0.017 A 
ENDBRANCH  16  19
ENDBRANCH  12  13
ENDBRANCH  11  12
ENDBRANCH  10  11
BRANCH  26  28
ATOM     28  C   UNL     1      -2.858  -4.125   0.000  0.00  0.00    +0.290 C 
BRANCH  28  29
ATOM     29  O   UNL     1      -2.858  -4.950   0.000  0.00  0.00    -0.466 OA
BRANCH  29  30
ATOM     30  C   UNL     1      -2.143  -5.362   0.000  0.00  0.00    +0.139 A 
ATOM     31  C   UNL     1      -1.429  -4.950   0.000  0.00  0.00    +0.037 A 
ATOM     32  C   UNL     1      -0.715  -5.362   0.000  0.00  0.00    +0.003 A 
ATOM     33  C   UNL     1      -0.715  -6.188   0.000  0.00  0.00    +0.000 A 
ATOM     34  C   UNL     1      -1.429  -6.600   0.000  0.00  0.00    +0.003 A 
ATOM     35  C   UNL     1      -2.143  -6.188   0.000  0.00  0.00    +0.037 A 
ENDBRANCH  29  30
ENDBRANCH  28  29
ENDBRANCH  26  28
TORSDOF 9
