MODEL 1
REMARK VINA RESULT:     -13.5      0.000      0.000
REMARK  Name = 
REMARK  4 active torsions:
REMARK  status: ('A' for Active; 'I' for Inactive)
REMARK    1  A    between atoms: C_2  and  C_3
REMARK    2  A    between atoms: C_2  and  C_25
REMARK    3  A    between atoms: C_10  and  N_11
REMARK    4  A    between atoms: C_12  and  C_14
REMARK                            x       y       z     vdW  Elec       q    Type
REMARK                         _______ _______ _______ _____ _____    ______ ____
ROOT
ATOM      3  C   UNL     1      -4.511   0.612  24.821  0.00  0.00    +0.039 C 
ATOM      4  C   UNL     1      -5.188   0.886  25.208  0.00  0.00    +0.003 C 
ATOM      5  C   UNL     1      -5.251   1.681  25.415  0.00  0.00    +0.000 C 
ATOM      6  C   UNL     1      -4.638   2.204  25.237  0.00  0.00    +0.002 C 
ATOM      7  C   UNL     1      -5.313   2.477  25.622  0.00  0.00    +0.000 C 
ATOM      8  C   UNL     1      -4.700   3.000  25.444  0.00  0.00    +0.002 C 
ATOM      9  C   UNL     1      -4.088   3.522  25.266  0.00  0.00    +0.022 C 
ATOM     10  C   UNL     1      -3.411   3.248  24.880  0.00  0.00    +0.096 C 
ATOM     20  C   UNL     1      -3.349   2.453  24.672  0.00  0.00    +0.022 C 
ATOM     21  C   UNL     1      -2.673   2.179  24.286  0.00  0.00    +0.002 C 
ATOM     22  C   UNL     1      -3.961   1.930  24.850  0.00  0.00    +0.032 C 
ATOM     23  C   UNL     1      -3.899   1.134  24.643  0.00  0.00    +0.152 C 
ATOM     24  O   UNL     1      -3.223   0.861  24.257  0.00  0.00    -0.223 OA
ENDROOT
BRANCH  10  11
ATOM     11  N   UNL     1      -2.798   3.771  24.701  0.00  0.00    -0.202 NA
ATOM     12  C   UNL     1      -2.390   4.151  25.308  0.00  0.00    +0.282 C 
ATOM     13  O   UNL     1      -2.595   4.008  26.096  0.00  0.00    -0.267 OA
BRANCH  12  14
ATOM     14  C   UNL     1      -1.777   4.674  25.130  0.00  0.00    +0.136 A 
ATOM     15  N   UNL     1      -1.013   4.389  25.008  0.00  0.00    -0.239 NA
ATOM     16  C   UNL     1      -0.400   4.912  24.830  0.00  0.00    +0.099 A 
ATOM     17  C   UNL     1      -0.553   5.721  24.774  0.00  0.00    +0.021 A 
ATOM     18  C   UNL     1      -1.318   6.007  24.896  0.00  0.00    +0.003 A 
ATOM     19  C   UNL     1      -1.929   5.483  25.074  0.00  0.00    +0.024 A 
ENDBRANCH  12  14
ENDBRANCH  10  11
BRANCH   3   2
ATOM      1  C   UNL     1      -4.709  -0.441  23.874  0.00  0.00    +0.010 C 
ATOM      2  C   UNL     1      -4.449  -0.184  24.614  0.00  0.00    +0.079 C 
BRANCH   2  25
ATOM     25  C   UNL     1      -4.127  -0.725  25.148  0.00  0.00    +0.225 C 
ATOM     26  O   UNL     1      -4.011  -0.508  25.936  0.00  0.00    -0.275 OA
ATOM     27  N   UNL     1      -3.920  -1.483  24.893  0.00  0.00    -0.280 N 
ATOM     28  C   UNL     1      -3.598  -2.022  25.426  0.00  0.00    +0.093 C 
ATOM     29  C   UNL     1      -3.391  -2.779  25.173  0.00  0.00    +0.022 C 
ATOM     30  C   UNL     1      -3.506  -2.995  24.385  0.00  0.00    +0.003 C 
ATOM     31  C   UNL     1      -3.299  -3.753  24.131  0.00  0.00    +0.000 C 
ATOM     32  C   UNL     1      -3.828  -2.456  23.852  0.00  0.00    +0.022 C 
ATOM     33  C   UNL     1      -4.035  -1.698  24.106  0.00  0.00    +0.093 C 
ENDBRANCH   2  25
ENDBRANCH   3   2
TORSDOF 4
ENDMDL
MODEL 2
REMARK VINA RESULT:     -13.1      0.819      5.539
REMARK  Name = 
REMARK  4 active torsions:
REMARK  status: ('A' for Active; 'I' for Inactive)
REMARK    1  A    between atoms: C_2  and  C_3
REMARK    2  A    between atoms: C_2  and  C_25
REMARK    3  A    between atoms: C_10  and  N_11
REMARK    4  A    between atoms: C_12  and  C_14
REMARK                            x       y       z     vdW  Elec       q    Type
REMARK                         _______ _______ _______ _____ _____    ______ ____
ROOT
ATOM      3  C   UNL     1      -4.167   2.863  24.619  0.00  0.00    +0.039 C 
ATOM      4  C   UNL     1      -4.845   2.880  25.090  0.00  0.00    +0.003 C 
ATOM      5  C   UNL     1      -5.208   2.175  25.315  0.00  0.00    +0.000 C 
ATOM      6  C   UNL     1      -4.894   1.453  25.071  0.00  0.00    +0.002 C 
ATOM      7  C   UNL     1      -5.571   1.470  25.540  0.00  0.00    +0.000 C 
ATOM      8  C   UNL     1      -5.257   0.747  25.296  0.00  0.00    +0.002 C 
ATOM      9  C   UNL     1      -4.943   0.025  25.051  0.00  0.00    +0.022 C 
ATOM     10  C   UNL     1      -4.264   0.008  24.581  0.00  0.00    +0.096 C 
ATOM     20  C   UNL     1      -3.901   0.713  24.356  0.00  0.00    +0.022 C 
ATOM     21  C   UNL     1      -3.223   0.697  23.886  0.00  0.00    +0.002 C 
ATOM     22  C   UNL     1      -4.215   1.436  24.600  0.00  0.00    +0.032 C 
ATOM     23  C   UNL     1      -3.852   2.141  24.375  0.00  0.00    +0.152 C 
ATOM     24  O   UNL     1      -3.175   2.125  23.905  0.00  0.00    -0.223 OA
ENDROOT
BRANCH  10  11
ATOM     11  N   UNL     1      -3.950  -0.715  24.336  0.00  0.00    -0.202 NA
ATOM     12  C   UNL     1      -3.730  -1.279  24.895  0.00  0.00    +0.282 C 
ATOM     13  O   UNL     1      -3.823  -1.122  25.700  0.00  0.00    -0.267 OA
BRANCH  12  14
ATOM     14  C   UNL     1      -3.416  -2.002  24.650  0.00  0.00    +0.136 A 
ATOM     15  N   UNL     1      -2.610  -2.153  24.737  0.00  0.00    -0.239 NA
ATOM     16  C   UNL     1      -2.296  -2.875  24.492  0.00  0.00    +0.099 A 
ATOM     17  C   UNL     1      -2.789  -3.448  24.161  0.00  0.00    +0.021 A 
ATOM     18  C   UNL     1      -3.596  -3.298  24.075  0.00  0.00    +0.003 A 
ATOM     19  C   UNL     1      -3.909  -2.575  24.320  0.00  0.00    +0.024 A 
ENDBRANCH  12  14
ENDBRANCH  10  11
BRANCH   3   2
ATOM      1  C   UNL     1      -3.723   3.757  23.595  0.00  0.00    +0.010 C 
ATOM      2  C   UNL     1      -3.804   3.569  24.394  0.00  0.00    +0.079 C 
BRANCH   2  25
ATOM     25  C   UNL     1      -3.521   4.089  24.970  0.00  0.00    +0.225 C 
ATOM     26  O   UNL     1      -4.025   4.360  25.565  0.00  0.00    -0.275 OA
ATOM     27  N   UNL     1      -2.734   4.338  24.950  0.00  0.00    -0.280 N 
ATOM     28  C   UNL     1      -2.451   4.856  25.525  0.00  0.00    +0.093 C 
ATOM     29  C   UNL     1      -1.665   5.105  25.506  0.00  0.00    +0.022 C 
ATOM     30  C   UNL     1      -1.162   4.834  24.911  0.00  0.00    +0.003 C 
ATOM     31  C   UNL     1      -0.375   5.083  24.891  0.00  0.00    +0.000 C 
ATOM     32  C   UNL     1      -1.445   4.316  24.336  0.00  0.00    +0.022 C 
ATOM     33  C   UNL     1      -2.231   4.067  24.355  0.00  0.00    +0.093 C 
ENDBRANCH   2  25
ENDBRANCH   3   2
TORSDOF 4
ENDMDL
MODEL 3
REMARK VINA RESULT:     -12.1      2.881      4.690
REMARK  Name = 
REMARK  4 active torsions:
REMARK  status: ('A' for Active; 'I' for Inactive)
REMARK    1  A    between atoms: C_2  and  C_3
REMARK    2  A    between atoms: C_2  and  C_25
REMARK    3  A    between atoms: C_10  and  N_11
REMARK    4  A    between atoms: C_12  and  C_14
REMARK                            x       y       z     vdW  Elec       q    Type
REMARK                         _______ _______ _______ _____ _____    ______ ____
ROOT
ATOM      3  C   UNL     1      -2.563   3.179  24.991  0.00  0.00    +0.039 C 
ATOM      4  C   UNL     1      -2.207   3.473  25.676  0.00  0.00    +0.003 C 
ATOM      5  C   UNL     1      -1.441   3.241  25.874  0.00  0.00    +0.000 C 
ATOM      6  C   UNL     1      -1.031   2.716  25.389  0.00  0.00    +0.002 C 
ATOM      7  C   UNL     1      -0.675   3.009  26.072  0.00  0.00    +0.000 C 
ATOM      8  C   UNL     1      -0.264   2.484  25.587  0.00  0.00    +0.002 C 
ATOM      9  C   UNL     1       0.147   1.959  25.102  0.00  0.00    +0.022 C 
ATOM     10  C   UNL     1      -0.209   1.665  24.417  0.00  0.00    +0.096 C 
ATOM     20  C   UNL     1      -0.975   1.896  24.219  0.00  0.00    +0.022 C 
ATOM     21  C   UNL     1      -1.331   1.603  23.535  0.00  0.00    +0.002 C 
ATOM     22  C   UNL     1      -1.387   2.422  24.704  0.00  0.00    +0.032 C 
ATOM     23  C   UNL     1      -2.153   2.654  24.506  0.00  0.00    +0.152 C 
ATOM     24  O   UNL     1      -2.508   2.360  23.822  0.00  0.00    -0.223 OA
ENDROOT
BRANCH  10  11
ATOM     11  N   UNL     1       0.202   1.139  23.932  0.00  0.00    -0.202 NA
ATOM     12  C   UNL     1       0.999   1.268  23.767  0.00  0.00    +0.282 C 
ATOM     13  O   UNL     1       1.387   1.923  24.087  0.00  0.00    -0.267 OA
BRANCH  12  14
ATOM     14  C   UNL     1       1.411   0.742  23.282  0.00  0.00    +0.136 A 
ATOM     15  N   UNL     1       1.017   0.108  22.932  0.00  0.00    -0.239 NA
ATOM     16  C   UNL     1       1.429  -0.418  22.447  0.00  0.00    +0.099 A 
ATOM     17  C   UNL     1       2.235  -0.308  22.312  0.00  0.00    +0.021 A 
ATOM     18  C   UNL     1       2.630   0.327  22.662  0.00  0.00    +0.003 A 
ATOM     19  C   UNL     1       2.217   0.852  23.146  0.00  0.00    +0.024 A 
ENDBRANCH  12  14
ENDBRANCH  10  11
BRANCH   3   2
ATOM      1  C   UNL     1      -3.519   3.587  24.010  0.00  0.00    +0.010 C 
ATOM      2  C   UNL     1      -3.330   3.411  24.793  0.00  0.00    +0.079 C 
BRANCH   2  25
ATOM     25  C   UNL     1      -3.908   3.467  25.379  0.00  0.00    +0.225 C 
ATOM     26  O   UNL     1      -3.808   3.992  26.008  0.00  0.00    -0.275 OA
ATOM     27  N   UNL     1      -4.586   2.997  25.337  0.00  0.00    -0.280 N 
ATOM     28  C   UNL     1      -5.163   3.053  25.922  0.00  0.00    +0.093 C 
ATOM     29  C   UNL     1      -5.840   2.584  25.881  0.00  0.00    +0.022 C 
ATOM     30  C   UNL     1      -5.939   2.060  25.252  0.00  0.00    +0.003 C 
ATOM     31  C   UNL     1      -6.617   1.590  25.210  0.00  0.00    +0.000 C 
ATOM     32  C   UNL     1      -5.362   2.004  24.667  0.00  0.00    +0.022 C 
ATOM     33  C   UNL     1      -4.684   2.473  24.708  0.00  0.00    +0.093 C 
ENDBRANCH   2  25
ENDBRANCH   3   2
TORSDOF 4
ENDMDL
MODEL 4
REMARK VINA RESULT:     -11.8      3.256      4.864
REMARK  Name = 
REMARK  4 active torsions:
REMARK  status: ('A' for Active; 'I' for Inactive)
REMARK    1  A    between atoms: C_2  and  C_3
REMARK    2  A    between atoms: C_2  and  C_25
REMARK    3  A    between atoms: C_10  and  N_11
REMARK    4  A    between atoms: C_12  and  C_14
REMARK                            x       y       z     vdW  Elec       q    Type
REMARK                         _______ _______ _______ _____ _____    ______ ____
ROOT
ATOM      3  C   UNL     1      -2.606   1.437  24.289  0.00  0.00    +0.039 C 
ATOM      4  C   UNL     1      -2.787   0.714  24.645  0.00  0.00    +0.003 C 
ATOM      5  C   UNL     1      -2.204   0.135  24.720  0.00  0.00    +0.000 C 
ATOM      6  C   UNL     1      -1.442   0.278  24.441  0.00  0.00    +0.002 C 
ATOM      7  C   UNL     1      -1.622  -0.443  24.796  0.00  0.00    +0.000 C 
ATOM      8  C   UNL     1      -0.859  -0.301  24.517  0.00  0.00    +0.002 C 
ATOM      9  C   UNL     1      -0.096  -0.158  24.238  0.00  0.00    +0.022 C 
ATOM     10  C   UNL     1       0.084   0.566  23.882  0.00  0.00    +0.096 C 
ATOM     20  C   UNL     1      -0.498   1.144  23.806  0.00  0.00    +0.022 C 
ATOM     21  C   UNL     1      -0.318   1.867  23.451  0.00  0.00    +0.002 C 
ATOM     22  C   UNL     1      -1.261   1.001  24.085  0.00  0.00    +0.032 C 
ATOM     23  C   UNL     1      -1.844   1.580  24.010  0.00  0.00    +0.152 C 
ATOM     24  O   UNL     1      -1.663   2.302  23.654  0.00  0.00    -0.223 OA
ENDROOT
BRANCH  10  11
ATOM     11  N   UNL     1       0.847   0.708  23.603  0.00  0.00    -0.202 NA
ATOM     12  C   UNL     1       1.262   0.113  23.211  0.00  0.00    +0.282 C 
ATOM     13  O   UNL     1       0.913  -0.627  23.098  0.00  0.00    -0.267 OA
BRANCH  12  14
ATOM     14  C   UNL     1       2.025   0.255  22.932  0.00  0.00    +0.136 A 
ATOM     15  N   UNL     1       2.553   0.701  23.382  0.00  0.00    -0.239 NA
ATOM     16  C   UNL     1       3.316   0.843  23.103  0.00  0.00    +0.099 A 
ATOM     17  C   UNL     1       3.551   0.540  22.372  0.00  0.00    +0.021 A 
ATOM     18  C   UNL     1       3.023   0.094  21.921  0.00  0.00    +0.003 A 
ATOM     19  C   UNL     1       2.260  -0.048  22.202  0.00  0.00    +0.024 A 
ENDBRANCH  12  14
ENDBRANCH  10  11
BRANCH   3   2
ATOM      1  C   UNL     1      -3.508   2.187  23.472  0.00  0.00    +0.010 C 
ATOM      2  C   UNL     1      -3.189   2.016  24.213  0.00  0.00    +0.079 C 
BRANCH   2  25
ATOM     25  C   UNL     1      -3.454   2.424  24.880  0.00  0.00    +0.225 C 
ATOM     26  O   UNL     1      -2.919   2.852  25.341  0.00  0.00    -0.275 OA
ATOM     27  N   UNL     1      -4.253   2.404  25.086  0.00  0.00    -0.280 N 
ATOM     28  C   UNL     1      -4.517   2.811  25.752  0.00  0.00    +0.093 C 
ATOM     29  C   UNL     1      -5.316   2.791  25.958  0.00  0.00    +0.022 C 
ATOM     30  C   UNL     1      -5.849   2.363  25.497  0.00  0.00    +0.003 C 
ATOM     31  C   UNL     1      -6.648   2.343  25.704  0.00  0.00    +0.000 C 
ATOM     32  C   UNL     1      -5.585   1.956  24.832  0.00  0.00    +0.022 C 
ATOM     33  C   UNL     1      -4.787   1.976  24.625  0.00  0.00    +0.093 C 
ENDBRANCH   2  25
ENDBRANCH   3   2
TORSDOF 4
ENDMDL
MODEL 5
REMARK VINA RESULT:     -11.7      3.439      5.272
REMARK  Name = 
REMARK  4 active torsions:
REMARK  status: ('A' for Active; 'I' for Inactive)
REMARK    1  A    between atoms: C_2  and  C_3
REMARK    2  A    between atoms: C_2  and  C_25
REMARK    3  A    between atoms: C_10  and  N_11
REMARK    4  A    between atoms: C_12  and  C_14
REMARK                            x       y       z     vdW  Elec       q    Type
REMARK                         _______ _______ _______ _____ _____    ______ ____
ROOT
ATOM      3  C   UNL     1      -0.158   0.365  23.974  0.00  0.00    +0.039 C 
ATOM      4  C   UNL     1      -0.185  -0.408  24.264  0.00  0.00    +0.003 C 
ATOM      5  C   UNL     1      -0.875  -0.693  24.614  0.00  0.00    +0.000 C 
ATOM      6  C   UNL     1      -1.538  -0.206  24.675  0.00  0.00    +0.002 C 
ATOM      7  C   UNL     1      -1.565  -0.977  24.964  0.00  0.00    +0.000 C 
ATOM      8  C   UNL     1      -2.229  -0.491  25.025  0.00  0.00    +0.002 C 
ATOM      9  C   UNL     1      -2.892  -0.004  25.085  0.00  0.00    +0.022 C 
ATOM     10  C   UNL     1      -2.864   0.769  24.795  0.00  0.00    +0.096 C 
ATOM     20  C   UNL     1      -2.174   1.053  24.445  0.00  0.00    +0.022 C 
ATOM     21  C   UNL     1      -2.147   1.825  24.156  0.00  0.00    +0.002 C 
ATOM     22  C   UNL     1      -1.511   0.567  24.385  0.00  0.00    +0.032 C 
ATOM     23  C   UNL     1      -0.821   0.851  24.035  0.00  0.00    +0.152 C 
ATOM     24  O   UNL     1      -0.793   1.623  23.745  0.00  0.00    -0.223 OA
ENDROOT
BRANCH  10  11
ATOM     11  N   UNL     1      -3.528   1.255  24.856  0.00  0.00    -0.202 NA
ATOM     12  C   UNL     1      -4.241   0.948  25.133  0.00  0.00    +0.282 C 
ATOM     13  O   UNL     1      -4.292   0.153  25.349  0.00  0.00    -0.267 OA
BRANCH  12  14
ATOM     14  C   UNL     1      -4.905   1.435  25.193  0.00  0.00    +0.136 A 
ATOM     15  N   UNL     1      -4.868   2.131  25.634  0.00  0.00    -0.239 NA
ATOM     16  C   UNL     1      -5.532   2.617  25.695  0.00  0.00    +0.099 A 
ATOM     17  C   UNL     1      -6.233   2.407  25.314  0.00  0.00    +0.021 A 
ATOM     18  C   UNL     1      -6.270   1.710  24.873  0.00  0.00    +0.003 A 
ATOM     19  C   UNL     1      -5.606   1.224  24.813  0.00  0.00    +0.024 A 
ENDBRANCH  12  14
ENDBRANCH  10  11
BRANCH   3   2
ATOM      1  C   UNL     1       0.865   1.359  23.882  0.00  0.00    +0.010 C 
ATOM      2  C   UNL     1       0.533   0.649  23.624  0.00  0.00    +0.079 C 
BRANCH   2  25
ATOM     25  C   UNL     1       0.892   0.223  23.016  0.00  0.00    +0.225 C 
ATOM     26  O   UNL     1       0.444  -0.292  22.552  0.00  0.00    -0.275 OA
ATOM     27  N   UNL     1       1.701   0.311  22.872  0.00  0.00    -0.280 N 
ATOM     28  C   UNL     1       2.059  -0.115  22.264  0.00  0.00    +0.093 C 
ATOM     29  C   UNL     1       2.867  -0.027  22.119  0.00  0.00    +0.022 C 
ATOM     30  C   UNL     1       3.314   0.487  22.583  0.00  0.00    +0.003 C 
ATOM     31  C   UNL     1       4.123   0.575  22.439  0.00  0.00    +0.000 C 
ATOM     32  C   UNL     1       2.956   0.913  23.191  0.00  0.00    +0.022 C 
ATOM     33  C   UNL     1       2.148   0.825  23.336  0.00  0.00    +0.093 C 
ENDBRANCH   2  25
ENDBRANCH   3   2
TORSDOF 4
ENDMDL
MODEL 6
REMARK VINA RESULT:     -11.5      1.843      2.777
REMARK  Name = 
REMARK  4 active torsions:
REMARK  status: ('A' for Active; 'I' for Inactive)
REMARK    1  A    between atoms: C_2  and  C_3
REMARK    2  A    between atoms: C_2  and  C_25
REMARK    3  A    between atoms: C_10  and  N_11
REMARK    4  A    between atoms: C_12  and  C_14
REMARK                            x       y       z     vdW  Elec       q    Type
REMARK                         _______ _______ _______ _____ _____    ______ ____
ROOT
ATOM      3  C   UNL     1      -1.623  -0.613  25.080  0.00  0.00    +0.039 C 
ATOM      4  C   UNL     1      -0.876  -0.830  24.803  0.00  0.00    +0.003 C 
ATOM      5  C   UNL     1      -0.353  -0.252  24.533  0.00  0.00    +0.000 C 
ATOM      6  C   UNL     1      -0.577   0.541  24.538  0.00  0.00    +0.002 C 
ATOM      7  C   UNL     1       0.169   0.325  24.262  0.00  0.00    +0.000 C 
ATOM      8  C   UNL     1      -0.054   1.120  24.267  0.00  0.00    +0.002 C 
ATOM      9  C   UNL     1      -0.278   1.913  24.272  0.00  0.00    +0.022 C 
ATOM     10  C   UNL     1      -1.026   2.129  24.549  0.00  0.00    +0.096 C 
ATOM     20  C   UNL     1      -1.548   1.552  24.819  0.00  0.00    +0.022 C 
ATOM     21  C   UNL     1      -2.295   1.768  25.095  0.00  0.00    +0.002 C 
ATOM     22  C   UNL     1      -1.325   0.758  24.814  0.00  0.00    +0.032 C 
ATOM     23  C   UNL     1      -1.847   0.180  25.085  0.00  0.00    +0.152 C 
ATOM     24  O   UNL     1      -2.594   0.396  25.361  0.00  0.00    -0.223 OA
ENDROOT
BRANCH  10  11
ATOM     11  N   UNL     1      -1.249   2.924  24.554  0.00  0.00    -0.202 NA
ATOM     12  C   UNL     1      -0.826   3.469  25.004  0.00  0.00    +0.282 C 
ATOM     13  O   UNL     1      -0.177   3.220  25.452  0.00  0.00    -0.267 OA
BRANCH  12  14
ATOM     14  C   UNL     1      -1.049   4.263  25.010  0.00  0.00    +0.136 A 
ATOM     15  N   UNL     1      -1.747   4.494  25.383  0.00  0.00    -0.239 NA
ATOM     16  C   UNL     1      -1.970   5.288  25.388  0.00  0.00    +0.099 A 
ATOM     17  C   UNL     1      -1.494   5.852  25.019  0.00  0.00    +0.021 A 
ATOM     18  C   UNL     1      -0.795   5.622  24.645  0.00  0.00    +0.003 A 
ATOM     19  C   UNL     1      -0.573   4.827  24.641  0.00  0.00    +0.024 A 
ENDBRANCH  12  14
ENDBRANCH  10  11
BRANCH   3   2
ATOM      1  C   UNL     1      -2.627  -1.042  26.004  0.00  0.00    +0.010 C 
ATOM      2  C   UNL     1      -2.146  -1.192  25.350  0.00  0.00    +0.079 C 
BRANCH   2  25
ATOM     25  C   UNL     1      -2.187  -1.921  24.967  0.00  0.00    +0.225 C 
ATOM     26  O   UNL     1      -1.533  -2.425  24.967  0.00  0.00    -0.275 OA
ATOM     27  N   UNL     1      -2.883  -2.148  24.584  0.00  0.00    -0.280 N 
ATOM     28  C   UNL     1      -2.924  -2.876  24.202  0.00  0.00    +0.093 C 
ATOM     29  C   UNL     1      -3.619  -3.103  23.819  0.00  0.00    +0.022 C 
ATOM     30  C   UNL     1      -4.272  -2.599  23.820  0.00  0.00    +0.003 C 
ATOM     31  C   UNL     1      -4.968  -2.825  23.437  0.00  0.00    +0.000 C 
ATOM     32  C   UNL     1      -4.231  -1.870  24.203  0.00  0.00    +0.022 C 
ATOM     33  C   UNL     1      -3.536  -1.644  24.585  0.00  0.00    +0.093 C 
ENDBRANCH   2  25
ENDBRANCH   3   2
TORSDOF 4
ENDMDL
