REMARK  Name = 
REMARK  4 active torsions:
REMARK  status: ('A' for Active; 'I' for Inactive)
REMARK    1  A    between atoms: C_3  and  C_12
REMARK    2  A    between atoms: N_4  and  C_6
REMARK    3  A    between atoms: C_14  and  C_17
REMARK    4  A    between atoms: C_20  and  N_23
REMARK                            x       y       z     vdW  Elec       q    Type
REMARK                         _______ _______ _______ _____ _____    ______ ____
ROOT
ATOM     12  C   UNL     1      -2.047  -3.270   0.000  0.00  0.00    +0.251 A 
ATOM     13  N   UNL     1      -2.715  -3.755   0.000  0.00  0.00    -0.190 NA
ATOM     14  C   UNL     1      -3.382  -3.270   0.000  0.00  0.00    +0.205 A 
ATOM     15  N   UNL     1      -3.127  -2.486   0.000  0.00  0.00    -0.056 NA
ATOM     16  O   UNL     1      -2.303  -2.486   0.000  0.00  0.00    -0.336 OA
ENDROOT
BRANCH  14  17
ATOM     17  C   UNL     1      -4.167  -3.525   0.000  0.00  0.00    +0.058 A 
ATOM     18  C   UNL     1      -4.338  -4.332   0.000  0.00  0.00    +0.008 A 
ATOM     19  C   UNL     1      -5.123  -4.587   0.000  0.00  0.00    +0.038 A 
ATOM     20  C   UNL     1      -5.736  -4.035   0.000  0.00  0.00    +0.149 A 
ATOM     21  N   UNL     1      -5.565  -3.228   0.000  0.00  0.00    -0.226 NA
ATOM     22  C   UNL     1      -4.780  -2.973   0.000  0.00  0.00    +0.104 A 
BRANCH  20  23
ATOM     23  N   UNL     1      -6.521  -4.290   0.000  0.00  0.00    -0.271 N 
ATOM     24  C   UNL     1      -6.776  -5.075   0.000  0.00  0.00    +0.104 A 
ATOM     25  C   UNL     1      -7.601  -5.075   0.000  0.00  0.00    +0.120 A 
ATOM     26  N   UNL     1      -7.856  -4.290   0.000  0.00  0.00    -0.222 NA
ATOM     27  C   UNL     1      -7.188  -3.805   0.000  0.00  0.00    +0.184 A 
ENDBRANCH  20  23
ENDBRANCH  14  17
BRANCH  12   3
ATOM      1  C   UNL     1      -0.183  -4.310   0.000  0.00  0.00    +0.019 C 
ATOM      2  C   UNL     1      -1.008  -4.310   0.000  0.00  0.00    +0.027 C 
ATOM      3  C   UNL     1      -1.263  -3.525   0.000  0.00  0.00    +0.138 C 
ATOM      4  N   UNL     1      -0.596  -3.041   0.000  0.00  0.00    -0.268 NA
ATOM      5  C   UNL     1       0.072  -3.525   0.000  0.00  0.00    +0.072 C 
BRANCH   4   6
ATOM      6  C   UNL     1      -0.596  -2.216   0.000  0.00  0.00    +0.058 C 
ATOM      7  C   UNL     1      -1.310  -1.803   0.000  0.00  0.00    +0.016 C 
ATOM      8  C   UNL     1      -1.310  -0.978   0.000  0.00  0.00    +0.001 C 
ATOM      9  C   UNL     1      -0.596  -0.566   0.000  0.00  0.00    +0.000 C 
ATOM     10  C   UNL     1       0.119  -0.978   0.000  0.00  0.00    +0.001 C 
ATOM     11  C   UNL     1       0.119  -1.803   0.000  0.00  0.00    +0.016 C 
ENDBRANCH   4   6
ENDBRANCH  12   3
TORSDOF 4
