MODEL 1
REMARK VINA RESULT:     -13.3      0.000      0.000
REMARK  Name = 
REMARK  3 active torsions:
REMARK  status: ('A' for Active; 'I' for Inactive)
REMARK    1  A    between atoms: C_7  and  C_9
REMARK    2  A    between atoms: N_12  and  C_13
REMARK    3  A    between atoms: C_13  and  C_14
REMARK                            x       y       z     vdW  Elec       q    Type
REMARK                         _______ _______ _______ _____ _____    ______ ____
ROOT
ATOM      9  C   UNL     1      -4.564   1.019  24.896  0.00  0.00    +0.094 C 
ATOM     10  C   UNL     1      -5.200   1.304  25.338  0.00  0.00    +0.028 C 
ATOM     11  C   UNL     1      -5.197   2.127  25.287  0.00  0.00    +0.073 C 
ATOM     12  N   UNL     1      -4.560   2.351  24.814  0.00  0.00    -0.268 NA
ATOM     23  C   UNL     1      -4.168   1.666  24.572  0.00  0.00    +0.082 C 
ENDROOT
BRANCH   9   7
ATOM      1  C   UNL     1      -3.131  -3.048  25.111  0.00  0.00    +0.031 C 
ATOM      2  C   UNL     1      -3.500  -2.365  24.833  0.00  0.00    -0.020 A 
ATOM      3  C   UNL     1      -3.484  -1.675  25.285  0.00  0.00    +0.018 A 
ATOM      4  C   UNL     1      -3.853  -0.992  25.007  0.00  0.00    +0.118 A 
ATOM      5  C   UNL     1      -4.239  -0.998  24.276  0.00  0.00    +0.164 A 
ATOM      6  O   UNL     1      -4.551  -0.246  24.146  0.00  0.00    -0.438 OA
ATOM      7  C   UNL     1      -4.360   0.225  24.796  0.00  0.00    +0.207 A 
ATOM      8  N   UNL     1      -3.929  -0.235  25.327  0.00  0.00    -0.212 NA
ATOM     24  C   UNL     1      -4.254  -1.688  23.825  0.00  0.00    +0.039 A 
ATOM     25  C   UNL     1      -3.885  -2.372  24.104  0.00  0.00    -0.001 A 
ENDBRANCH   9   7
BRANCH  12  13
ATOM     13  C   UNL     1      -4.351   3.124  24.617  0.00  0.00    +0.099 C 
BRANCH  13  14
ATOM     14  C   UNL     1      -3.674   3.465  24.944  0.00  0.00    -0.003 A 
ATOM     15  C   UNL     1      -3.707   3.812  25.692  0.00  0.00    +0.000 A 
ATOM     16  C   UNL     1      -3.031   4.152  26.019  0.00  0.00    +0.040 A 
ATOM     17  C   UNL     1      -2.321   4.146  25.599  0.00  0.00    +0.176 A 
ATOM     18  O   UNL     1      -1.571   4.436  25.778  0.00  0.00    -0.435 OA
ATOM     19  C   UNL     1      -1.073   4.269  25.142  0.00  0.00    +0.429 C 
ATOM     20  O   UNL     1      -1.517   3.875  24.569  0.00  0.00    -0.435 OA
ATOM     21  C   UNL     1      -2.287   3.799  24.851  0.00  0.00    +0.176 A 
ATOM     22  C   UNL     1      -2.964   3.458  24.524  0.00  0.00    +0.037 A 
ENDBRANCH  13  14
ENDBRANCH  12  13
TORSDOF 3
ENDMDL
MODEL 2
REMARK VINA RESULT:     -12.4      1.258      5.173
REMARK  Name = 
REMARK  3 active torsions:
REMARK  status: ('A' for Active; 'I' for Inactive)
REMARK    1  A    between atoms: C_7  and  C_9
REMARK    2  A    between atoms: N_12  and  C_13
REMARK    3  A    between atoms: C_13  and  C_14
REMARK                            x       y       z     vdW  Elec       q    Type
REMARK                         _______ _______ _______ _____ _____    ______ ____
ROOT
ATOM      9  C   UNL     1      -3.641   1.880  24.885  0.00  0.00    +0.094 C 
ATOM     10  C   UNL     1      -4.295   1.823  24.385  0.00  0.00    +0.028 C 
ATOM     11  C   UNL     1      -4.630   1.077  24.487  0.00  0.00    +0.073 C 
ATOM     12  N   UNL     1      -4.184   0.672  25.050  0.00  0.00    -0.268 NA
ATOM     23  C   UNL     1      -3.572   1.169  25.296  0.00  0.00    +0.082 C 
ENDROOT
BRANCH   9   7
ATOM      1  C   UNL     1      -0.510   4.852  24.820  0.00  0.00    +0.031 C 
ATOM      2  C   UNL     1      -1.229   4.479  24.980  0.00  0.00    -0.020 A 
ATOM      3  C   UNL     1      -1.372   3.720  24.690  0.00  0.00    +0.018 A 
ATOM      4  C   UNL     1      -2.089   3.347  24.850  0.00  0.00    +0.118 A 
ATOM      5  C   UNL     1      -2.665   3.733  25.300  0.00  0.00    +0.164 A 
ATOM      6  O   UNL     1      -3.315   3.230  25.367  0.00  0.00    -0.438 OA
ATOM      7  C   UNL     1      -3.143   2.534  24.960  0.00  0.00    +0.207 A 
ATOM      8  N   UNL     1      -2.386   2.606  24.640  0.00  0.00    -0.212 NA
ATOM     24  C   UNL     1      -2.521   4.491  25.589  0.00  0.00    +0.039 A 
ATOM     25  C   UNL     1      -1.802   4.865  25.429  0.00  0.00    -0.001 A 
ENDBRANCH   9   7
BRANCH  12  13
ATOM     13  C   UNL     1      -4.324  -0.095  25.320  0.00  0.00    +0.099 C 
BRANCH  13  14
ATOM     14  C   UNL     1      -3.926  -0.732  24.979  0.00  0.00    -0.003 A 
ATOM     15  C   UNL     1      -4.270  -1.146  24.353  0.00  0.00    +0.000 A 
ATOM     16  C   UNL     1      -3.873  -1.783  24.012  0.00  0.00    +0.040 A 
ATOM     17  C   UNL     1      -3.131  -2.006  24.296  0.00  0.00    +0.176 A 
ATOM     18  O   UNL     1      -2.611  -2.606  24.071  0.00  0.00    -0.435 OA
ATOM     19  C   UNL     1      -1.946  -2.563  24.557  0.00  0.00    +0.429 C 
ATOM     20  O   UNL     1      -2.055  -1.936  25.082  0.00  0.00    -0.435 OA
ATOM     21  C   UNL     1      -2.787  -1.592  24.921  0.00  0.00    +0.176 A 
ATOM     22  C   UNL     1      -3.185  -0.955  25.263  0.00  0.00    +0.037 A 
ENDBRANCH  13  14
ENDBRANCH  12  13
TORSDOF 3
ENDMDL
MODEL 3
REMARK VINA RESULT:     -12.2      1.825      2.379
REMARK  Name = 
REMARK  3 active torsions:
REMARK  status: ('A' for Active; 'I' for Inactive)
REMARK    1  A    between atoms: C_7  and  C_9
REMARK    2  A    between atoms: N_12  and  C_13
REMARK    3  A    between atoms: C_13  and  C_14
REMARK                            x       y       z     vdW  Elec       q    Type
REMARK                         _______ _______ _______ _____ _____    ______ ____
ROOT
ATOM      9  C   UNL     1      -1.484   0.510  24.782  0.00  0.00    +0.094 C 
ATOM     10  C   UNL     1      -0.810   0.651  24.327  0.00  0.00    +0.028 C 
ATOM     11  C   UNL     1      -0.406   1.288  24.661  0.00  0.00    +0.073 C 
ATOM     12  N   UNL     1      -0.830   1.541  25.321  0.00  0.00    -0.268 NA
ATOM     23  C   UNL     1      -1.497   1.060  25.396  0.00  0.00    +0.082 C 
ENDROOT
BRANCH   9   7
ATOM      1  C   UNL     1      -3.844  -3.080  24.356  0.00  0.00    +0.031 C 
ATOM      2  C   UNL     1      -3.622  -2.285  24.337  0.00  0.00    -0.020 A 
ATOM      3  C   UNL     1      -2.870  -2.062  24.593  0.00  0.00    +0.018 A 
ATOM      4  C   UNL     1      -2.648  -1.268  24.573  0.00  0.00    +0.118 A 
ATOM      5  C   UNL     1      -3.177  -0.697  24.298  0.00  0.00    +0.164 A 
ATOM      6  O   UNL     1      -2.805   0.038  24.343  0.00  0.00    -0.438 OA
ATOM      7  C   UNL     1      -2.047  -0.078  24.645  0.00  0.00    +0.207 A 
ATOM      8  N   UNL     1      -1.949  -0.884  24.788  0.00  0.00    -0.212 NA
ATOM     24  C   UNL     1      -3.928  -0.921  24.042  0.00  0.00    +0.039 A 
ATOM     25  C   UNL     1      -4.151  -1.716  24.062  0.00  0.00    -0.001 A 
ENDBRANCH   9   7
BRANCH  12  13
ATOM     13  C   UNL     1      -0.625   2.165  25.820  0.00  0.00    +0.099 C 
BRANCH  13  14
ATOM     14  C   UNL     1      -0.950   2.915  25.699  0.00  0.00    -0.003 A 
ATOM     15  C   UNL     1      -1.690   3.099  26.013  0.00  0.00    +0.000 A 
ATOM     16  C   UNL     1      -2.014   3.847  25.892  0.00  0.00    +0.040 A 
ATOM     17  C   UNL     1      -1.599   4.412  25.457  0.00  0.00    +0.176 A 
ATOM     18  O   UNL     1      -1.777   5.190  25.248  0.00  0.00    -0.435 OA
ATOM     19  C   UNL     1      -1.147   5.486  24.806  0.00  0.00    +0.429 C 
ATOM     20  O   UNL     1      -0.580   4.892  24.741  0.00  0.00    -0.435 OA
ATOM     21  C   UNL     1      -0.859   4.228  25.143  0.00  0.00    +0.176 A 
ATOM     22  C   UNL     1      -0.534   3.479  25.264  0.00  0.00    +0.037 A 
ENDBRANCH  13  14
ENDBRANCH  12  13
TORSDOF 3
ENDMDL
MODEL 4
REMARK VINA RESULT:     -11.8      2.046      5.755
REMARK  Name = 
REMARK  3 active torsions:
REMARK  status: ('A' for Active; 'I' for Inactive)
REMARK    1  A    between atoms: C_7  and  C_9
REMARK    2  A    between atoms: N_12  and  C_13
REMARK    3  A    between atoms: C_13  and  C_14
REMARK                            x       y       z     vdW  Elec       q    Type
REMARK                         _______ _______ _______ _____ _____    ______ ____
ROOT
ATOM      9  C   UNL     1      -1.053   1.254  25.006  0.00  0.00    +0.094 C 
ATOM     10  C   UNL     1      -0.610   0.872  24.424  0.00  0.00    +0.028 C 
ATOM     11  C   UNL     1      -0.626   0.063  24.580  0.00  0.00    +0.073 C 
ATOM     12  N   UNL     1      -1.080  -0.056  25.259  0.00  0.00    -0.268 NA
ATOM     23  C   UNL     1      -1.344   0.680  25.522  0.00  0.00    +0.082 C 
ENDROOT
BRANCH   9   7
ATOM      1  C   UNL     1      -0.999   5.570  24.920  0.00  0.00    +0.031 C 
ATOM      2  C   UNL     1      -1.248   4.795  25.058  0.00  0.00    -0.020 A 
ATOM      3  C   UNL     1      -0.773   4.162  24.824  0.00  0.00    +0.018 A 
ATOM      4  C   UNL     1      -1.022   3.388  24.961  0.00  0.00    +0.118 A 
ATOM      5  C   UNL     1      -1.745   3.246  25.334  0.00  0.00    +0.164 A 
ATOM      6  O   UNL     1      -1.844   2.430  25.396  0.00  0.00    -0.438 OA
ATOM      7  C   UNL     1      -1.183   2.067  25.062  0.00  0.00    +0.207 A 
ATOM      8  N   UNL     1      -0.675   2.658  24.794  0.00  0.00    -0.212 NA
ATOM     24  C   UNL     1      -2.218   3.880  25.568  0.00  0.00    +0.039 A 
ATOM     25  C   UNL     1      -1.969   4.655  25.430  0.00  0.00    -0.001 A 
ENDBRANCH   9   7
BRANCH  12  13
ATOM     13  C   UNL     1      -1.241  -0.784  25.613  0.00  0.00    +0.099 C 
BRANCH  13  14
ATOM     14  C   UNL     1      -1.938  -1.187  25.429  0.00  0.00    -0.003 A 
ATOM     15  C   UNL     1      -2.628  -1.033  25.854  0.00  0.00    +0.000 A 
ATOM     16  C   UNL     1      -3.324  -1.435  25.670  0.00  0.00    +0.040 A 
ATOM     17  C   UNL     1      -3.330  -1.993  25.062  0.00  0.00    +0.176 A 
ATOM     18  O   UNL     1      -3.928  -2.472  24.758  0.00  0.00    -0.435 OA
ATOM     19  C   UNL     1      -3.609  -2.922  24.146  0.00  0.00    +0.429 C 
ATOM     20  O   UNL     1      -2.812  -2.721  24.071  0.00  0.00    -0.435 OA
ATOM     21  C   UNL     1      -2.640  -2.147  24.637  0.00  0.00    +0.176 A 
ATOM     22  C   UNL     1      -1.943  -1.744  24.821  0.00  0.00    +0.037 A 
ENDBRANCH  13  14
ENDBRANCH  12  13
TORSDOF 3
ENDMDL
MODEL 5
REMARK VINA RESULT:     -11.1      1.885      2.436
REMARK  Name = 
REMARK  3 active torsions:
REMARK  status: ('A' for Active; 'I' for Inactive)
REMARK    1  A    between atoms: C_7  and  C_9
REMARK    2  A    between atoms: N_12  and  C_13
REMARK    3  A    between atoms: C_13  and  C_14
REMARK                            x       y       z     vdW  Elec       q    Type
REMARK                         _______ _______ _______ _____ _____    ______ ____
ROOT
ATOM      9  C   UNL     1      -1.576   0.719  25.007  0.00  0.00    +0.094 C 
ATOM     10  C   UNL     1      -0.922   0.960  25.448  0.00  0.00    +0.028 C 
ATOM     11  C   UNL     1      -0.881   1.782  25.416  0.00  0.00    +0.073 C 
ATOM     12  N   UNL     1      -1.509   2.051  24.954  0.00  0.00    -0.268 NA
ATOM     23  C   UNL     1      -1.939   1.394  24.701  0.00  0.00    +0.082 C 
ENDROOT
BRANCH   9   7
ATOM      1  C   UNL     1      -3.633  -3.040  24.480  0.00  0.00    +0.031 C 
ATOM      2  C   UNL     1      -3.025  -2.486  24.546  0.00  0.00    -0.020 A 
ATOM      3  C   UNL     1      -3.205  -1.692  24.680  0.00  0.00    +0.018 A 
ATOM      4  C   UNL     1      -2.598  -1.138  24.746  0.00  0.00    +0.118 A 
ATOM      5  C   UNL     1      -1.810  -1.377  24.680  0.00  0.00    +0.164 A 
ATOM      6  O   UNL     1      -1.333  -0.711  24.769  0.00  0.00    -0.438 OA
ATOM      7  C   UNL     1      -1.824  -0.060  24.891  0.00  0.00    +0.207 A 
ATOM      8  N   UNL     1      -2.605  -0.323  24.877  0.00  0.00    -0.212 NA
ATOM     24  C   UNL     1      -1.632  -2.171  24.547  0.00  0.00    +0.039 A 
ATOM     25  C   UNL     1      -2.240  -2.726  24.480  0.00  0.00    -0.001 A 
ENDBRANCH   9   7
BRANCH  12  13
ATOM     13  C   UNL     1      -1.678   2.839  24.776  0.00  0.00    +0.099 C 
BRANCH  13  14
ATOM     14  C   UNL     1      -2.341   3.203  25.105  0.00  0.00    -0.003 A 
ATOM     15  C   UNL     1      -2.267   3.650  25.795  0.00  0.00    +0.000 A 
ATOM     16  C   UNL     1      -2.930   4.014  26.123  0.00  0.00    +0.040 A 
ATOM     17  C   UNL     1      -3.667   3.932  25.763  0.00  0.00    +0.176 A 
ATOM     18  O   UNL     1      -4.413   4.224  25.958  0.00  0.00    -0.435 OA
ATOM     19  C   UNL     1      -4.948   3.959  25.390  0.00  0.00    +0.429 C 
ATOM     20  O   UNL     1      -4.533   3.502  24.843  0.00  0.00    -0.435 OA
ATOM     21  C   UNL     1      -3.742   3.486  25.073  0.00  0.00    +0.176 A 
ATOM     22  C   UNL     1      -3.078   3.121  24.744  0.00  0.00    +0.037 A 
ENDBRANCH  13  14
ENDBRANCH  12  13
TORSDOF 3
ENDMDL
MODEL 6
REMARK VINA RESULT:     -10.7      1.786      4.934
REMARK  Name = 
REMARK  3 active torsions:
REMARK  status: ('A' for Active; 'I' for Inactive)
REMARK    1  A    between atoms: C_7  and  C_9
REMARK    2  A    between atoms: N_12  and  C_13
REMARK    3  A    between atoms: C_13  and  C_14
REMARK                            x       y       z     vdW  Elec       q    Type
REMARK                         _______ _______ _______ _____ _____    ______ ____
ROOT
ATOM      9  C   UNL     1      -4.393   0.339  24.803  0.00  0.00    +0.094 C 
ATOM     10  C   UNL     1      -4.659  -0.099  24.157  0.00  0.00    +0.028 C 
ATOM     11  C   UNL     1      -4.412  -0.879  24.258  0.00  0.00    +0.073 C 
ATOM     12  N   UNL     1      -3.993  -0.924  24.967  0.00  0.00    -0.268 NA
ATOM     23  C   UNL     1      -3.981  -0.170  25.304  0.00  0.00    +0.082 C 
ENDROOT
BRANCH   9   7
ATOM      1  C   UNL     1      -5.807   4.327  25.661  0.00  0.00    +0.031 C 
ATOM      2  C   UNL     1      -5.310   3.706  25.441  0.00  0.00    -0.020 A 
ATOM      3  C   UNL     1      -5.593   2.930  25.449  0.00  0.00    +0.018 A 
ATOM      4  C   UNL     1      -5.097   2.310  25.229  0.00  0.00    +0.118 A 
ATOM      5  C   UNL     1      -4.318   2.463  25.001  0.00  0.00    +0.164 A 
ATOM      6  O   UNL     1      -3.960   1.744  24.814  0.00  0.00    -0.438 OA
ATOM      7  C   UNL     1      -4.517   1.146  24.926  0.00  0.00    +0.207 A 
ATOM      8  N   UNL     1      -5.219   1.495  25.182  0.00  0.00    -0.212 NA
ATOM     24  C   UNL     1      -4.036   3.238  24.994  0.00  0.00    +0.039 A 
ATOM     25  C   UNL     1      -4.533   3.860  25.215  0.00  0.00    -0.001 A 
ENDBRANCH   9   7
BRANCH  12  13
ATOM     13  C   UNL     1      -3.646  -1.602  25.285  0.00  0.00    +0.099 C 
BRANCH  13  14
ATOM     14  C   UNL     1      -2.864  -1.790  25.101  0.00  0.00    -0.003 A 
ATOM     15  C   UNL     1      -2.700  -2.376  24.544  0.00  0.00    +0.000 A 
ATOM     16  C   UNL     1      -1.918  -2.564  24.361  0.00  0.00    +0.040 A 
ATOM     17  C   UNL     1      -1.299  -2.166  24.734  0.00  0.00    +0.176 A 
ATOM     18  O   UNL     1      -0.481  -2.231  24.668  0.00  0.00    -0.435 OA
ATOM     19  C   UNL     1      -0.138  -1.686  25.183  0.00  0.00    +0.429 C 
ATOM     20  O   UNL     1      -0.745  -1.284  25.569  0.00  0.00    -0.435 OA
ATOM     21  C   UNL     1      -1.463  -1.580  25.292  0.00  0.00    +0.176 A 
ATOM     22  C   UNL     1      -2.246  -1.392  25.475  0.00  0.00    +0.037 A 
ENDBRANCH  13  14
ENDBRANCH  12  13
TORSDOF 3
ENDMDL
MODEL 7
REMARK VINA RESULT:     -10.2      2.522      4.388
REMARK  Name = 
REMARK  3 active torsions:
REMARK  status: ('A' for Active; 'I' for Inactive)
REMARK    1  A    between atoms: C_7  and  C_9
REMARK    2  A    between atoms: N_12  and  C_13
REMARK    3  A    between atoms: C_13  and  C_14
REMARK                            x       y       z     vdW  Elec       q    Type
REMARK                         _______ _______ _______ _____ _____    ______ ____
ROOT
ATOM      9  C   UNL     1      -2.358   3.128  25.297  0.00  0.00    +0.094 C 
ATOM     10  C   UNL     1      -1.958   3.833  25.145  0.00  0.00    +0.028 C 
ATOM     11  C   UNL     1      -1.149   3.683  25.193  0.00  0.00    +0.073 C 
ATOM     12  N   UNL     1      -1.048   2.885  25.374  0.00  0.00    -0.268 NA
ATOM     23  C   UNL     1      -1.796   2.541  25.438  0.00  0.00    +0.082 C 
ENDROOT
BRANCH   9   7
ATOM      1  C   UNL     1      -6.480   1.894  24.939  0.00  0.00    +0.031 C 
ATOM      2  C   UNL     1      -5.813   2.339  25.133  0.00  0.00    -0.020 A 
ATOM      3  C   UNL     1      -5.062   2.069  24.923  0.00  0.00    +0.018 A 
ATOM      4  C   UNL     1      -4.395   2.513  25.117  0.00  0.00    +0.118 A 
ATOM      5  C   UNL     1      -4.479   3.229  25.521  0.00  0.00    +0.164 A 
ATOM      6  O   UNL     1      -3.726   3.546  25.637  0.00  0.00    -0.438 OA
ATOM      7  C   UNL     1      -3.177   3.027  25.305  0.00  0.00    +0.207 A 
ATOM      8  N   UNL     1      -3.590   2.389  24.985  0.00  0.00    -0.212 NA
ATOM     24  C   UNL     1      -5.229   3.499  25.729  0.00  0.00    +0.039 A 
ATOM     25  C   UNL     1      -5.897   3.054  25.535  0.00  0.00    -0.001 A 
ENDBRANCH   9   7
BRANCH  12  13
ATOM     13  C   UNL     1      -0.326   2.497  25.473  0.00  0.00    +0.099 C 
BRANCH  13  14
ATOM     14  C   UNL     1      -0.093   1.915  24.937  0.00  0.00    -0.003 A 
ATOM     15  C   UNL     1       0.391   2.112  24.299  0.00  0.00    +0.000 A 
ATOM     16  C   UNL     1       0.624   1.530  23.763  0.00  0.00    +0.040 A 
ATOM     17  C   UNL     1       0.373   0.751  23.864  0.00  0.00    +0.176 A 
ATOM     18  O   UNL     1       0.512   0.064  23.430  0.00  0.00    -0.435 OA
ATOM     19  C   UNL     1       0.114  -0.557  23.798  0.00  0.00    +0.429 C 
ATOM     20  O   UNL     1      -0.271  -0.254  24.461  0.00  0.00    -0.435 OA
ATOM     21  C   UNL     1      -0.111   0.554  24.502  0.00  0.00    +0.176 A 
ATOM     22  C   UNL     1      -0.345   1.136  25.039  0.00  0.00    +0.037 A 
ENDBRANCH  13  14
ENDBRANCH  12  13
TORSDOF 3
ENDMDL
