MODEL 1
REMARK VINA RESULT:     -14.4      0.000      0.000
REMARK  Name = 
REMARK  5 active torsions:
REMARK  status: ('A' for Active; 'I' for Inactive)
REMARK    1  A    between atoms: S_2  and  N_4
REMARK    2  A    between atoms: S_2  and  C_24
REMARK    3  A    between atoms: N_4  and  C_5
REMARK    4  A    between atoms: C_9  and  N_13
REMARK    5  A    between atoms: C_17  and  C_18
REMARK                            x       y       z     vdW  Elec       q    Type
REMARK                         _______ _______ _______ _____ _____    ______ ____
ROOT
ATOM      5  C   UNL     1      -0.679   1.028  25.047  0.00  0.00    +0.157 C 
ATOM      6  C   UNL     1      -0.663   1.241  24.250  0.00  0.00    +0.164 C 
ATOM      7  O   UNL     1      -0.724   2.063  24.205  0.00  0.00    -0.350 OA
ATOM      8  C   UNL     1      -0.778   2.358  24.973  0.00  0.00    +0.169 C 
ATOM      9  C   UNL     1      -0.849   3.047  25.421  0.00  0.00    +0.167 C 
ATOM     10  C   UNL     1      -0.865   2.834  26.217  0.00  0.00    +0.169 C 
ATOM     11  O   UNL     1      -0.804   2.012  26.263  0.00  0.00    -0.350 OA
ATOM     12  C   UNL     1      -0.750   1.718  25.495  0.00  0.00    +0.164 C 
ENDROOT
BRANCH   9  13
ATOM     13  N   UNL     1      -0.896   3.815  25.123  0.00  0.00    -0.210 N 
ATOM     14  N   UNL     1      -0.271   4.250  24.805  0.00  0.00    -0.043 NA
ATOM     15  N   UNL     1      -0.563   4.988  24.577  0.00  0.00    -0.023 NA
ATOM     16  N   UNL     1      -1.369   5.007  24.755  0.00  0.00    -0.108 NA
ATOM     17  C   UNL     1      -1.574   4.284  25.092  0.00  0.00    +0.184 A 
BRANCH  17  18
ATOM     18  C   UNL     1      -2.326   4.065  25.353  0.00  0.00    +0.037 A 
ATOM     19  C   UNL     1      -2.868   3.739  24.823  0.00  0.00    +0.003 A 
ATOM     20  C   UNL     1      -3.619   3.521  25.084  0.00  0.00    +0.000 A 
ATOM     21  C   UNL     1      -3.829   3.628  25.875  0.00  0.00    +0.000 A 
ATOM     22  C   UNL     1      -3.287   3.954  26.405  0.00  0.00    +0.000 A 
ATOM     23  C   UNL     1      -2.535   4.172  26.144  0.00  0.00    +0.003 A 
ENDBRANCH  17  18
ENDBRANCH   9  13
BRANCH   5   4
ATOM      4  N   UNL     1      -0.632   0.261  25.344  0.00  0.00    -0.074 NA
BRANCH   4   2
ATOM      1  O   UNL     1      -0.790  -0.400  24.396  0.00  0.00    -0.152 OA
ATOM      2  S   UNL     1      -1.186  -0.306  25.114  0.00  0.00    +0.077 S 
ATOM      3  O   UNL     1      -1.581  -0.213  25.832  0.00  0.00    -0.152 OA
BRANCH   2  24
ATOM     24  C   UNL     1      -1.739  -0.873  24.883  0.00  0.00    +0.124 A 
ATOM     25  C   UNL     1      -2.506  -0.645  24.687  0.00  0.00    +0.020 A 
ATOM     26  C   UNL     1      -3.059  -1.212  24.456  0.00  0.00    +0.001 A 
ATOM     27  C   UNL     1      -3.827  -0.984  24.259  0.00  0.00    +0.000 A 
ATOM     28  C   UNL     1      -4.380  -1.551  24.029  0.00  0.00    +0.000 A 
ATOM     29  C   UNL     1      -4.164  -2.348  23.995  0.00  0.00    +0.000 A 
ATOM     30  C   UNL     1      -3.397  -2.576  24.192  0.00  0.00    +0.000 A 
ATOM     31  C   UNL     1      -2.843  -2.009  24.423  0.00  0.00    +0.000 A 
ATOM     32  C   UNL     1      -2.076  -2.237  24.620  0.00  0.00    +0.001 A 
ATOM     33  C   UNL     1      -1.524  -1.670  24.850  0.00  0.00    +0.020 A 
ENDBRANCH   2  24
ENDBRANCH   4   2
ENDBRANCH   5   4
TORSDOF 5
ENDMDL
MODEL 2
REMARK VINA RESULT:     -13.7      1.605      2.419
REMARK  Name = 
REMARK  5 active torsions:
REMARK  status: ('A' for Active; 'I' for Inactive)
REMARK    1  A    between atoms: S_2  and  N_4
REMARK    2  A    between atoms: S_2  and  C_24
REMARK    3  A    between atoms: N_4  and  C_5
REMARK    4  A    between atoms: C_9  and  N_13
REMARK    5  A    between atoms: C_17  and  C_18
REMARK                            x       y       z     vdW  Elec       q    Type
REMARK                         _______ _______ _______ _____ _____    ______ ____
ROOT
ATOM      5  C   UNL     1      -3.829   2.221  24.482  0.00  0.00    +0.157 C 
ATOM      6  C   UNL     1      -3.515   2.413  23.743  0.00  0.00    +0.164 C 
ATOM      7  O   UNL     1      -2.950   3.004  23.852  0.00  0.00    -0.350 OA
ATOM      8  C   UNL     1      -2.916   3.179  24.658  0.00  0.00    +0.169 C 
ATOM      9  C   UNL     1      -2.546   3.652  25.223  0.00  0.00    +0.167 C 
ATOM     10  C   UNL     1      -2.860   3.461  25.961  0.00  0.00    +0.169 C 
ATOM     11  O   UNL     1      -3.425   2.868  25.852  0.00  0.00    -0.350 OA
ATOM     12  C   UNL     1      -3.459   2.695  25.047  0.00  0.00    +0.164 C 
ENDROOT
BRANCH   9  13
ATOM     13  N   UNL     1      -1.964   4.218  25.077  0.00  0.00    -0.210 N 
ATOM     14  N   UNL     1      -2.094   4.991  24.817  0.00  0.00    -0.043 NA
ATOM     15  N   UNL     1      -1.361   5.362  24.744  0.00  0.00    -0.023 NA
ATOM     16  N   UNL     1      -0.778   4.818  24.957  0.00  0.00    -0.108 NA
ATOM     17  C   UNL     1      -1.150   4.112  25.163  0.00  0.00    +0.184 A 
BRANCH  17  18
ATOM     18  C   UNL     1      -0.776   3.420  25.411  0.00  0.00    +0.037 A 
ATOM     19  C   UNL     1      -0.438   2.912  24.856  0.00  0.00    +0.003 A 
ATOM     20  C   UNL     1      -0.064   2.220  25.104  0.00  0.00    +0.000 A 
ATOM     21  C   UNL     1      -0.027   2.036  25.908  0.00  0.00    +0.000 A 
ATOM     22  C   UNL     1      -0.365   2.544  26.463  0.00  0.00    +0.000 A 
ATOM     23  C   UNL     1      -0.739   3.236  26.215  0.00  0.00    +0.003 A 
ENDBRANCH  17  18
ENDBRANCH   9  13
BRANCH   5   4
ATOM      4  N   UNL     1      -4.410   1.656  24.628  0.00  0.00    -0.074 NA
BRANCH   4   2
ATOM      1  O   UNL     1      -3.841   0.887  23.960  0.00  0.00    -0.152 OA
ATOM      2  S   UNL     1      -4.204   0.860  24.700  0.00  0.00    +0.077 S 
ATOM      3  O   UNL     1      -4.568   0.832  25.441  0.00  0.00    -0.152 OA
BRANCH   2  24
ATOM     24  C   UNL     1      -3.998   0.064  24.772  0.00  0.00    +0.124 A 
ATOM     25  C   UNL     1      -4.272  -0.485  24.221  0.00  0.00    +0.020 A 
ATOM     26  C   UNL     1      -4.066  -1.280  24.293  0.00  0.00    +0.001 A 
ATOM     27  C   UNL     1      -4.340  -1.830  23.742  0.00  0.00    +0.000 A 
ATOM     28  C   UNL     1      -4.134  -2.624  23.814  0.00  0.00    +0.000 A 
ATOM     29  C   UNL     1      -3.653  -2.871  24.439  0.00  0.00    +0.000 A 
ATOM     30  C   UNL     1      -3.379  -2.322  24.990  0.00  0.00    +0.000 A 
ATOM     31  C   UNL     1      -3.585  -1.527  24.918  0.00  0.00    +0.000 A 
ATOM     32  C   UNL     1      -3.312  -0.978  25.469  0.00  0.00    +0.001 A 
ATOM     33  C   UNL     1      -3.518  -0.183  25.397  0.00  0.00    +0.020 A 
ENDBRANCH   2  24
ENDBRANCH   4   2
ENDBRANCH   5   4
TORSDOF 5
ENDMDL
MODEL 3
REMARK VINA RESULT:     -13.2      1.511      4.925
REMARK  Name = 
REMARK  5 active torsions:
REMARK  status: ('A' for Active; 'I' for Inactive)
REMARK    1  A    between atoms: S_2  and  N_4
REMARK    2  A    between atoms: S_2  and  C_24
REMARK    3  A    between atoms: N_4  and  C_5
REMARK    4  A    between atoms: C_9  and  N_13
REMARK    5  A    between atoms: C_17  and  C_18
REMARK                            x       y       z     vdW  Elec       q    Type
REMARK                         _______ _______ _______ _____ _____    ______ ____
ROOT
ATOM      5  C   UNL     1      -0.338   0.679  24.818  0.00  0.00    +0.157 C 
ATOM      6  C   UNL     1      -0.381   0.516  24.010  0.00  0.00    +0.164 C 
ATOM      7  O   UNL     1      -0.843  -0.160  23.911  0.00  0.00    -0.350 OA
ATOM      8  C   UNL     1      -1.086  -0.415  24.656  0.00  0.00    +0.169 C 
ATOM      9  C   UNL     1      -1.521  -0.990  25.056  0.00  0.00    +0.167 C 
ATOM     10  C   UNL     1      -1.478  -0.828  25.863  0.00  0.00    +0.169 C 
ATOM     11  O   UNL     1      -1.016  -0.151  25.963  0.00  0.00    -0.350 OA
ATOM     12  C   UNL     1      -0.774   0.103  25.218  0.00  0.00    +0.164 C 
ENDROOT
BRANCH   9  13
ATOM     13  N   UNL     1      -1.928  -1.619  24.710  0.00  0.00    -0.210 N 
ATOM     14  N   UNL     1      -1.591  -2.318  24.428  0.00  0.00    -0.043 NA
ATOM     15  N   UNL     1      -2.197  -2.791  24.128  0.00  0.00    -0.023 NA
ATOM     16  N   UNL     1      -2.908  -2.383  24.224  0.00  0.00    -0.108 NA
ATOM     17  C   UNL     1      -2.742  -1.660  24.583  0.00  0.00    +0.184 A 
BRANCH  17  18
ATOM     18  C   UNL     1      -3.293  -1.078  24.781  0.00  0.00    +0.037 A 
ATOM     19  C   UNL     1      -3.563  -0.553  24.205  0.00  0.00    +0.003 A 
ATOM     20  C   UNL     1      -4.113   0.029  24.403  0.00  0.00    +0.000 A 
ATOM     21  C   UNL     1      -4.393   0.086  25.177  0.00  0.00    +0.000 A 
ATOM     22  C   UNL     1      -4.123  -0.439  25.753  0.00  0.00    +0.000 A 
ATOM     23  C   UNL     1      -3.573  -1.021  25.555  0.00  0.00    +0.003 A 
ENDBRANCH  17  18
ENDBRANCH   9  13
BRANCH   5   4
ATOM      4  N   UNL     1       0.069   1.307  25.164  0.00  0.00    -0.074 NA
BRANCH   4   2
ATOM      1  O   UNL     1      -0.180   2.080  24.327  0.00  0.00    -0.152 OA
ATOM      2  S   UNL     1      -0.253   2.067  25.149  0.00  0.00    +0.077 S 
ATOM      3  O   UNL     1      -0.326   2.053  25.971  0.00  0.00    -0.152 OA
BRANCH   2  24
ATOM     24  C   UNL     1      -0.574   2.826  25.133  0.00  0.00    +0.124 A 
ATOM     25  C   UNL     1      -1.321   2.966  25.453  0.00  0.00    +0.020 A 
ATOM     26  C   UNL     1      -1.642   3.725  25.437  0.00  0.00    +0.001 A 
ATOM     27  C   UNL     1      -2.389   3.865  25.757  0.00  0.00    +0.000 A 
ATOM     28  C   UNL     1      -2.710   4.624  25.741  0.00  0.00    +0.000 A 
ATOM     29  C   UNL     1      -2.283   5.245  25.404  0.00  0.00    +0.000 A 
ATOM     30  C   UNL     1      -1.536   5.106  25.084  0.00  0.00    +0.000 A 
ATOM     31  C   UNL     1      -1.215   4.346  25.100  0.00  0.00    +0.000 A 
ATOM     32  C   UNL     1      -0.468   4.207  24.780  0.00  0.00    +0.001 A 
ATOM     33  C   UNL     1      -0.147   3.448  24.796  0.00  0.00    +0.020 A 
ENDBRANCH   2  24
ENDBRANCH   4   2
ENDBRANCH   5   4
TORSDOF 5
ENDMDL
MODEL 4
REMARK VINA RESULT:     -12.5      2.344      5.583
REMARK  Name = 
REMARK  5 active torsions:
REMARK  status: ('A' for Active; 'I' for Inactive)
REMARK    1  A    between atoms: S_2  and  N_4
REMARK    2  A    between atoms: S_2  and  C_24
REMARK    3  A    between atoms: N_4  and  C_5
REMARK    4  A    between atoms: C_9  and  N_13
REMARK    5  A    between atoms: C_17  and  C_18
REMARK                            x       y       z     vdW  Elec       q    Type
REMARK                         _______ _______ _______ _____ _____    ______ ____
ROOT
ATOM      5  C   UNL     1      -4.318   1.059  24.571  0.00  0.00    +0.157 C 
ATOM      6  C   UNL     1      -4.556   0.790  25.314  0.00  0.00    +0.164 C 
ATOM      7  O   UNL     1      -4.330  -0.001  25.383  0.00  0.00    -0.350 OA
ATOM      8  C   UNL     1      -3.953  -0.221  24.683  0.00  0.00    +0.169 C 
ATOM      9  C   UNL     1      -3.581  -0.845  24.292  0.00  0.00    +0.167 C 
ATOM     10  C   UNL     1      -3.343  -0.576  23.550  0.00  0.00    +0.169 C 
ATOM     11  O   UNL     1      -3.569   0.215  23.481  0.00  0.00    -0.350 OA
ATOM     12  C   UNL     1      -3.946   0.434  24.180  0.00  0.00    +0.164 C 
ENDROOT
BRANCH   9  13
ATOM     13  N   UNL     1      -3.466  -1.605  24.592  0.00  0.00    -0.210 N 
ATOM     14  N   UNL     1      -4.041  -2.194  24.652  0.00  0.00    -0.043 NA
ATOM     15  N   UNL     1      -3.687  -2.863  24.981  0.00  0.00    -0.023 NA
ATOM     16  N   UNL     1      -2.894  -2.687  25.124  0.00  0.00    -0.108 NA
ATOM     17  C   UNL     1      -2.757  -1.910  24.884  0.00  0.00    +0.184 A 
BRANCH  17  18
ATOM     18  C   UNL     1      -2.039  -1.507  24.928  0.00  0.00    +0.037 A 
ATOM     19  C   UNL     1      -1.838  -1.096  25.615  0.00  0.00    +0.003 A 
ATOM     20  C   UNL     1      -1.119  -0.694  25.659  0.00  0.00    +0.000 A 
ATOM     21  C   UNL     1      -0.601  -0.702  25.017  0.00  0.00    +0.000 A 
ATOM     22  C   UNL     1      -0.802  -1.113  24.330  0.00  0.00    +0.000 A 
ATOM     23  C   UNL     1      -1.521  -1.516  24.286  0.00  0.00    +0.003 A 
ENDBRANCH  17  18
ENDBRANCH   9  13
BRANCH   5   4
ATOM      4  N   UNL     1      -4.433   1.818  24.271  0.00  0.00    -0.074 NA
BRANCH   4   2
ATOM      1  O   UNL     1      -3.663   2.496  23.716  0.00  0.00    -0.152 OA
ATOM      2  S   UNL     1      -3.928   2.431  24.495  0.00  0.00    +0.077 S 
ATOM      3  O   UNL     1      -4.193   2.366  25.273  0.00  0.00    -0.152 OA
BRANCH   2  24
ATOM     24  C   UNL     1      -3.423   3.044  24.718  0.00  0.00    +0.124 A 
ATOM     25  C   UNL     1      -2.609   2.971  24.606  0.00  0.00    +0.020 A 
ATOM     26  C   UNL     1      -2.105   3.584  24.829  0.00  0.00    +0.001 A 
ATOM     27  C   UNL     1      -1.291   3.511  24.717  0.00  0.00    +0.000 A 
ATOM     28  C   UNL     1      -0.787   4.124  24.940  0.00  0.00    +0.000 A 
ATOM     29  C   UNL     1      -1.097   4.812  25.276  0.00  0.00    +0.000 A 
ATOM     30  C   UNL     1      -1.910   4.885  25.389  0.00  0.00    +0.000 A 
ATOM     31  C   UNL     1      -2.415   4.272  25.165  0.00  0.00    +0.000 A 
ATOM     32  C   UNL     1      -3.229   4.345  25.278  0.00  0.00    +0.001 A 
ATOM     33  C   UNL     1      -3.733   3.732  25.054  0.00  0.00    +0.020 A 
ENDBRANCH   2  24
ENDBRANCH   4   2
ENDBRANCH   5   4
TORSDOF 5
ENDMDL
MODEL 5
REMARK VINA RESULT:     -12.2      1.460      4.811
REMARK  Name = 
REMARK  5 active torsions:
REMARK  status: ('A' for Active; 'I' for Inactive)
REMARK    1  A    between atoms: S_2  and  N_4
REMARK    2  A    between atoms: S_2  and  C_24
REMARK    3  A    between atoms: N_4  and  C_5
REMARK    4  A    between atoms: C_9  and  N_13
REMARK    5  A    between atoms: C_17  and  C_18
REMARK                            x       y       z     vdW  Elec       q    Type
REMARK                         _______ _______ _______ _____ _____    ______ ____
ROOT
ATOM      5  C   UNL     1      -1.341   1.634  24.839  0.00  0.00    +0.157 C 
ATOM      6  C   UNL     1      -1.046   1.499  25.598  0.00  0.00    +0.164 C 
ATOM      7  O   UNL     1      -0.874   0.695  25.665  0.00  0.00    -0.350 OA
ATOM      8  C   UNL     1      -1.062   0.333  24.948  0.00  0.00    +0.169 C 
ATOM      9  C   UNL     1      -1.072  -0.387  24.546  0.00  0.00    +0.167 C 
ATOM     10  C   UNL     1      -1.366  -0.252  23.787  0.00  0.00    +0.169 C 
ATOM     11  O   UNL     1      -1.539   0.552  23.720  0.00  0.00    -0.350 OA
ATOM     12  C   UNL     1      -1.351   0.913  24.437  0.00  0.00    +0.164 C 
ENDROOT
BRANCH   9  13
ATOM     13  N   UNL     1      -0.830  -1.115  24.849  0.00  0.00    -0.210 N 
ATOM     14  N   UNL     1      -0.052  -1.341  25.004  0.00  0.00    -0.043 NA
ATOM     15  N   UNL     1      -0.063  -2.111  25.301  0.00  0.00    -0.023 NA
ATOM     16  N   UNL     1      -0.850  -2.360  25.330  0.00  0.00    -0.108 NA
ATOM     17  C   UNL     1      -1.323  -1.746  25.051  0.00  0.00    +0.184 A 
BRANCH  17  18
ATOM     18  C   UNL     1      -2.145  -1.758  24.984  0.00  0.00    +0.037 A 
ATOM     19  C   UNL     1      -2.499  -2.029  24.289  0.00  0.00    +0.003 A 
ATOM     20  C   UNL     1      -3.321  -2.041  24.223  0.00  0.00    +0.000 A 
ATOM     21  C   UNL     1      -3.790  -1.782  24.851  0.00  0.00    +0.000 A 
ATOM     22  C   UNL     1      -3.436  -1.511  25.546  0.00  0.00    +0.000 A 
ATOM     23  C   UNL     1      -2.614  -1.499  25.612  0.00  0.00    +0.003 A 
ENDBRANCH  17  18
ENDBRANCH   9  13
BRANCH   5   4
ATOM      4  N   UNL     1      -1.583   2.362  24.536  0.00  0.00    -0.074 NA
BRANCH   4   2
ATOM      1  O   UNL     1      -2.047   2.785  25.519  0.00  0.00    -0.152 OA
ATOM      2  S   UNL     1      -2.316   2.674  24.747  0.00  0.00    +0.077 S 
ATOM      3  O   UNL     1      -2.586   2.564  23.975  0.00  0.00    -0.152 OA
BRANCH   2  24
ATOM     24  C   UNL     1      -3.050   2.987  24.959  0.00  0.00    +0.124 A 
ATOM     25  C   UNL     1      -3.714   2.499  24.989  0.00  0.00    +0.020 A 
ATOM     26  C   UNL     1      -4.447   2.812  25.200  0.00  0.00    +0.001 A 
ATOM     27  C   UNL     1      -5.111   2.324  25.230  0.00  0.00    +0.000 A 
ATOM     28  C   UNL     1      -5.844   2.637  25.442  0.00  0.00    +0.000 A 
ATOM     29  C   UNL     1      -5.913   3.440  25.623  0.00  0.00    +0.000 A 
ATOM     30  C   UNL     1      -5.250   3.928  25.593  0.00  0.00    +0.000 A 
ATOM     31  C   UNL     1      -4.516   3.615  25.382  0.00  0.00    +0.000 A 
ATOM     32  C   UNL     1      -3.852   4.103  25.351  0.00  0.00    +0.001 A 
ATOM     33  C   UNL     1      -3.119   3.790  25.140  0.00  0.00    +0.020 A 
ENDBRANCH   2  24
ENDBRANCH   4   2
ENDBRANCH   5   4
TORSDOF 5
ENDMDL
