MODEL 1
REMARK VINA RESULT:      -9.2      0.000      0.000
REMARK  Name = 
REMARK  10 active torsions:
REMARK  status: ('A' for Active; 'I' for Inactive)
REMARK    1  A    between atoms: C_2  and  C_3
REMARK    2  A    between atoms: C_3  and  C_4
REMARK    3  A    between atoms: C_4  and  C_5
REMARK    4  A    between atoms: C_7  and  C_8
REMARK    5  A    between atoms: C_8  and  C_9
REMARK    6  A    between atoms: C_14  and  C_15
REMARK    7  A    between atoms: C_15  and  C_16
REMARK    8  A    between atoms: N_18  and  C_19
REMARK    9  A    between atoms: C_19  and  C_20
REMARK   10  A    between atoms: C_20  and  N_21
REMARK                            x       y       z     vdW  Elec       q    Type
REMARK                         _______ _______ _______ _____ _____    ______ ____
ROOT
ATOM      9  C   UNL     1      -4.416   3.069  24.951  0.00  0.00    +0.024 C 
ATOM     10  C   UNL     1      -4.688   3.643  25.478  0.00  0.00    +0.089 C 
ATOM     11  N   UNL     1      -5.311   3.469  25.991  0.00  0.00    -0.218 NA
ATOM     12  C   UNL     1      -5.662   2.721  25.976  0.00  0.00    +0.089 C 
ATOM     13  C   UNL     1      -5.388   2.149  25.448  0.00  0.00    +0.019 C 
ATOM     14  C   UNL     1      -4.766   2.323  24.936  0.00  0.00    +0.012 C 
ENDROOT
BRANCH   9   8
ATOM      8  C   UNL     1      -3.792   3.243  24.438  0.00  0.00    +0.051 C 
BRANCH   8   7
ATOM      5  C   UNL     1      -1.864   3.844  25.131  0.00  0.00    +0.154 A 
ATOM      6  C   UNL     1      -2.377   3.269  24.837  0.00  0.00    +0.054 A 
ATOM      7  C   UNL     1      -3.116   3.619  24.725  0.00  0.00    +0.100 A 
ATOM     25  N   UNL     1      -3.060   4.410  24.949  0.00  0.00    -0.082 NA
ATOM     26  O   UNL     1      -2.287   4.550  25.201  0.00  0.00    -0.358 OA
BRANCH   5   4
ATOM      4  C   UNL     1      -1.070   3.734  25.322  0.00  0.00    +0.067 C 
BRANCH   4   3
ATOM      3  C   UNL     1      -0.841   3.084  25.777  0.00  0.00    +0.008 C 
BRANCH   3   2
ATOM      1  C   UNL     1       0.191   2.366  26.457  0.00  0.00    +0.000 C 
ATOM      2  C   UNL     1      -0.039   2.927  25.896  0.00  0.00    +0.000 C 
ENDBRANCH   3   2
ENDBRANCH   4   3
ENDBRANCH   5   4
ENDBRANCH   8   7
ENDBRANCH   9   8
BRANCH  14  15
ATOM     15  C   UNL     1      -4.493   1.750  24.409  0.00  0.00    +0.087 C 
BRANCH  15  16
ATOM     16  C   UNL     1      -4.674   0.955  24.534  0.00  0.00    +0.241 C 
ATOM     17  O   UNL     1      -5.452   0.728  24.684  0.00  0.00    -0.273 OA
ATOM     18  N   UNL     1      -4.077   0.387  24.509  0.00  0.00    -0.204 NA
BRANCH  18  19
ATOM     19  C   UNL     1      -4.257  -0.409  24.633  0.00  0.00    +0.138 C 
BRANCH  19  20
ATOM     20  C   UNL     1      -3.663  -0.979  24.588  0.00  0.00    +0.138 C 
BRANCH  20  21
ATOM     21  N   UNL     1      -3.860  -1.780  24.571  0.00  0.00    -0.204 NA
ATOM     22  C   UNL     1      -3.266  -2.351  24.573  0.00  0.00    +0.242 C 
ATOM     23  C   UNL     1      -3.463  -3.152  24.556  0.00  0.00    +0.096 C 
ATOM     24  O   UNL     1      -2.473  -2.122  24.592  0.00  0.00    -0.273 OA
ENDBRANCH  20  21
ENDBRANCH  19  20
ENDBRANCH  18  19
ENDBRANCH  15  16
ENDBRANCH  14  15
TORSDOF 10
ENDMDL
MODEL 2
REMARK VINA RESULT:      -9.1      1.143      4.453
REMARK  Name = 
REMARK  10 active torsions:
REMARK  status: ('A' for Active; 'I' for Inactive)
REMARK    1  A    between atoms: C_2  and  C_3
REMARK    2  A    between atoms: C_3  and  C_4
REMARK    3  A    between atoms: C_4  and  C_5
REMARK    4  A    between atoms: C_7  and  C_8
REMARK    5  A    between atoms: C_8  and  C_9
REMARK    6  A    between atoms: C_14  and  C_15
REMARK    7  A    between atoms: C_15  and  C_16
REMARK    8  A    between atoms: N_18  and  C_19
REMARK    9  A    between atoms: C_19  and  C_20
REMARK   10  A    between atoms: C_20  and  N_21
REMARK                            x       y       z     vdW  Elec       q    Type
REMARK                         _______ _______ _______ _____ _____    ______ ____
ROOT
ATOM      9  C   UNL     1      -4.649   2.078  24.693  0.00  0.00    +0.024 C 
ATOM     10  C   UNL     1      -5.326   1.913  25.135  0.00  0.00    +0.089 C 
ATOM     11  N   UNL     1      -5.663   2.499  25.607  0.00  0.00    -0.218 NA
ATOM     12  C   UNL     1      -5.323   3.251  25.637  0.00  0.00    +0.089 C 
ATOM     13  C   UNL     1      -4.647   3.416  25.194  0.00  0.00    +0.019 C 
ATOM     14  C   UNL     1      -4.310   2.829  24.722  0.00  0.00    +0.012 C 
ENDROOT
BRANCH   9   8
ATOM      8  C   UNL     1      -4.312   1.491  24.220  0.00  0.00    +0.051 C 
BRANCH   8   7
ATOM      5  C   UNL     1      -4.281  -0.627  24.494  0.00  0.00    +0.154 A 
ATOM      6  C   UNL     1      -4.294   0.036  24.003  0.00  0.00    +0.054 A 
ATOM      7  C   UNL     1      -4.299   0.708  24.482  0.00  0.00    +0.100 A 
ATOM     25  N   UNL     1      -4.289   0.461  25.268  0.00  0.00    -0.082 NA
ATOM     26  O   UNL     1      -4.278  -0.364  25.276  0.00  0.00    -0.358 OA
BRANCH   5   4
ATOM      4  C   UNL     1      -4.272  -1.413  24.246  0.00  0.00    +0.067 C 
BRANCH   4   3
ATOM      3  C   UNL     1      -3.680  -1.923  24.512  0.00  0.00    +0.008 C 
BRANCH   3   2
ATOM      1  C   UNL     1      -3.207  -3.265  24.649  0.00  0.00    +0.000 C 
ATOM      2  C   UNL     1      -3.658  -2.704  24.244  0.00  0.00    +0.000 C 
ENDBRANCH   3   2
ENDBRANCH   4   3
ENDBRANCH   5   4
ENDBRANCH   8   7
ENDBRANCH   9   8
BRANCH  14  15
ATOM     15  C   UNL     1      -3.634   2.994  24.279  0.00  0.00    +0.087 C 
BRANCH  15  16
ATOM     16  C   UNL     1      -3.019   3.432  24.612  0.00  0.00    +0.241 C 
ATOM     17  O   UNL     1      -3.123   4.236  24.766  0.00  0.00    -0.273 OA
ATOM     18  N   UNL     1      -2.302   3.067  24.790  0.00  0.00    -0.204 NA
BRANCH  18  19
ATOM     19  C   UNL     1      -1.687   3.505  25.123  0.00  0.00    +0.138 C 
BRANCH  19  20
ATOM     20  C   UNL     1      -0.940   3.168  25.212  0.00  0.00    +0.138 C 
BRANCH  20  21
ATOM     21  N   UNL     1      -0.646   3.007  25.966  0.00  0.00    -0.204 NA
ATOM     22  C   UNL     1       0.068   2.605  26.054  0.00  0.00    +0.242 C 
ATOM     23  C   UNL     1       0.362   2.445  26.809  0.00  0.00    +0.096 C 
ATOM     24  O   UNL     1       0.490   2.362  25.387  0.00  0.00    -0.273 OA
ENDBRANCH  20  21
ENDBRANCH  19  20
ENDBRANCH  18  19
ENDBRANCH  15  16
ENDBRANCH  14  15
TORSDOF 10
ENDMDL
MODEL 3
REMARK VINA RESULT:      -9.0      2.382      4.655
REMARK  Name = 
REMARK  10 active torsions:
REMARK  status: ('A' for Active; 'I' for Inactive)
REMARK    1  A    between atoms: C_2  and  C_3
REMARK    2  A    between atoms: C_3  and  C_4
REMARK    3  A    between atoms: C_4  and  C_5
REMARK    4  A    between atoms: C_7  and  C_8
REMARK    5  A    between atoms: C_8  and  C_9
REMARK    6  A    between atoms: C_14  and  C_15
REMARK    7  A    between atoms: C_15  and  C_16
REMARK    8  A    between atoms: N_18  and  C_19
REMARK    9  A    between atoms: C_19  and  C_20
REMARK   10  A    between atoms: C_20  and  N_21
REMARK                            x       y       z     vdW  Elec       q    Type
REMARK                         _______ _______ _______ _____ _____    ______ ____
ROOT
ATOM      9  C   UNL     1      -3.737  -1.170  24.771  0.00  0.00    +0.024 C 
ATOM     10  C   UNL     1      -4.411  -1.348  24.329  0.00  0.00    +0.089 C 
ATOM     11  N   UNL     1      -4.439  -2.040  23.880  0.00  0.00    -0.218 NA
ATOM     12  C   UNL     1      -3.793  -2.553  23.873  0.00  0.00    +0.089 C 
ATOM     13  C   UNL     1      -3.120  -2.375  24.315  0.00  0.00    +0.019 C 
ATOM     14  C   UNL     1      -3.092  -1.683  24.764  0.00  0.00    +0.012 C 
ENDROOT
BRANCH   9   8
ATOM      8  C   UNL     1      -3.709  -0.478  25.221  0.00  0.00    +0.051 C 
BRANCH   8   7
ATOM      5  C   UNL     1      -4.878   1.279  24.896  0.00  0.00    +0.154 A 
ATOM      6  C   UNL     1      -4.643   0.649  25.373  0.00  0.00    +0.054 A 
ATOM      7  C   UNL     1      -4.090   0.203  24.952  0.00  0.00    +0.100 A 
ATOM     25  N   UNL     1      -3.983   0.558  24.215  0.00  0.00    -0.082 NA
ATOM     26  O   UNL     1      -4.470   1.223  24.180  0.00  0.00    -0.358 OA
BRANCH   5   4
ATOM      4  C   UNL     1      -5.424   1.862  25.098  0.00  0.00    +0.067 C 
BRANCH   4   3
ATOM      3  C   UNL     1      -5.168   2.632  25.254  0.00  0.00    +0.008 C 
BRANCH   3   2
ATOM      1  C   UNL     1      -5.478   3.987  25.585  0.00  0.00    +0.000 C 
ATOM      2  C   UNL     1      -5.703   3.195  25.535  0.00  0.00    +0.000 C 
ENDBRANCH   3   2
ENDBRANCH   4   3
ENDBRANCH   5   4
ENDBRANCH   8   7
ENDBRANCH   9   8
BRANCH  14  15
ATOM     15  C   UNL     1      -2.419  -1.505  25.206  0.00  0.00    +0.087 C 
BRANCH  15  16
ATOM     16  C   UNL     1      -1.669  -1.630  24.884  0.00  0.00    +0.241 C 
ATOM     17  O   UNL     1      -1.385  -2.398  24.787  0.00  0.00    -0.273 OA
ATOM     18  N   UNL     1      -1.204  -0.987  24.661  0.00  0.00    -0.204 NA
BRANCH  18  19
ATOM     19  C   UNL     1      -0.454  -1.111  24.339  0.00  0.00    +0.138 C 
BRANCH  19  20
ATOM     20  C   UNL     1      -0.015  -0.474  24.055  0.00  0.00    +0.138 C 
BRANCH  20  21
ATOM     21  N   UNL     1       0.531  -0.586  23.448  0.00  0.00    -0.204 NA
ATOM     22  C   UNL     1       0.975   0.050  23.168  0.00  0.00    +0.242 C 
ATOM     23  C   UNL     1       1.521  -0.062  22.560  0.00  0.00    +0.096 C 
ATOM     24  O   UNL     1       0.871   0.801  23.496  0.00  0.00    -0.273 OA
ENDBRANCH  20  21
ENDBRANCH  19  20
ENDBRANCH  18  19
ENDBRANCH  15  16
ENDBRANCH  14  15
TORSDOF 10
ENDMDL
MODEL 4
REMARK VINA RESULT:      -8.8      2.494      4.335
REMARK  Name = 
REMARK  10 active torsions:
REMARK  status: ('A' for Active; 'I' for Inactive)
REMARK    1  A    between atoms: C_2  and  C_3
REMARK    2  A    between atoms: C_3  and  C_4
REMARK    3  A    between atoms: C_4  and  C_5
REMARK    4  A    between atoms: C_7  and  C_8
REMARK    5  A    between atoms: C_8  and  C_9
REMARK    6  A    between atoms: C_14  and  C_15
REMARK    7  A    between atoms: C_15  and  C_16
REMARK    8  A    between atoms: N_18  and  C_19
REMARK    9  A    between atoms: C_19  and  C_20
REMARK   10  A    between atoms: C_20  and  N_21
REMARK                            x       y       z     vdW  Elec       q    Type
REMARK                         _______ _______ _______ _____ _____    ______ ____
ROOT
ATOM      9  C   UNL     1      -1.816   4.014  25.650  0.00  0.00    +0.024 C 
ATOM     10  C   UNL     1      -1.992   4.785  25.413  0.00  0.00    +0.089 C 
ATOM     11  N   UNL     1      -1.437   5.221  24.986  0.00  0.00    -0.218 NA
ATOM     12  C   UNL     1      -0.706   4.887  24.795  0.00  0.00    +0.089 C 
ATOM     13  C   UNL     1      -0.532   4.117  25.033  0.00  0.00    +0.019 C 
ATOM     14  C   UNL     1      -1.086   3.681  25.460  0.00  0.00    +0.012 C 
ENDROOT
BRANCH   9   8
ATOM      8  C   UNL     1      -2.371   3.577  26.078  0.00  0.00    +0.051 C 
BRANCH   8   7
ATOM      5  C   UNL     1      -4.371   3.364  25.363  0.00  0.00    +0.154 A 
ATOM      6  C   UNL     1      -3.590   3.103  25.405  0.00  0.00    +0.054 A 
ATOM      7  C   UNL     1      -3.172   3.628  25.886  0.00  0.00    +0.100 A 
ATOM     25  N   UNL     1      -3.694   4.213  26.140  0.00  0.00    -0.082 NA
ATOM     26  O   UNL     1      -4.436   4.050  25.818  0.00  0.00    -0.358 OA
BRANCH   5   4
ATOM      4  C   UNL     1      -4.981   3.003  24.941  0.00  0.00    +0.067 C 
BRANCH   4   3
ATOM      3  C   UNL     1      -5.382   2.358  25.265  0.00  0.00    +0.008 C 
BRANCH   3   2
ATOM      1  C   UNL     1      -6.539   1.534  25.107  0.00  0.00    +0.000 C 
ATOM      2  C   UNL     1      -5.868   1.892  24.787  0.00  0.00    +0.000 C 
ENDBRANCH   3   2
ENDBRANCH   4   3
ENDBRANCH   5   4
ENDBRANCH   8   7
ENDBRANCH   9   8
BRANCH  14  15
ATOM     15  C   UNL     1      -0.911   2.911  25.697  0.00  0.00    +0.087 C 
BRANCH  15  16
ATOM     16  C   UNL     1      -0.256   2.520  25.382  0.00  0.00    +0.241 C 
ATOM     17  O   UNL     1       0.502   2.702  25.652  0.00  0.00    -0.273 OA
ATOM     18  N   UNL     1      -0.358   1.949  24.796  0.00  0.00    -0.204 NA
BRANCH  18  19
ATOM     19  C   UNL     1       0.297   1.558  24.481  0.00  0.00    +0.138 C 
BRANCH  19  20
ATOM     20  C   UNL     1       0.195   0.863  24.051  0.00  0.00    +0.138 C 
BRANCH  20  21
ATOM     21  N   UNL     1       0.712   0.679  23.434  0.00  0.00    -0.204 NA
ATOM     22  C   UNL     1       0.769  -0.097  23.160  0.00  0.00    +0.242 C 
ATOM     23  C   UNL     1       1.285  -0.280  22.543  0.00  0.00    +0.096 C 
ATOM     24  O   UNL     1       0.310  -0.691  23.504  0.00  0.00    -0.273 OA
ENDBRANCH  20  21
ENDBRANCH  19  20
ENDBRANCH  18  19
ENDBRANCH  15  16
ENDBRANCH  14  15
TORSDOF 10
ENDMDL
MODEL 5
REMARK VINA RESULT:      -8.6      1.829      4.702
REMARK  Name = 
REMARK  10 active torsions:
REMARK  status: ('A' for Active; 'I' for Inactive)
REMARK    1  A    between atoms: C_2  and  C_3
REMARK    2  A    between atoms: C_3  and  C_4
REMARK    3  A    between atoms: C_4  and  C_5
REMARK    4  A    between atoms: C_7  and  C_8
REMARK    5  A    between atoms: C_8  and  C_9
REMARK    6  A    between atoms: C_14  and  C_15
REMARK    7  A    between atoms: C_15  and  C_16
REMARK    8  A    between atoms: N_18  and  C_19
REMARK    9  A    between atoms: C_19  and  C_20
REMARK   10  A    between atoms: C_20  and  N_21
REMARK                            x       y       z     vdW  Elec       q    Type
REMARK                         _______ _______ _______ _____ _____    ______ ____
ROOT
ATOM      9  C   UNL     1      -0.844   1.714  24.770  0.00  0.00    +0.024 C 
ATOM     10  C   UNL     1      -0.244   1.550  25.313  0.00  0.00    +0.089 C 
ATOM     11  N   UNL     1      -0.080   2.084  25.920  0.00  0.00    -0.218 NA
ATOM     12  C   UNL     1      -0.516   2.782  25.984  0.00  0.00    +0.089 C 
ATOM     13  C   UNL     1      -1.115   2.945  25.441  0.00  0.00    +0.019 C 
ATOM     14  C   UNL     1      -1.279   2.411  24.834  0.00  0.00    +0.012 C 
ENDROOT
BRANCH   9   8
ATOM      8  C   UNL     1      -1.008   1.179  24.162  0.00  0.00    +0.051 C 
BRANCH   8   7
ATOM      5  C   UNL     1      -1.119  -0.910  24.589  0.00  0.00    +0.154 A 
ATOM      6  C   UNL     1      -1.469  -0.164  24.546  0.00  0.00    +0.054 A 
ATOM      7  C   UNL     1      -0.897   0.370  24.284  0.00  0.00    +0.100 A 
ATOM     25  N   UNL     1      -0.195  -0.045  24.166  0.00  0.00    -0.082 NA
ATOM     26  O   UNL     1      -0.331  -0.837  24.354  0.00  0.00    -0.358 OA
BRANCH   5   4
ATOM      4  C   UNL     1      -1.492  -1.607  24.825  0.00  0.00    +0.067 C 
BRANCH   4   3
ATOM      3  C   UNL     1      -2.249  -1.784  24.549  0.00  0.00    +0.008 C 
BRANCH   3   2
ATOM      1  C   UNL     1      -3.384  -2.653  24.524  0.00  0.00    +0.000 C 
ATOM      2  C   UNL     1      -2.608  -2.497  24.760  0.00  0.00    +0.000 C 
ENDBRANCH   3   2
ENDBRANCH   4   3
ENDBRANCH   5   4
ENDBRANCH   8   7
ENDBRANCH   9   8
BRANCH  14  15
ATOM     15  C   UNL     1      -1.878   2.575  24.292  0.00  0.00    +0.087 C 
BRANCH  15  16
ATOM     16  C   UNL     1      -2.537   3.013  24.524  0.00  0.00    +0.241 C 
ATOM     17  O   UNL     1      -2.457   3.814  24.704  0.00  0.00    -0.273 OA
ATOM     18  N   UNL     1      -3.276   2.651  24.576  0.00  0.00    -0.204 NA
BRANCH  18  19
ATOM     19  C   UNL     1      -3.935   3.089  24.808  0.00  0.00    +0.138 C 
BRANCH  19  20
ATOM     20  C   UNL     1      -4.684   2.744  24.802  0.00  0.00    +0.138 C 
BRANCH  20  21
ATOM     21  N   UNL     1      -5.106   2.661  25.506  0.00  0.00    -0.204 NA
ATOM     22  C   UNL     1      -5.830   2.266  25.510  0.00  0.00    +0.242 C 
ATOM     23  C   UNL     1      -6.253   2.183  26.213  0.00  0.00    +0.096 C 
ATOM     24  O   UNL     1      -6.133   1.953  24.807  0.00  0.00    -0.273 OA
ENDBRANCH  20  21
ENDBRANCH  19  20
ENDBRANCH  18  19
ENDBRANCH  15  16
ENDBRANCH  14  15
TORSDOF 10
ENDMDL
MODEL 6
REMARK VINA RESULT:      -8.6      1.515      3.400
REMARK  Name = 
REMARK  10 active torsions:
REMARK  status: ('A' for Active; 'I' for Inactive)
REMARK    1  A    between atoms: C_2  and  C_3
REMARK    2  A    between atoms: C_3  and  C_4
REMARK    3  A    between atoms: C_4  and  C_5
REMARK    4  A    between atoms: C_7  and  C_8
REMARK    5  A    between atoms: C_8  and  C_9
REMARK    6  A    between atoms: C_14  and  C_15
REMARK    7  A    between atoms: C_15  and  C_16
REMARK    8  A    between atoms: N_18  and  C_19
REMARK    9  A    between atoms: C_19  and  C_20
REMARK   10  A    between atoms: C_20  and  N_21
REMARK                            x       y       z     vdW  Elec       q    Type
REMARK                         _______ _______ _______ _____ _____    ______ ____
ROOT
ATOM      9  C   UNL     1      -1.228   2.596  24.956  0.00  0.00    +0.024 C 
ATOM     10  C   UNL     1      -1.001   3.127  25.546  0.00  0.00    +0.089 C 
ATOM     11  N   UNL     1      -0.442   2.903  26.110  0.00  0.00    -0.218 NA
ATOM     12  C   UNL     1      -0.111   2.147  26.084  0.00  0.00    +0.089 C 
ATOM     13  C   UNL     1      -0.338   1.617  25.495  0.00  0.00    +0.019 C 
ATOM     14  C   UNL     1      -0.897   1.841  24.931  0.00  0.00    +0.012 C 
ENDROOT
BRANCH   9   8
ATOM      8  C   UNL     1      -1.788   2.821  24.392  0.00  0.00    +0.051 C 
BRANCH   8   7
ATOM      5  C   UNL     1      -3.707   3.598  24.910  0.00  0.00    +0.154 A 
ATOM      6  C   UNL     1      -3.226   2.978  24.658  0.00  0.00    +0.054 A 
ATOM      7  C   UNL     1      -2.450   3.257  24.619  0.00  0.00    +0.100 A 
ATOM     25  N   UNL     1      -2.452   4.050  24.847  0.00  0.00    -0.082 NA
ATOM     26  O   UNL     1      -3.229   4.261  25.027  0.00  0.00    -0.358 OA
BRANCH   5   4
ATOM      4  C   UNL     1      -4.523   3.563  25.026  0.00  0.00    +0.067 C 
BRANCH   4   3
ATOM      3  C   UNL     1      -4.854   2.930  25.439  0.00  0.00    +0.008 C 
BRANCH   3   2
ATOM      1  C   UNL     1      -6.024   2.207  25.827  0.00  0.00    +0.000 C 
ATOM      2  C   UNL     1      -5.668   2.908  25.575  0.00  0.00    +0.000 C 
ENDBRANCH   3   2
ENDBRANCH   4   3
ENDBRANCH   5   4
ENDBRANCH   8   7
ENDBRANCH   9   8
BRANCH  14  15
ATOM     15  C   UNL     1      -1.124   1.311  24.342  0.00  0.00    +0.087 C 
BRANCH  15  16
ATOM     16  C   UNL     1      -1.050   0.499  24.466  0.00  0.00    +0.241 C 
ATOM     17  O   UNL     1      -0.301   0.152  24.486  0.00  0.00    -0.273 OA
ATOM     18  N   UNL     1      -1.722   0.034  24.570  0.00  0.00    -0.204 NA
BRANCH  18  19
ATOM     19  C   UNL     1      -1.648  -0.779  24.695  0.00  0.00    +0.138 C 
BRANCH  19  20
ATOM     20  C   UNL     1      -2.289  -1.214  24.976  0.00  0.00    +0.138 C 
BRANCH  20  21
ATOM     21  N   UNL     1      -2.596  -1.835  24.526  0.00  0.00    -0.204 NA
ATOM     22  C   UNL     1      -3.222  -2.285  24.818  0.00  0.00    +0.242 C 
ATOM     23  C   UNL     1      -3.529  -2.905  24.368  0.00  0.00    +0.096 C 
ATOM     24  O   UNL     1      -3.543  -2.115  25.560  0.00  0.00    -0.273 OA
ENDBRANCH  20  21
ENDBRANCH  19  20
ENDBRANCH  18  19
ENDBRANCH  15  16
ENDBRANCH  14  15
TORSDOF 10
ENDMDL
MODEL 7
REMARK VINA RESULT:      -8.5      2.061      5.510
REMARK  Name = 
REMARK  10 active torsions:
REMARK  status: ('A' for Active; 'I' for Inactive)
REMARK    1  A    between atoms: C_2  and  C_3
REMARK    2  A    between atoms: C_3  and  C_4
REMARK    3  A    between atoms: C_4  and  C_5
REMARK    4  A    between atoms: C_7  and  C_8
REMARK    5  A    between atoms: C_8  and  C_9
REMARK    6  A    between atoms: C_14  and  C_15
REMARK    7  A    between atoms: C_15  and  C_16
REMARK    8  A    between atoms: N_18  and  C_19
REMARK    9  A    between atoms: C_19  and  C_20
REMARK   10  A    between atoms: C_20  and  N_21
REMARK                            x       y       z     vdW  Elec       q    Type
REMARK                         _______ _______ _______ _____ _____    ______ ____
ROOT
ATOM      9  C   UNL     1      -0.544   0.431  24.860  0.00  0.00    +0.024 C 
ATOM     10  C   UNL     1      -0.118   0.085  24.244  0.00  0.00    +0.089 C 
ATOM     11  N   UNL     1       0.272   0.561  23.694  0.00  0.00    -0.218 NA
ATOM     12  C   UNL     1       0.235   1.383  23.760  0.00  0.00    +0.089 C 
ATOM     13  C   UNL     1      -0.192   1.728  24.376  0.00  0.00    +0.019 C 
ATOM     14  C   UNL     1      -0.582   1.252  24.926  0.00  0.00    +0.012 C 
ENDROOT
BRANCH   9   8
ATOM      8  C   UNL     1      -0.934  -0.046  25.410  0.00  0.00    +0.051 C 
BRANCH   8   7
ATOM      5  C   UNL     1      -1.756  -1.932  24.841  0.00  0.00    +0.154 A 
ATOM      6  C   UNL     1      -1.831  -1.118  24.953  0.00  0.00    +0.054 A 
ATOM      7  C   UNL     1      -1.107  -0.832  25.226  0.00  0.00    +0.100 A 
ATOM     25  N   UNL     1      -0.585  -1.468  25.283  0.00  0.00    -0.082 NA
ATOM     26  O   UNL     1      -0.986  -2.148  25.045  0.00  0.00    -0.358 OA
BRANCH   5   4
ATOM      4  C   UNL     1      -2.347  -2.441  24.572  0.00  0.00    +0.067 C 
BRANCH   4   3
ATOM      3  C   UNL     1      -3.117  -2.161  24.469  0.00  0.00    +0.008 C 
BRANCH   3   2
ATOM      1  C   UNL     1      -4.378  -2.380  23.834  0.00  0.00    +0.000 C 
ATOM      2  C   UNL     1      -3.713  -2.676  24.223  0.00  0.00    +0.000 C 
ENDBRANCH   3   2
ENDBRANCH   4   3
ENDBRANCH   5   4
ENDBRANCH   8   7
ENDBRANCH   9   8
BRANCH  14  15
ATOM     15  C   UNL     1      -1.008   1.597  25.541  0.00  0.00    +0.087 C 
BRANCH  15  16
ATOM     16  C   UNL     1      -1.395   2.316  25.423  0.00  0.00    +0.241 C 
ATOM     17  O   UNL     1      -0.960   3.017  25.386  0.00  0.00    -0.273 OA
ATOM     18  N   UNL     1      -2.215   2.336  25.341  0.00  0.00    -0.204 NA
BRANCH  18  19
ATOM     19  C   UNL     1      -2.602   3.055  25.224  0.00  0.00    +0.138 C 
BRANCH  19  20
ATOM     20  C   UNL     1      -3.384   3.065  24.965  0.00  0.00    +0.138 C 
BRANCH  20  21
ATOM     21  N   UNL     1      -3.955   3.481  25.392  0.00  0.00    -0.204 NA
ATOM     22  C   UNL     1      -4.752   3.415  25.189  0.00  0.00    +0.242 C 
ATOM     23  C   UNL     1      -5.322   3.831  25.617  0.00  0.00    +0.096 C 
ATOM     24  O   UNL     1      -4.978   2.933  24.558  0.00  0.00    -0.273 OA
ENDBRANCH  20  21
ENDBRANCH  19  20
ENDBRANCH  18  19
ENDBRANCH  15  16
ENDBRANCH  14  15
TORSDOF 10
ENDMDL
MODEL 8
REMARK VINA RESULT:      -8.5      1.821      3.789
REMARK  Name = 
REMARK  10 active torsions:
REMARK  status: ('A' for Active; 'I' for Inactive)
REMARK    1  A    between atoms: C_2  and  C_3
REMARK    2  A    between atoms: C_3  and  C_4
REMARK    3  A    between atoms: C_4  and  C_5
REMARK    4  A    between atoms: C_7  and  C_8
REMARK    5  A    between atoms: C_8  and  C_9
REMARK    6  A    between atoms: C_14  and  C_15
REMARK    7  A    between atoms: C_15  and  C_16
REMARK    8  A    between atoms: N_18  and  C_19
REMARK    9  A    between atoms: C_19  and  C_20
REMARK   10  A    between atoms: C_20  and  N_21
REMARK                            x       y       z     vdW  Elec       q    Type
REMARK                         _______ _______ _______ _____ _____    ______ ____
ROOT
ATOM      9  C   UNL     1      -3.257   3.245  24.845  0.00  0.00    +0.024 C 
ATOM     10  C   UNL     1      -3.697   3.520  25.487  0.00  0.00    +0.089 C 
ATOM     11  N   UNL     1      -3.327   3.949  26.086  0.00  0.00    -0.218 NA
ATOM     12  C   UNL     1      -2.516   4.102  26.044  0.00  0.00    +0.089 C 
ATOM     13  C   UNL     1      -2.078   3.827  25.402  0.00  0.00    +0.019 C 
ATOM     14  C   UNL     1      -2.448   3.398  24.803  0.00  0.00    +0.012 C 
ENDROOT
BRANCH   9   8
ATOM      8  C   UNL     1      -3.628   2.815  24.245  0.00  0.00    +0.051 C 
BRANCH   8   7
ATOM      5  C   UNL     1      -4.622   0.983  24.707  0.00  0.00    +0.154 A 
ATOM      6  C   UNL     1      -3.940   1.403  24.510  0.00  0.00    +0.054 A 
ATOM      7  C   UNL     1      -4.143   2.199  24.436  0.00  0.00    +0.100 A 
ATOM     25  N   UNL     1      -4.950   2.272  24.587  0.00  0.00    -0.082 NA
ATOM     26  O   UNL     1      -5.247   1.521  24.755  0.00  0.00    -0.358 OA
BRANCH   5   4
ATOM      4  C   UNL     1      -4.672   0.170  24.834  0.00  0.00    +0.067 C 
BRANCH   4   3
ATOM      3  C   UNL     1      -4.239  -0.349  24.360  0.00  0.00    +0.008 C 
BRANCH   3   2
ATOM      1  C   UNL     1      -4.115  -1.714  23.956  0.00  0.00    +0.000 C 
ATOM      2  C   UNL     1      -4.204  -1.151  24.553  0.00  0.00    +0.000 C 
ENDBRANCH   3   2
ENDBRANCH   4   3
ENDBRANCH   5   4
ENDBRANCH   8   7
ENDBRANCH   9   8
BRANCH  14  15
ATOM     15  C   UNL     1      -2.010   3.123  24.161  0.00  0.00    +0.087 C 
BRANCH  15  16
ATOM     16  C   UNL     1      -1.251   2.820  24.279  0.00  0.00    +0.241 C 
ATOM     17  O   UNL     1      -0.639   3.321  24.511  0.00  0.00    -0.273 OA
ATOM     18  N   UNL     1      -1.105   2.016  24.165  0.00  0.00    -0.204 NA
BRANCH  18  19
ATOM     19  C   UNL     1      -0.347   1.713  24.283  0.00  0.00    +0.138 C 
BRANCH  19  20
ATOM     20  C   UNL     1      -0.168   0.944  24.047  0.00  0.00    +0.138 C 
BRANCH  20  21
ATOM     21  N   UNL     1      -0.422   0.303  24.501  0.00  0.00    -0.204 NA
ATOM     22  C   UNL     1      -0.204  -0.464  24.291  0.00  0.00    +0.242 C 
ATOM     23  C   UNL     1      -0.458  -1.105  24.745  0.00  0.00    +0.096 C 
ATOM     24  O   UNL     1       0.269  -0.591  23.626  0.00  0.00    -0.273 OA
ENDBRANCH  20  21
ENDBRANCH  19  20
ENDBRANCH  18  19
ENDBRANCH  15  16
ENDBRANCH  14  15
TORSDOF 10
ENDMDL
