MODEL 1
REMARK VINA RESULT:      -9.7      0.000      0.000
REMARK  Name = 
REMARK  7 active torsions:
REMARK  status: ('A' for Active; 'I' for Inactive)
REMARK    1  A    between atoms: C_3  and  C_4
REMARK    2  A    between atoms: C_4  and  N_5
REMARK    3  A    between atoms: N_5  and  S_6
REMARK    4  A    between atoms: S_6  and  C_9
REMARK    5  A    between atoms: C_17  and  N_18
REMARK    6  A    between atoms: N_18  and  C_19
REMARK    7  A    between atoms: C_19  and  C_20
REMARK                            x       y       z     vdW  Elec       q    Type
REMARK                         _______ _______ _______ _____ _____    ______ ____
ROOT
ATOM      1  O   UNL     1      -2.793   0.997  23.651  0.00  0.00    -0.219 OA
ATOM      2  C   UNL     1      -3.396   1.102  24.205  0.00  0.00    +0.199 C 
ATOM      3  C   UNL     1      -3.573   1.803  24.603  0.00  0.00    +0.166 C 
ATOM     15  O   UNL     1      -4.213   1.658  25.101  0.00  0.00    -0.350 OA
ATOM     16  C   UNL     1      -4.432   0.868  25.013  0.00  0.00    +0.162 C 
ATOM     17  C   UNL     1      -3.927   0.524  24.459  0.00  0.00    +0.135 C 
ENDROOT
BRANCH   3   4
ATOM      4  C   UNL     1      -3.178   2.522  24.516  0.00  0.00    +0.148 C 
BRANCH   4   5
ATOM      5  N   UNL     1      -2.995   2.975  25.180  0.00  0.00    -0.075 NA
BRANCH   5   6
ATOM      6  S   UNL     1      -2.447   3.590  25.123  0.00  0.00    +0.077 S 
ATOM      7  O   UNL     1      -1.969   3.215  25.681  0.00  0.00    -0.152 OA
ATOM      8  O   UNL     1      -2.926   3.965  24.565  0.00  0.00    -0.152 OA
BRANCH   6   9
ATOM      9  C   UNL     1      -1.900   4.203  25.066  0.00  0.00    +0.124 A 
ATOM     10  C   UNL     1      -2.137   4.983  25.196  0.00  0.00    +0.020 A 
ATOM     11  C   UNL     1      -1.590   5.596  25.139  0.00  0.00    +0.001 A 
ATOM     12  C   UNL     1      -0.803   5.432  24.952  0.00  0.00    +0.000 A 
ATOM     13  C   UNL     1      -0.565   4.652  24.821  0.00  0.00    +0.001 A 
ATOM     14  C   UNL     1      -1.113   4.038  24.879  0.00  0.00    +0.020 A 
ENDBRANCH   6   9
ENDBRANCH   5   6
ENDBRANCH   4   5
ENDBRANCH   3   4
BRANCH  17  18
ATOM     18  N   UNL     1      -3.949  -0.260  24.204  0.00  0.00    -0.209 NA
BRANCH  18  19
ATOM     19  C   UNL     1      -4.175  -0.857  24.726  0.00  0.00    +0.115 C 
BRANCH  19  20
ATOM     20  C   UNL     1      -3.990  -1.644  24.557  0.00  0.00    -0.002 A 
ATOM     21  C   UNL     1      -3.486  -2.065  25.056  0.00  0.00    +0.018 A 
ATOM     22  C   UNL     1      -3.301  -2.852  24.887  0.00  0.00    +0.099 A 
ATOM     23  N   UNL     1      -3.622  -3.217  24.220  0.00  0.00    -0.242 NA
ATOM     24  C   UNL     1      -4.126  -2.795  23.721  0.00  0.00    +0.099 A 
ATOM     25  C   UNL     1      -4.311  -2.009  23.890  0.00  0.00    +0.018 A 
ENDBRANCH  19  20
ENDBRANCH  18  19
ENDBRANCH  17  18
TORSDOF 7
ENDMDL
MODEL 2
REMARK VINA RESULT:      -9.4      1.409      5.863
REMARK  Name = 
REMARK  7 active torsions:
REMARK  status: ('A' for Active; 'I' for Inactive)
REMARK    1  A    between atoms: C_3  and  C_4
REMARK    2  A    between atoms: C_4  and  N_5
REMARK    3  A    between atoms: N_5  and  S_6
REMARK    4  A    between atoms: S_6  and  C_9
REMARK    5  A    between atoms: C_17  and  N_18
REMARK    6  A    between atoms: N_18  and  C_19
REMARK    7  A    between atoms: C_19  and  C_20
REMARK                            x       y       z     vdW  Elec       q    Type
REMARK                         _______ _______ _______ _____ _____    ______ ____
ROOT
ATOM      1  O   UNL     1      -2.505   1.705  23.728  0.00  0.00    -0.219 OA
ATOM      2  C   UNL     1      -3.091   1.892  24.278  0.00  0.00    +0.199 C 
ATOM      3  C   UNL     1      -3.689   1.388  24.539  0.00  0.00    +0.166 C 
ATOM     15  O   UNL     1      -4.149   1.800  25.085  0.00  0.00    -0.350 OA
ATOM     16  C   UNL     1      -3.836   2.559  25.161  0.00  0.00    +0.162 C 
ATOM     17  C   UNL     1      -3.182   2.616  24.663  0.00  0.00    +0.135 C 
ENDROOT
BRANCH   3   4
ATOM      4  C   UNL     1      -3.807   0.608  24.296  0.00  0.00    +0.148 C 
BRANCH   4   5
ATOM      5  N   UNL     1      -4.129   0.057  24.819  0.00  0.00    -0.075 NA
BRANCH   5   6
ATOM      6  S   UNL     1      -4.013  -0.750  24.691  0.00  0.00    +0.077 S 
ATOM      7  O   UNL     1      -4.353  -0.681  23.942  0.00  0.00    -0.152 OA
ATOM      8  O   UNL     1      -3.674  -0.820  25.440  0.00  0.00    -0.152 OA
BRANCH   6   9
ATOM      9  C   UNL     1      -3.898  -1.557  24.564  0.00  0.00    +0.124 A 
ATOM     10  C   UNL     1      -4.255  -1.928  23.919  0.00  0.00    +0.020 A 
ATOM     11  C   UNL     1      -4.139  -2.735  23.792  0.00  0.00    +0.001 A 
ATOM     12  C   UNL     1      -3.666  -3.171  24.309  0.00  0.00    +0.000 A 
ATOM     13  C   UNL     1      -3.309  -2.799  24.953  0.00  0.00    +0.001 A 
ATOM     14  C   UNL     1      -3.425  -1.992  25.080  0.00  0.00    +0.020 A 
ENDBRANCH   6   9
ENDBRANCH   5   6
ENDBRANCH   4   5
ENDBRANCH   3   4
BRANCH  17  18
ATOM     18  N   UNL     1      -2.702   3.280  24.566  0.00  0.00    -0.209 NA
BRANCH  18  19
ATOM     19  C   UNL     1      -2.373   3.651  25.225  0.00  0.00    +0.115 C 
BRANCH  19  20
ATOM     20  C   UNL     1      -1.819   4.254  25.126  0.00  0.00    -0.002 A 
ATOM     21  C   UNL     1      -2.058   5.043  25.157  0.00  0.00    +0.018 A 
ATOM     22  C   UNL     1      -1.504   5.646  25.057  0.00  0.00    +0.099 A 
ATOM     23  N   UNL     1      -0.711   5.460  24.927  0.00  0.00    -0.242 NA
ATOM     24  C   UNL     1      -0.472   4.671  24.895  0.00  0.00    +0.099 A 
ATOM     25  C   UNL     1      -1.026   4.068  24.995  0.00  0.00    +0.018 A 
ENDBRANCH  19  20
ENDBRANCH  18  19
ENDBRANCH  17  18
TORSDOF 7
ENDMDL
MODEL 3
REMARK VINA RESULT:      -7.6      3.466      4.623
REMARK  Name = 
REMARK  7 active torsions:
REMARK  status: ('A' for Active; 'I' for Inactive)
REMARK    1  A    between atoms: C_3  and  C_4
REMARK    2  A    between atoms: C_4  and  N_5
REMARK    3  A    between atoms: N_5  and  S_6
REMARK    4  A    between atoms: S_6  and  C_9
REMARK    5  A    between atoms: C_17  and  N_18
REMARK    6  A    between atoms: N_18  and  C_19
REMARK    7  A    between atoms: C_19  and  C_20
REMARK                            x       y       z     vdW  Elec       q    Type
REMARK                         _______ _______ _______ _____ _____    ______ ____
ROOT
ATOM      1  O   UNL     1      -0.873   2.064  23.758  0.00  0.00    -0.219 OA
ATOM      2  C   UNL     1      -1.024   1.274  23.942  0.00  0.00    +0.199 C 
ATOM      3  C   UNL     1      -1.721   0.975  24.265  0.00  0.00    +0.166 C 
ATOM     15  O   UNL     1      -1.631   0.161  24.356  0.00  0.00    -0.350 OA
ATOM     16  C   UNL     1      -0.878  -0.044  24.090  0.00  0.00    +0.162 C 
ATOM     17  C   UNL     1      -0.502   0.643  23.833  0.00  0.00    +0.135 C 
ENDROOT
BRANCH   3   4
ATOM      4  C   UNL     1      -2.391   1.415  24.462  0.00  0.00    +0.148 C 
BRANCH   4   5
ATOM      5  N   UNL     1      -3.140   1.075  24.400  0.00  0.00    -0.075 NA
BRANCH   5   6
ATOM      6  S   UNL     1      -3.805   1.492  24.656  0.00  0.00    +0.077 S 
ATOM      7  O   UNL     1      -3.725   1.158  25.407  0.00  0.00    -0.152 OA
ATOM      8  O   UNL     1      -3.885   1.826  23.906  0.00  0.00    -0.152 OA
BRANCH   6   9
ATOM      9  C   UNL     1      -4.469   1.908  24.912  0.00  0.00    +0.124 A 
ATOM     10  C   UNL     1      -5.194   1.523  24.989  0.00  0.00    +0.020 A 
ATOM     11  C   UNL     1      -5.858   1.939  25.246  0.00  0.00    +0.001 A 
ATOM     12  C   UNL     1      -5.798   2.742  25.426  0.00  0.00    +0.000 A 
ATOM     13  C   UNL     1      -5.073   3.128  25.349  0.00  0.00    +0.001 A 
ATOM     14  C   UNL     1      -4.408   2.711  25.092  0.00  0.00    +0.020 A 
ENDBRANCH   6   9
ENDBRANCH   5   6
ENDBRANCH   4   5
ENDBRANCH   3   4
BRANCH  17  18
ATOM     18  N   UNL     1       0.260   0.692  23.523  0.00  0.00    -0.209 NA
BRANCH  18  19
ATOM     19  C   UNL     1       0.671   0.004  23.329  0.00  0.00    +0.115 C 
BRANCH  19  20
ATOM     20  C   UNL     1       1.387   0.052  22.920  0.00  0.00    -0.002 A 
ATOM     21  C   UNL     1       1.445  -0.247  22.154  0.00  0.00    +0.018 A 
ATOM     22  C   UNL     1       2.161  -0.199  21.745  0.00  0.00    +0.099 A 
ATOM     23  N   UNL     1       2.817   0.148  22.104  0.00  0.00    -0.242 NA
ATOM     24  C   UNL     1       2.759   0.448  22.871  0.00  0.00    +0.099 A 
ATOM     25  C   UNL     1       2.043   0.400  23.279  0.00  0.00    +0.018 A 
ENDBRANCH  19  20
ENDBRANCH  18  19
ENDBRANCH  17  18
TORSDOF 7
ENDMDL
MODEL 4
REMARK VINA RESULT:      -7.1      3.449      4.651
REMARK  Name = 
REMARK  7 active torsions:
REMARK  status: ('A' for Active; 'I' for Inactive)
REMARK    1  A    between atoms: C_3  and  C_4
REMARK    2  A    between atoms: C_4  and  N_5
REMARK    3  A    between atoms: N_5  and  S_6
REMARK    4  A    between atoms: S_6  and  C_9
REMARK    5  A    between atoms: C_17  and  N_18
REMARK    6  A    between atoms: N_18  and  C_19
REMARK    7  A    between atoms: C_19  and  C_20
REMARK                            x       y       z     vdW  Elec       q    Type
REMARK                         _______ _______ _______ _____ _____    ______ ____
ROOT
ATOM      1  O   UNL     1      -2.092   1.732  23.123  0.00  0.00    -0.219 OA
ATOM      2  C   UNL     1      -1.984   1.324  23.833  0.00  0.00    +0.199 C 
ATOM      3  C   UNL     1      -1.306   0.914  24.058  0.00  0.00    +0.166 C 
ATOM     15  O   UNL     1      -1.439   0.592  24.806  0.00  0.00    -0.350 OA
ATOM     16  C   UNL     1      -2.201   0.803  25.042  0.00  0.00    +0.162 C 
ATOM     17  C   UNL     1      -2.538   1.256  24.441  0.00  0.00    +0.135 C 
ENDROOT
BRANCH   3   4
ATOM      4  C   UNL     1      -0.614   0.839  23.614  0.00  0.00    +0.148 C 
BRANCH   4   5
ATOM      5  N   UNL     1       0.019   0.399  23.908  0.00  0.00    -0.075 NA
BRANCH   5   6
ATOM      6  S   UNL     1       0.713   0.329  23.466  0.00  0.00    +0.077 S 
ATOM      7  O   UNL     1       0.926   1.097  23.679  0.00  0.00    -0.152 OA
ATOM      8  O   UNL     1       0.499  -0.439  23.253  0.00  0.00    -0.152 OA
BRANCH   6   9
ATOM      9  C   UNL     1       1.406   0.259  23.025  0.00  0.00    +0.124 A 
ATOM     10  C   UNL     1       1.413  -0.194  22.336  0.00  0.00    +0.020 A 
ATOM     11  C   UNL     1       2.106  -0.264  21.895  0.00  0.00    +0.001 A 
ATOM     12  C   UNL     1       2.794   0.120  22.142  0.00  0.00    +0.000 A 
ATOM     13  C   UNL     1       2.787   0.573  22.832  0.00  0.00    +0.001 A 
ATOM     14  C   UNL     1       2.093   0.643  23.273  0.00  0.00    +0.020 A 
ENDBRANCH   6   9
ENDBRANCH   5   6
ENDBRANCH   4   5
ENDBRANCH   3   4
BRANCH  17  18
ATOM     18  N   UNL     1      -3.295   1.583  24.447  0.00  0.00    -0.209 NA
BRANCH  18  19
ATOM     19  C   UNL     1      -3.760   1.534  25.126  0.00  0.00    +0.115 C 
BRANCH  19  20
ATOM     20  C   UNL     1      -4.494   1.910  25.151  0.00  0.00    -0.002 A 
ATOM     21  C   UNL     1      -5.175   1.500  24.930  0.00  0.00    +0.018 A 
ATOM     22  C   UNL     1      -5.910   1.876  24.955  0.00  0.00    +0.099 A 
ATOM     23  N   UNL     1      -5.962   2.661  25.202  0.00  0.00    -0.242 NA
ATOM     24  C   UNL     1      -5.282   3.071  25.423  0.00  0.00    +0.099 A 
ATOM     25  C   UNL     1      -4.547   2.695  25.398  0.00  0.00    +0.018 A 
ENDBRANCH  19  20
ENDBRANCH  18  19
ENDBRANCH  17  18
TORSDOF 7
ENDMDL
MODEL 5
REMARK VINA RESULT:      -6.2     17.607     18.670
REMARK  Name = 
REMARK  7 active torsions:
REMARK  status: ('A' for Active; 'I' for Inactive)
REMARK    1  A    between atoms: C_3  and  C_4
REMARK    2  A    between atoms: C_4  and  N_5
REMARK    3  A    between atoms: N_5  and  S_6
REMARK    4  A    between atoms: S_6  and  C_9
REMARK    5  A    between atoms: C_17  and  N_18
REMARK    6  A    between atoms: N_18  and  C_19
REMARK    7  A    between atoms: C_19  and  C_20
REMARK                            x       y       z     vdW  Elec       q    Type
REMARK                         _______ _______ _______ _____ _____    ______ ____
ROOT
ATOM      1  O   UNL     1      -5.485  -8.440  11.026  0.00  0.00    -0.219 OA
ATOM      2  C   UNL     1      -5.235  -8.644  10.267  0.00  0.00    +0.199 C 
ATOM      3  C   UNL     1      -5.658  -8.529   9.569  0.00  0.00    +0.166 C 
ATOM     15  O   UNL     1      -5.202  -8.813   8.944  0.00  0.00    -0.350 OA
ATOM     16  C   UNL     1      -4.496  -9.105   9.256  0.00  0.00    +0.162 C 
ATOM     17  C   UNL     1      -4.516  -9.001  10.073  0.00  0.00    +0.135 C 
ENDROOT
BRANCH   3   4
ATOM      4  C   UNL     1      -6.407  -8.187   9.507  0.00  0.00    +0.148 C 
BRANCH   4   5
ATOM      5  N   UNL     1      -6.816  -8.216   8.791  0.00  0.00    -0.075 NA
BRANCH   5   6
ATOM      6  S   UNL     1      -7.549  -7.844   8.719  0.00  0.00    +0.077 S 
ATOM      7  O   UNL     1      -7.171  -7.120   8.601  0.00  0.00    -0.152 OA
ATOM      8  O   UNL     1      -7.928  -8.568   8.838  0.00  0.00    -0.152 OA
BRANCH   6   9
ATOM      9  C   UNL     1      -8.282  -7.473   8.647  0.00  0.00    +0.124 A 
ATOM     10  C   UNL     1      -8.945  -7.791   9.021  0.00  0.00    +0.020 A 
ATOM     11  C   UNL     1      -9.677  -7.419   8.949  0.00  0.00    +0.001 A 
ATOM     12  C   UNL     1      -9.748  -6.728   8.503  0.00  0.00    +0.000 A 
ATOM     13  C   UNL     1      -9.085  -6.410   8.128  0.00  0.00    +0.001 A 
ATOM     14  C   UNL     1      -8.352  -6.783   8.201  0.00  0.00    +0.020 A 
ENDBRANCH   6   9
ENDBRANCH   5   6
ENDBRANCH   4   5
ENDBRANCH   3   4
BRANCH  17  18
ATOM     18  N   UNL     1      -3.923  -9.216  10.604  0.00  0.00    -0.209 NA
BRANCH  18  19
ATOM     19  C   UNL     1      -3.260  -9.628  10.337  0.00  0.00    +0.115 C 
BRANCH  19  20
ATOM     20  C   UNL     1      -2.667  -9.846  10.868  0.00  0.00    -0.002 A 
ATOM     21  C   UNL     1      -2.759 -10.521  11.334  0.00  0.00    +0.018 A 
ATOM     22  C   UNL     1      -2.166 -10.739  11.865  0.00  0.00    +0.099 A 
ATOM     23  N   UNL     1      -1.483 -10.281  11.931  0.00  0.00    -0.242 NA
ATOM     24  C   UNL     1      -1.392  -9.606  11.466  0.00  0.00    +0.099 A 
ATOM     25  C   UNL     1      -1.984  -9.388  10.934  0.00  0.00    +0.018 A 
ENDBRANCH  19  20
ENDBRANCH  18  19
ENDBRANCH  17  18
TORSDOF 7
ENDMDL
MODEL 6
REMARK VINA RESULT:      -6.1     14.307     16.435
REMARK  Name = 
REMARK  7 active torsions:
REMARK  status: ('A' for Active; 'I' for Inactive)
REMARK    1  A    between atoms: C_3  and  C_4
REMARK    2  A    between atoms: C_4  and  N_5
REMARK    3  A    between atoms: N_5  and  S_6
REMARK    4  A    between atoms: S_6  and  C_9
REMARK    5  A    between atoms: C_17  and  N_18
REMARK    6  A    between atoms: N_18  and  C_19
REMARK    7  A    between atoms: C_19  and  C_20
REMARK                            x       y       z     vdW  Elec       q    Type
REMARK                         _______ _______ _______ _____ _____    ______ ____
ROOT
ATOM      1  O   UNL     1      -4.360 -10.470  13.633  0.00  0.00    -0.219 OA
ATOM      2  C   UNL     1      -5.119 -10.182  13.491  0.00  0.00    +0.199 C 
ATOM      3  C   UNL     1      -5.718 -10.095  14.052  0.00  0.00    +0.166 C 
ATOM     15  O   UNL     1      -6.382  -9.789  13.671  0.00  0.00    -0.350 OA
ATOM     16  C   UNL     1      -6.194  -9.687  12.874  0.00  0.00    +0.162 C 
ATOM     17  C   UNL     1      -5.414  -9.930  12.763  0.00  0.00    +0.135 C 
ENDROOT
BRANCH   3   4
ATOM      4  C   UNL     1      -5.661 -10.281  14.854  0.00  0.00    +0.148 C 
BRANCH   4   5
ATOM      5  N   UNL     1      -6.158  -9.911  15.400  0.00  0.00    -0.075 NA
BRANCH   5   6
ATOM      6  S   UNL     1      -6.082 -10.076  16.205  0.00  0.00    +0.077 S 
ATOM      7  O   UNL     1      -6.498 -10.781  16.099  0.00  0.00    -0.152 OA
ATOM      8  O   UNL     1      -5.667  -9.371  16.310  0.00  0.00    -0.152 OA
BRANCH   6   9
ATOM      9  C   UNL     1      -6.007 -10.241  17.009  0.00  0.00    +0.124 A 
ATOM     10  C   UNL     1      -6.675 -10.251  17.493  0.00  0.00    +0.020 A 
ATOM     11  C   UNL     1      -6.600 -10.416  18.297  0.00  0.00    +0.001 A 
ATOM     12  C   UNL     1      -5.856 -10.572  18.619  0.00  0.00    +0.000 A 
ATOM     13  C   UNL     1      -5.188 -10.563  18.135  0.00  0.00    +0.001 A 
ATOM     14  C   UNL     1      -5.263 -10.397  17.330  0.00  0.00    +0.020 A 
ENDBRANCH   6   9
ENDBRANCH   5   6
ENDBRANCH   4   5
ENDBRANCH   3   4
BRANCH  17  18
ATOM     18  N   UNL     1      -5.001  -9.922  12.049  0.00  0.00    -0.209 NA
BRANCH  18  19
ATOM     19  C   UNL     1      -5.292  -9.491  11.409  0.00  0.00    +0.115 C 
BRANCH  19  20
ATOM     20  C   UNL     1      -4.845  -9.425  10.719  0.00  0.00    -0.002 A 
ATOM     21  C   UNL     1      -4.738  -8.688  10.365  0.00  0.00    +0.018 A 
ATOM     22  C   UNL     1      -4.291  -8.622   9.674  0.00  0.00    +0.099 A 
ATOM     23  N   UNL     1      -3.951  -9.294   9.338  0.00  0.00    -0.242 NA
ATOM     24  C   UNL     1      -4.057 -10.032   9.692  0.00  0.00    +0.099 A 
ATOM     25  C   UNL     1      -4.504 -10.097  10.383  0.00  0.00    +0.018 A 
ENDBRANCH  19  20
ENDBRANCH  18  19
ENDBRANCH  17  18
TORSDOF 7
ENDMDL
