REMARK  Name = 
REMARK  6 active torsions:
REMARK  status: ('A' for Active; 'I' for Inactive)
REMARK    1  A    between atoms: C_5  and  C_6
REMARK    2  A    between atoms: C_6  and  C_7
REMARK    3  A    between atoms: C_16  and  C_17
REMARK    4  A    between atoms: C_17  and  N_18
REMARK    5  A    between atoms: N_18  and  S_19
REMARK    6  A    between atoms: S_19  and  C_22
REMARK                            x       y       z     vdW  Elec       q    Type
REMARK                         _______ _______ _______ _____ _____    ______ ____
ROOT
ATOM      1  O   UNL     1       1.429  -2.475   0.000  0.00  0.00    -0.218 OA
ATOM      2  C   UNL     1       1.429  -3.300   0.000  0.00  0.00    +0.213 C 
ATOM      3  C   UNL     1       2.096  -3.785   0.000  0.00  0.00    +0.212 C 
ATOM      4  O   UNL     1       2.881  -3.530   0.000  0.00  0.00    -0.218 OA
ATOM      5  C   UNL     1       1.841  -4.569   0.000  0.00  0.00    +0.157 C 
ATOM     15  O   UNL     1       1.016  -4.569   0.000  0.00  0.00    -0.351 OA
ATOM     16  C   UNL     1       0.761  -3.785   0.000  0.00  0.00    +0.167 C 
ENDROOT
BRANCH   5   6
ATOM      6  C   UNL     1       2.326  -5.237   0.000  0.00  0.00    +0.117 C 
BRANCH   6   7
ATOM      7  C   UNL     1       3.147  -5.151   0.000  0.00  0.00    +0.228 C 
ATOM      8  O   UNL     1       3.482  -4.397   0.000  0.00  0.00    -0.275 OA
ATOM      9  N   UNL     1       3.632  -5.818   0.000  0.00  0.00    -0.274 N 
ATOM     10  C   UNL     1       4.452  -5.732   0.000  0.00  0.00    +0.125 C 
ATOM     11  C   UNL     1       4.937  -6.399   0.000  0.00  0.00    +0.164 C 
ATOM     12  O   UNL     1       4.602  -7.153   0.000  0.00  0.00    -0.350 OA
ATOM     13  C   UNL     1       3.781  -7.239   0.000  0.00  0.00    +0.164 C 
ATOM     14  C   UNL     1       3.296  -6.572   0.000  0.00  0.00    +0.125 C 
ENDBRANCH   6   7
ENDBRANCH   5   6
BRANCH  16  17
ATOM     17  C   UNL     1      -0.023  -3.530   0.000  0.00  0.00    +0.148 C 
BRANCH  17  18
ATOM     18  N   UNL     1      -0.636  -4.082   0.000  0.00  0.00    -0.075 NA
BRANCH  18  19
ATOM     19  S   UNL     1      -1.421  -3.827   0.000  0.00  0.00    +0.077 S 
ATOM     20  O   UNL     1      -1.166  -3.042   0.000  0.00  0.00    -0.152 OA
ATOM     21  O   UNL     1      -1.676  -4.612   0.000  0.00  0.00    -0.152 OA
BRANCH  19  22
ATOM     22  C   UNL     1      -2.205  -3.572   0.000  0.00  0.00    +0.124 A 
ATOM     23  C   UNL     1      -2.819  -4.124   0.000  0.00  0.00    +0.021 A 
ATOM     24  C   UNL     1      -3.603  -3.869   0.000  0.00  0.00    +0.013 A 
ATOM     25  C   UNL     1      -3.775  -3.062   0.000  0.00  0.00    +0.058 A 
ATOM     26 CL   UNL     1      -4.559  -2.807   0.000  0.00  0.00    -0.082 Cl
ATOM     27  C   UNL     1      -3.162  -2.510   0.000  0.00  0.00    +0.013 A 
ATOM     28  C   UNL     1      -2.377  -2.765   0.000  0.00  0.00    +0.021 A 
ENDBRANCH  19  22
ENDBRANCH  18  19
ENDBRANCH  17  18
ENDBRANCH  16  17
TORSDOF 6
