MODEL 1
REMARK VINA RESULT:     -10.9      0.000      0.000
REMARK  Name = 
REMARK  3 active torsions:
REMARK  status: ('A' for Active; 'I' for Inactive)
REMARK    1  A    between atoms: C_4  and  C_5
REMARK    2  A    between atoms: C_5  and  N_6
REMARK    3  A    between atoms: N_12  and  C_13
REMARK                            x       y       z     vdW  Elec       q    Type
REMARK                         _______ _______ _______ _____ _____    ______ ____
ROOT
ATOM      6  N   UNL     1      -3.712   2.613  24.509  0.00  0.00    -0.266 NA
ATOM      7  C   UNL     1      -4.364   2.535  25.008  0.00  0.00    +0.094 C 
ATOM      8  C   UNL     1      -4.639   1.785  25.213  0.00  0.00    +0.112 C 
ATOM      9  N   UNL     1      -4.263   1.112  24.918  0.00  0.00    -0.261 N 
ATOM     10  C   UNL     1      -3.611   1.190  24.419  0.00  0.00    +0.113 C 
ATOM     11  C   UNL     1      -3.354   0.433  24.216  0.00  0.00    +0.116 C 
ATOM     12  N   UNL     1      -3.847  -0.112  24.589  0.00  0.00    -0.264 N 
ATOM     19  C   UNL     1      -4.409   0.308  25.023  0.00  0.00    +0.307 C 
ATOM     20  O   UNL     1      -5.011  -0.020  25.482  0.00  0.00    -0.252 OA
ATOM     21  C   UNL     1      -3.335   1.941  24.214  0.00  0.00    +0.094 C 
ENDROOT
BRANCH  12  13
ATOM     13  C   UNL     1      -3.789  -0.934  24.537  0.00  0.00    +0.077 C 
ATOM     14  C   UNL     1      -4.187  -1.339  23.938  0.00  0.00    +0.020 C 
ATOM     15  C   UNL     1      -4.128  -2.160  23.886  0.00  0.00    +0.002 C 
ATOM     16  C   UNL     1      -3.672  -2.576  24.434  0.00  0.00    +0.000 C 
ATOM     17  C   UNL     1      -3.275  -2.172  25.032  0.00  0.00    +0.002 C 
ATOM     18  C   UNL     1      -3.333  -1.350  25.084  0.00  0.00    +0.020 C 
ENDBRANCH  12  13
BRANCH   6   5
ATOM      5  C   UNL     1      -3.436   3.363  24.304  0.00  0.00    +0.102 C 
BRANCH   5   4
ATOM      1  C   UNL     1      -0.850   4.363  25.167  0.00  0.00    +0.154 C 
ATOM      2  N   UNL     1      -1.654   4.180  25.148  0.00  0.00    -0.248 N 
ATOM      3  C   UNL     1      -2.048   3.784  24.541  0.00  0.00    +0.094 A 
ATOM      4  C   UNL     1      -2.843   3.720  24.752  0.00  0.00    +0.033 A 
ATOM     22  C   UNL     1      -2.941   4.077  25.490  0.00  0.00    +0.119 A 
ATOM     23  N   UNL     1      -2.206   4.361  25.735  0.00  0.00    -0.168 NA
ENDBRANCH   5   4
ENDBRANCH   6   5
TORSDOF 3
ENDMDL
MODEL 2
REMARK VINA RESULT:     -10.1      1.911      2.431
REMARK  Name = 
REMARK  3 active torsions:
REMARK  status: ('A' for Active; 'I' for Inactive)
REMARK    1  A    between atoms: C_4  and  C_5
REMARK    2  A    between atoms: C_5  and  N_6
REMARK    3  A    between atoms: N_12  and  C_13
REMARK                            x       y       z     vdW  Elec       q    Type
REMARK                         _______ _______ _______ _____ _____    ______ ____
ROOT
ATOM      6  N   UNL     1      -0.820   1.399  25.459  0.00  0.00    -0.266 NA
ATOM      7  C   UNL     1      -0.288   1.018  24.956  0.00  0.00    +0.094 C 
ATOM      8  C   UNL     1      -0.509   0.321  24.576  0.00  0.00    +0.112 C 
ATOM      9  N   UNL     1      -1.261   0.004  24.696  0.00  0.00    -0.261 N 
ATOM     10  C   UNL     1      -1.793   0.386  25.198  0.00  0.00    +0.113 C 
ATOM     11  C   UNL     1      -2.492  -0.052  25.210  0.00  0.00    +0.116 C 
ATOM     12  N   UNL     1      -2.392  -0.705  24.716  0.00  0.00    -0.264 N 
ATOM     19  C   UNL     1      -1.632  -0.669  24.398  0.00  0.00    +0.307 C 
ATOM     20  O   UNL     1      -1.299  -1.213  23.874  0.00  0.00    -0.252 OA
ATOM     21  C   UNL     1      -1.572   1.084  25.580  0.00  0.00    +0.094 C 
ENDROOT
BRANCH  12  13
ATOM     13  C   UNL     1      -2.954  -1.290  24.566  0.00  0.00    +0.077 C 
ATOM     14  C   UNL     1      -3.582  -1.137  24.052  0.00  0.00    +0.020 C 
ATOM     15  C   UNL     1      -4.144  -1.722  23.901  0.00  0.00    +0.002 C 
ATOM     16  C   UNL     1      -4.078  -2.460  24.265  0.00  0.00    +0.000 C 
ATOM     17  C   UNL     1      -3.451  -2.612  24.778  0.00  0.00    +0.002 C 
ATOM     18  C   UNL     1      -2.889  -2.027  24.929  0.00  0.00    +0.020 C 
ENDBRANCH  12  13
BRANCH   6   5
ATOM      5  C   UNL     1      -0.599   2.097  25.840  0.00  0.00    +0.102 C 
BRANCH   5   4
ATOM      1  C   UNL     1      -1.833   4.668  25.291  0.00  0.00    +0.154 C 
ATOM      2  N   UNL     1      -1.340   4.008  25.245  0.00  0.00    -0.248 N 
ATOM      3  C   UNL     1      -1.361   3.351  25.742  0.00  0.00    +0.094 A 
ATOM      4  C   UNL     1      -0.773   2.827  25.497  0.00  0.00    +0.033 A 
ATOM     22  C   UNL     1      -0.388   3.161  24.847  0.00  0.00    +0.119 A 
ATOM     23  N   UNL     1      -0.739   3.891  24.691  0.00  0.00    -0.168 NA
ENDBRANCH   5   4
ENDBRANCH   6   5
TORSDOF 3
ENDMDL
MODEL 3
REMARK VINA RESULT:     -10.1      1.260      4.835
REMARK  Name = 
REMARK  3 active torsions:
REMARK  status: ('A' for Active; 'I' for Inactive)
REMARK    1  A    between atoms: C_4  and  C_5
REMARK    2  A    between atoms: C_5  and  N_6
REMARK    3  A    between atoms: N_12  and  C_13
REMARK                            x       y       z     vdW  Elec       q    Type
REMARK                         _______ _______ _______ _____ _____    ______ ____
ROOT
ATOM      6  N   UNL     1      -3.942   0.578  25.018  0.00  0.00    -0.266 NA
ATOM      7  C   UNL     1      -4.403   0.980  24.465  0.00  0.00    +0.094 C 
ATOM      8  C   UNL     1      -4.187   1.738  24.222  0.00  0.00    +0.112 C 
ATOM      9  N   UNL     1      -3.510   2.094  24.531  0.00  0.00    -0.261 N 
ATOM     10  C   UNL     1      -3.049   1.691  25.085  0.00  0.00    +0.113 C 
ATOM     11  C   UNL     1      -2.417   2.178  25.292  0.00  0.00    +0.116 C 
ATOM     12  N   UNL     1      -2.487   2.882  24.867  0.00  0.00    -0.264 N 
ATOM     19  C   UNL     1      -3.162   2.829  24.397  0.00  0.00    +0.307 C 
ATOM     20  O   UNL     1      -3.442   3.411  23.883  0.00  0.00    -0.252 OA
ATOM     21  C   UNL     1      -3.265   0.933  25.328  0.00  0.00    +0.094 C 
ENDROOT
BRANCH  12  13
ATOM     13  C   UNL     1      -1.971   3.525  24.906  0.00  0.00    +0.077 C 
ATOM     14  C   UNL     1      -1.221   3.474  24.564  0.00  0.00    +0.020 C 
ATOM     15  C   UNL     1      -0.706   4.117  24.603  0.00  0.00    +0.002 C 
ATOM     16  C   UNL     1      -0.941   4.811  24.982  0.00  0.00    +0.000 C 
ATOM     17  C   UNL     1      -1.690   4.862  25.323  0.00  0.00    +0.002 C 
ATOM     18  C   UNL     1      -2.205   4.219  25.285  0.00  0.00    +0.020 C 
ENDBRANCH  12  13
BRANCH   6   5
ATOM      5  C   UNL     1      -4.157  -0.181  25.262  0.00  0.00    +0.102 C 
BRANCH   5   4
ATOM      1  C   UNL     1      -2.653  -2.522  24.431  0.00  0.00    +0.154 C 
ATOM      2  N   UNL     1      -3.211  -1.915  24.453  0.00  0.00    -0.248 N 
ATOM      3  C   UNL     1      -3.268  -1.329  25.031  0.00  0.00    +0.094 A 
ATOM      4  C   UNL     1      -3.902  -0.839  24.835  0.00  0.00    +0.033 A 
ATOM     22  C   UNL     1      -4.237  -1.122  24.135  0.00  0.00    +0.119 A 
ATOM     23  N   UNL     1      -3.810  -1.787  23.899  0.00  0.00    -0.168 NA
ENDBRANCH   5   4
ENDBRANCH   6   5
TORSDOF 3
ENDMDL
