MODEL 1
REMARK VINA RESULT:     -12.8      0.000      0.000
REMARK  Name = 
REMARK  9 active torsions:
REMARK  status: ('A' for Active; 'I' for Inactive)
REMARK    1  A    between atoms: N_2  and  C_4
REMARK    2  A    between atoms: C_7  and  C_8
REMARK    3  A    between atoms: C_8  and  N_9
REMARK    4  A    between atoms: N_9  and  C_10
REMARK    5  A    between atoms: C_22  and  C_23
REMARK    6  A    between atoms: C_23  and  C_24
REMARK    7  A    between atoms: C_24  and  C_25
REMARK    8  A    between atoms: N_27  and  C_28
REMARK    9  A    between atoms: C_28  and  C_29
REMARK                            x       y       z     vdW  Elec       q    Type
REMARK                         _______ _______ _______ _____ _____    ______ ____
ROOT
ATOM     10  C   UNL     1      -1.852  -0.445  24.922  0.00  0.00    +0.073 C 
ATOM     11  C   UNL     1      -1.193  -0.930  25.029  0.00  0.00    +0.017 C 
ATOM     12  C   UNL     1      -1.425  -1.710  24.894  0.00  0.00    +0.001 C 
ATOM     13  C   UNL     1      -1.493  -2.526  24.793  0.00  0.00    +0.000 C 
ATOM     14  C   UNL     1      -0.638  -1.883  25.064  0.00  0.00    +0.000 C 
ATOM     15  C   UNL     1      -2.228  -1.707  24.702  0.00  0.00    +0.004 C 
ATOM     16  C   UNL     1      -2.753  -2.315  24.514  0.00  0.00    +0.030 C 
ATOM     17  C   UNL     1      -3.542  -2.142  24.343  0.00  0.00    +0.127 C 
ATOM     18  C   UNL     1      -3.553  -2.962  24.256  0.00  0.00    +0.033 C 
ATOM     19  O   UNL     1      -4.333  -2.254  24.143  0.00  0.00    -0.226 OA
ATOM     20  C   UNL     1      -3.805  -1.361  24.361  0.00  0.00    +0.030 C 
ATOM     21  C   UNL     1      -3.280  -0.752  24.549  0.00  0.00    +0.004 C 
ATOM     22  C   UNL     1      -2.492  -0.926  24.719  0.00  0.00    +0.015 C 
ENDROOT
BRANCH  10   9
ATOM      9  N   UNL     1      -1.868   0.376  25.002  0.00  0.00    -0.215 NA
BRANCH   9   8
ATOM      8  C   UNL     1      -1.223   0.771  25.330  0.00  0.00    +0.115 C 
BRANCH   8   7
ATOM      4  C   UNL     1      -0.945   3.204  24.968  0.00  0.00    +0.048 A 
ATOM      5  C   UNL     1      -0.825   2.677  24.344  0.00  0.00    +0.014 A 
ATOM      6  C   UNL     1      -0.918   1.867  24.465  0.00  0.00    -0.002 A 
ATOM      7  C   UNL     1      -1.131   1.582  25.209  0.00  0.00    -0.005 A 
ATOM     35  C   UNL     1      -1.251   2.108  25.833  0.00  0.00    -0.002 A 
ATOM     36  C   UNL     1      -1.158   2.919  25.712  0.00  0.00    +0.014 A 
BRANCH   4   2
ATOM      1  C   UNL     1      -1.369   4.547  25.208  0.00  0.00    +0.112 C 
ATOM      2  N   UNL     1      -0.853   4.015  24.847  0.00  0.00    -0.304 N 
ATOM      3  C   UNL     1      -0.243   4.293  24.366  0.00  0.00    +0.112 C 
ENDBRANCH   4   2
ENDBRANCH   8   7
ENDBRANCH   9   8
ENDBRANCH  10   9
BRANCH  22  23
ATOM     23  C   UNL     1      -2.675  -0.123  24.758  0.00  0.00    +0.011 C 
BRANCH  23  24
ATOM     24  C   UNL     1      -3.438   0.118  24.957  0.00  0.00    +0.087 C 
BRANCH  24  25
ATOM     25  C   UNL     1      -3.791   0.745  24.553  0.00  0.00    +0.242 C 
ATOM     26  O   UNL     1      -3.807   1.049  23.787  0.00  0.00    -0.273 OA
ATOM     27  N   UNL     1      -4.287   1.268  24.955  0.00  0.00    -0.200 NA
BRANCH  27  28
ATOM     28  C   UNL     1      -4.639   1.894  24.551  0.00  0.00    +0.143 C 
BRANCH  28  29
ATOM     29  C   UNL     1      -4.958   2.529  24.972  0.00  0.00    +0.019 A 
ATOM     30  C   UNL     1      -4.649   3.287  24.871  0.00  0.00    +0.001 A 
ATOM     31  C   UNL     1      -4.968   3.922  25.292  0.00  0.00    +0.020 A 
ATOM     32  C   UNL     1      -5.596   3.798  25.813  0.00  0.00    +0.099 A 
ATOM     33  N   UNL     1      -5.904   3.039  25.913  0.00  0.00    -0.243 NA
ATOM     34  C   UNL     1      -5.586   2.405  25.493  0.00  0.00    +0.096 A 
ENDBRANCH  28  29
ENDBRANCH  27  28
ENDBRANCH  24  25
ENDBRANCH  23  24
ENDBRANCH  22  23
TORSDOF 9
ENDMDL
MODEL 2
REMARK VINA RESULT:     -12.6      0.994      3.375
REMARK  Name = 
REMARK  9 active torsions:
REMARK  status: ('A' for Active; 'I' for Inactive)
REMARK    1  A    between atoms: N_2  and  C_4
REMARK    2  A    between atoms: C_7  and  C_8
REMARK    3  A    between atoms: C_8  and  N_9
REMARK    4  A    between atoms: N_9  and  C_10
REMARK    5  A    between atoms: C_22  and  C_23
REMARK    6  A    between atoms: C_23  and  C_24
REMARK    7  A    between atoms: C_24  and  C_25
REMARK    8  A    between atoms: N_27  and  C_28
REMARK    9  A    between atoms: C_28  and  C_29
REMARK                            x       y       z     vdW  Elec       q    Type
REMARK                         _______ _______ _______ _____ _____    ______ ____
ROOT
ATOM     10  C   UNL     1      -3.443  -0.577  24.435  0.00  0.00    +0.073 C 
ATOM     11  C   UNL     1      -4.025  -1.108  24.190  0.00  0.00    +0.017 C 
ATOM     12  C   UNL     1      -3.695  -1.864  24.187  0.00  0.00    +0.001 C 
ATOM     13  C   UNL     1      -3.522  -2.669  24.130  0.00  0.00    +0.000 C 
ATOM     14  C   UNL     1      -4.444  -2.096  23.931  0.00  0.00    +0.000 C 
ATOM     15  C   UNL     1      -2.910  -1.800  24.431  0.00  0.00    +0.004 C 
ATOM     16  C   UNL     1      -2.316  -2.364  24.533  0.00  0.00    +0.030 C 
ATOM     17  C   UNL     1      -1.566  -2.132  24.789  0.00  0.00    +0.127 C 
ATOM     18  C   UNL     1      -1.448  -2.946  24.715  0.00  0.00    +0.033 C 
ATOM     19  O   UNL     1      -0.776  -2.183  25.019  0.00  0.00    -0.226 OA
ATOM     20  C   UNL     1      -1.411  -1.337  24.943  0.00  0.00    +0.030 C 
ATOM     21  C   UNL     1      -2.005  -0.773  24.840  0.00  0.00    +0.004 C 
ATOM     22  C   UNL     1      -2.754  -1.006  24.585  0.00  0.00    +0.015 C 
ENDROOT
BRANCH  10   9
ATOM      9  N   UNL     1      -3.535   0.239  24.518  0.00  0.00    -0.215 NA
BRANCH   9   8
ATOM      8  C   UNL     1      -4.189   0.616  24.186  0.00  0.00    +0.115 C 
BRANCH   8   7
ATOM      4  C   UNL     1      -5.008   2.747  25.142  0.00  0.00    +0.048 A 
ATOM      5  C   UNL     1      -5.138   2.038  25.543  0.00  0.00    +0.014 A 
ATOM      6  C   UNL     1      -4.865   1.328  25.224  0.00  0.00    -0.002 A 
ATOM      7  C   UNL     1      -4.462   1.326  24.505  0.00  0.00    -0.005 A 
ATOM     35  C   UNL     1      -4.331   2.035  24.104  0.00  0.00    -0.002 A 
ATOM     36  C   UNL     1      -4.604   2.746  24.422  0.00  0.00    +0.014 A 
BRANCH   4   2
ATOM      1  C   UNL     1      -4.782   4.115  25.491  0.00  0.00    +0.112 C 
ATOM      2  N   UNL     1      -5.280   3.458  25.460  0.00  0.00    -0.304 N 
ATOM      3  C   UNL     1      -6.052   3.511  25.747  0.00  0.00    +0.112 C 
ENDBRANCH   4   2
ENDBRANCH   8   7
ENDBRANCH   9   8
ENDBRANCH  10   9
BRANCH  22  23
ATOM     23  C   UNL     1      -2.680  -0.194  24.716  0.00  0.00    +0.011 C 
BRANCH  23  24
ATOM     24  C   UNL     1      -1.951   0.177  24.608  0.00  0.00    +0.087 C 
BRANCH  24  25
ATOM     25  C   UNL     1      -1.697   0.750  25.145  0.00  0.00    +0.242 C 
ATOM     26  O   UNL     1      -1.695   0.867  25.960  0.00  0.00    -0.273 OA
ATOM     27  N   UNL     1      -1.329   1.436  24.871  0.00  0.00    -0.200 NA
BRANCH  27  28
ATOM     28  C   UNL     1      -1.075   2.009  25.408  0.00  0.00    +0.143 C 
BRANCH  28  29
ATOM     29  C   UNL     1      -0.942   2.783  25.153  0.00  0.00    +0.019 A 
ATOM     30  C   UNL     1      -1.238   3.417  25.590  0.00  0.00    +0.001 A 
ATOM     31  C   UNL     1      -1.105   4.191  25.335  0.00  0.00    +0.020 A 
ATOM     32  C   UNL     1      -0.677   4.329  24.643  0.00  0.00    +0.099 A 
ATOM     33  N   UNL     1      -0.382   3.694  24.207  0.00  0.00    -0.243 NA
ATOM     34  C   UNL     1      -0.515   2.921  24.461  0.00  0.00    +0.096 A 
ENDBRANCH  28  29
ENDBRANCH  27  28
ENDBRANCH  24  25
ENDBRANCH  23  24
ENDBRANCH  22  23
TORSDOF 9
ENDMDL
MODEL 3
REMARK VINA RESULT:     -12.3      1.704      5.549
REMARK  Name = 
REMARK  9 active torsions:
REMARK  status: ('A' for Active; 'I' for Inactive)
REMARK    1  A    between atoms: N_2  and  C_4
REMARK    2  A    between atoms: C_7  and  C_8
REMARK    3  A    between atoms: C_8  and  N_9
REMARK    4  A    between atoms: N_9  and  C_10
REMARK    5  A    between atoms: C_22  and  C_23
REMARK    6  A    between atoms: C_23  and  C_24
REMARK    7  A    between atoms: C_24  and  C_25
REMARK    8  A    between atoms: N_27  and  C_28
REMARK    9  A    between atoms: C_28  and  C_29
REMARK                            x       y       z     vdW  Elec       q    Type
REMARK                         _______ _______ _______ _____ _____    ______ ____
ROOT
ATOM     10  C   UNL     1      -3.966   2.010  25.067  0.00  0.00    +0.073 C 
ATOM     11  C   UNL     1      -4.749   2.249  25.168  0.00  0.00    +0.017 C 
ATOM     12  C   UNL     1      -4.747   3.044  25.389  0.00  0.00    +0.001 C 
ATOM     13  C   UNL     1      -4.916   3.819  25.612  0.00  0.00    +0.000 C 
ATOM     14  C   UNL     1      -5.566   2.953  25.400  0.00  0.00    +0.000 C 
ATOM     15  C   UNL     1      -3.963   3.296  25.424  0.00  0.00    +0.004 C 
ATOM     16  C   UNL     1      -3.625   4.026  25.612  0.00  0.00    +0.030 C 
ATOM     17  C   UNL     1      -2.805   4.116  25.600  0.00  0.00    +0.127 C 
ATOM     18  C   UNL     1      -3.031   4.878  25.822  0.00  0.00    +0.033 C 
ATOM     19  O   UNL     1      -2.064   4.471  25.666  0.00  0.00    -0.226 OA
ATOM     20  C   UNL     1      -2.322   3.477  25.402  0.00  0.00    +0.030 C 
ATOM     21  C   UNL     1      -2.660   2.748  25.214  0.00  0.00    +0.004 C 
ATOM     22  C   UNL     1      -3.479   2.658  25.225  0.00  0.00    +0.015 C 
ENDROOT
BRANCH  10   9
ATOM      9  N   UNL     1      -3.713   1.256  24.846  0.00  0.00    -0.215 NA
BRANCH   9   8
ATOM      8  C   UNL     1      -4.264   0.686  24.622  0.00  0.00    +0.115 C 
BRANCH   8   7
ATOM      4  C   UNL     1      -3.603  -1.696  24.500  0.00  0.00    +0.048 A 
ATOM      5  C   UNL     1      -3.729  -1.341  25.233  0.00  0.00    +0.014 A 
ATOM      6  C   UNL     1      -3.949  -0.547  25.273  0.00  0.00    -0.002 A 
ATOM      7  C   UNL     1      -4.044  -0.109  24.581  0.00  0.00    -0.005 A 
ATOM     35  C   UNL     1      -3.918  -0.464  23.848  0.00  0.00    -0.002 A 
ATOM     36  C   UNL     1      -3.697  -1.258  23.807  0.00  0.00    +0.014 A 
BRANCH   4   2
ATOM      1  C   UNL     1      -2.617  -2.718  24.666  0.00  0.00    +0.112 C 
ATOM      2  N   UNL     1      -3.382  -2.490  24.458  0.00  0.00    -0.304 N 
ATOM      3  C   UNL     1      -3.928  -3.057  24.209  0.00  0.00    +0.112 C 
ENDBRANCH   4   2
ENDBRANCH   8   7
ENDBRANCH   9   8
ENDBRANCH  10   9
BRANCH  22  23
ATOM     23  C   UNL     1      -3.069   1.973  25.017  0.00  0.00    +0.011 C 
BRANCH  23  24
ATOM     24  C   UNL     1      -2.328   2.029  24.659  0.00  0.00    +0.087 C 
BRANCH  24  25
ATOM     25  C   UNL     1      -1.717   1.526  24.896  0.00  0.00    +0.242 C 
ATOM     26  O   UNL     1      -1.466   1.151  25.586  0.00  0.00    -0.273 OA
ATOM     27  N   UNL     1      -1.151   1.279  24.349  0.00  0.00    -0.200 NA
BRANCH  27  28
ATOM     28  C   UNL     1      -0.541   0.777  24.586  0.00  0.00    +0.143 C 
BRANCH  28  29
ATOM     29  C   UNL     1      -0.007   0.485  24.029  0.00  0.00    +0.019 A 
ATOM     30  C   UNL     1      -0.078  -0.291  23.758  0.00  0.00    +0.001 A 
ATOM     31  C   UNL     1       0.457  -0.583  23.200  0.00  0.00    +0.020 A 
ATOM     32  C   UNL     1       1.060  -0.099  22.914  0.00  0.00    +0.099 A 
ATOM     33  N   UNL     1       1.129   0.678  23.185  0.00  0.00    -0.243 NA
ATOM     34  C   UNL     1       0.596   0.969  23.742  0.00  0.00    +0.096 A 
ENDBRANCH  28  29
ENDBRANCH  27  28
ENDBRANCH  24  25
ENDBRANCH  23  24
ENDBRANCH  22  23
TORSDOF 9
ENDMDL
MODEL 4
REMARK VINA RESULT:     -12.2      1.509      4.460
REMARK  Name = 
REMARK  9 active torsions:
REMARK  status: ('A' for Active; 'I' for Inactive)
REMARK    1  A    between atoms: N_2  and  C_4
REMARK    2  A    between atoms: C_7  and  C_8
REMARK    3  A    between atoms: C_8  and  N_9
REMARK    4  A    between atoms: N_9  and  C_10
REMARK    5  A    between atoms: C_22  and  C_23
REMARK    6  A    between atoms: C_23  and  C_24
REMARK    7  A    between atoms: C_24  and  C_25
REMARK    8  A    between atoms: N_27  and  C_28
REMARK    9  A    between atoms: C_28  and  C_29
REMARK                            x       y       z     vdW  Elec       q    Type
REMARK                         _______ _______ _______ _____ _____    ______ ____
ROOT
ATOM     10  C   UNL     1      -2.714   2.658  25.195  0.00  0.00    +0.073 C 
ATOM     11  C   UNL     1      -2.392   3.372  25.454  0.00  0.00    +0.017 C 
ATOM     12  C   UNL     1      -3.015   3.884  25.629  0.00  0.00    +0.001 C 
ATOM     13  C   UNL     1      -3.512   4.506  25.845  0.00  0.00    +0.000 C 
ATOM     14  C   UNL     1      -2.413   4.412  25.824  0.00  0.00    +0.000 C 
ATOM     15  C   UNL     1      -3.722   3.486  25.478  0.00  0.00    +0.004 C 
ATOM     16  C   UNL     1      -4.512   3.715  25.550  0.00  0.00    +0.030 C 
ATOM     17  C   UNL     1      -5.114   3.186  25.354  0.00  0.00    +0.127 C 
ATOM     18  C   UNL     1      -5.564   3.839  25.582  0.00  0.00    +0.033 C 
ATOM     19  O   UNL     1      -5.872   2.885  25.238  0.00  0.00    -0.226 OA
ATOM     20  C   UNL     1      -4.928   2.429  25.087  0.00  0.00    +0.030 C 
ATOM     21  C   UNL     1      -4.138   2.200  25.015  0.00  0.00    +0.004 C 
ATOM     22  C   UNL     1      -3.536   2.728  25.210  0.00  0.00    +0.015 C 
ENDROOT
BRANCH  10   9
ATOM      9  N   UNL     1      -2.287   1.991  24.963  0.00  0.00    -0.215 NA
BRANCH   9   8
ATOM      8  C   UNL     1      -1.483   1.935  25.133  0.00  0.00    +0.115 C 
BRANCH   8   7
ATOM      4  C   UNL     1      -0.062   0.331  23.894  0.00  0.00    +0.048 A 
ATOM      5  C   UNL     1      -0.344   1.009  23.517  0.00  0.00    +0.014 A 
ATOM      6  C   UNL     1      -0.818   1.543  23.931  0.00  0.00    -0.002 A 
ATOM      7  C   UNL     1      -1.009   1.401  24.720  0.00  0.00    -0.005 A 
ATOM     35  C   UNL     1      -0.727   0.723  25.096  0.00  0.00    -0.002 A 
ATOM     36  C   UNL     1      -0.253   0.189  24.684  0.00  0.00    +0.014 A 
BRANCH   4   2
ATOM      1  C   UNL     1       0.260  -1.013  23.531  0.00  0.00    +0.112 C 
ATOM      2  N   UNL     1       0.412  -0.203  23.481  0.00  0.00    -0.304 N 
ATOM      3  C   UNL     1       1.038   0.072  23.019  0.00  0.00    +0.112 C 
ENDBRANCH   4   2
ENDBRANCH   8   7
ENDBRANCH   9   8
ENDBRANCH  10   9
BRANCH  22  23
ATOM     23  C   UNL     1      -3.266   1.993  24.951  0.00  0.00    +0.011 C 
BRANCH  23  24
ATOM     24  C   UNL     1      -3.743   1.325  25.035  0.00  0.00    +0.087 C 
BRANCH  24  25
ATOM     25  C   UNL     1      -3.773   0.761  24.433  0.00  0.00    +0.242 C 
ATOM     26  O   UNL     1      -3.751   0.743  23.609  0.00  0.00    -0.273 OA
ATOM     27  N   UNL     1      -3.844  -0.039  24.621  0.00  0.00    -0.200 NA
BRANCH  27  28
ATOM     28  C   UNL     1      -3.873  -0.602  24.019  0.00  0.00    +0.143 C 
BRANCH  28  29
ATOM     29  C   UNL     1      -3.812  -1.405  24.202  0.00  0.00    +0.019 A 
ATOM     30  C   UNL     1      -3.296  -1.653  24.796  0.00  0.00    +0.001 A 
ATOM     31  C   UNL     1      -3.235  -2.456  24.980  0.00  0.00    +0.020 A 
ATOM     32  C   UNL     1      -3.689  -3.009  24.569  0.00  0.00    +0.099 A 
ATOM     33  N   UNL     1      -4.204  -2.759  23.975  0.00  0.00    -0.243 NA
ATOM     34  C   UNL     1      -4.266  -1.958  23.792  0.00  0.00    +0.096 A 
ENDBRANCH  28  29
ENDBRANCH  27  28
ENDBRANCH  24  25
ENDBRANCH  23  24
ENDBRANCH  22  23
TORSDOF 9
ENDMDL
