MODEL 1
REMARK VINA RESULT:      -9.4      0.000      0.000
REMARK  Name = 
REMARK  6 active torsions:
REMARK  status: ('A' for Active; 'I' for Inactive)
REMARK    1  A    between atoms: O_2  and  C_3
REMARK    2  A    between atoms: C_3  and  C_5
REMARK    3  A    between atoms: C_5  and  O_6
REMARK    4  A    between atoms: O_6  and  C_7
REMARK    5  A    between atoms: C_11  and  N_15
REMARK    6  A    between atoms: C_18  and  C_22
REMARK                            x       y       z     vdW  Elec       q    Type
REMARK                         _______ _______ _______ _____ _____    ______ ____
ROOT
ATOM      7  C   UNL     1       0.406   0.636  23.667  0.00  0.00    +0.175 C 
ATOM      8  C   UNL     1      -0.031  -0.056  23.769  0.00  0.00    +0.174 C 
ATOM      9  O   UNL     1      -0.741   0.144  24.139  0.00  0.00    -0.349 OA
ATOM     10  C   UNL     1      -0.742   0.958  24.267  0.00  0.00    +0.167 C 
ATOM     11  C   UNL     1      -1.180   1.586  24.575  0.00  0.00    +0.154 C 
ATOM     12  C   UNL     1      -0.743   2.277  24.473  0.00  0.00    +0.166 C 
ATOM     13  O   UNL     1      -0.034   2.078  24.103  0.00  0.00    -0.349 OA
ATOM     14  C   UNL     1      -0.033   1.262  23.975  0.00  0.00    +0.173 C 
ENDROOT
BRANCH  11  15
ATOM     15  N   UNL     1      -1.926   1.530  24.923  0.00  0.00    -0.200 NA
ATOM     16  C   UNL     1      -2.560   1.959  24.613  0.00  0.00    +0.237 A 
ATOM     17  N   UNL     1      -3.305   1.904  24.961  0.00  0.00    -0.212 NA
ATOM     18  C   UNL     1      -3.939   2.332  24.652  0.00  0.00    +0.086 A 
ATOM     19  C   UNL     1      -3.826   2.816  23.993  0.00  0.00    +0.040 A 
ATOM     20  C   UNL     1      -3.080   2.871  23.644  0.00  0.00    +0.103 A 
ATOM     21  N   UNL     1      -2.447   2.443  23.955  0.00  0.00    -0.211 NA
BRANCH  18  22
ATOM     22  C   UNL     1      -4.684   2.277  25.000  0.00  0.00    +0.018 A 
ATOM     23  C   UNL     1      -5.193   1.662  24.789  0.00  0.00    +0.001 A 
ATOM     24  C   UNL     1      -5.939   1.607  25.137  0.00  0.00    +0.000 A 
ATOM     25  C   UNL     1      -6.176   2.165  25.695  0.00  0.00    +0.000 A 
ATOM     26  C   UNL     1      -5.668   2.780  25.906  0.00  0.00    +0.000 A 
ATOM     27  C   UNL     1      -4.921   2.835  25.558  0.00  0.00    +0.001 A 
ENDBRANCH  18  22
ENDBRANCH  11  15
BRANCH   7   6
ATOM      6  O   UNL     1       1.152   0.691  23.319  0.00  0.00    -0.340 OA
BRANCH   6   5
ATOM      5  C   UNL     1       1.488   0.031  22.955  0.00  0.00    +0.252 C 
BRANCH   5   3
ATOM      3  C   UNL     1       2.172   0.113  22.503  0.00  0.00    +0.348 C 
ATOM      4  O   UNL     1       2.170  -0.109  21.708  0.00  0.00    -0.247 OA
BRANCH   3   2
ATOM      1  C   UNL     1       3.568   0.407  22.423  0.00  0.00    +0.256 C 
ATOM      2  O   UNL     1       2.860   0.416  22.844  0.00  0.00    -0.443 OA
ENDBRANCH   3   2
ENDBRANCH   5   3
ENDBRANCH   6   5
ENDBRANCH   7   6
TORSDOF 6
ENDMDL
MODEL 2
REMARK VINA RESULT:      -8.7      2.064      2.837
REMARK  Name = 
REMARK  6 active torsions:
REMARK  status: ('A' for Active; 'I' for Inactive)
REMARK    1  A    between atoms: O_2  and  C_3
REMARK    2  A    between atoms: C_3  and  C_5
REMARK    3  A    between atoms: C_5  and  O_6
REMARK    4  A    between atoms: O_6  and  C_7
REMARK    5  A    between atoms: C_11  and  N_15
REMARK    6  A    between atoms: C_18  and  C_22
REMARK                            x       y       z     vdW  Elec       q    Type
REMARK                         _______ _______ _______ _____ _____    ______ ____
ROOT
ATOM      7  C   UNL     1       2.193   0.587  23.051  0.00  0.00    +0.175 C 
ATOM      8  C   UNL     1       1.931  -0.006  22.541  0.00  0.00    +0.174 C 
ATOM      9  O   UNL     1       1.114  -0.077  22.632  0.00  0.00    -0.349 OA
ATOM     10  C   UNL     1       0.872   0.472  23.197  0.00  0.00    +0.167 C 
ATOM     11  C   UNL     1       0.218   0.768  23.603  0.00  0.00    +0.154 C 
ATOM     12  C   UNL     1       0.480   1.361  24.113  0.00  0.00    +0.166 C 
ATOM     13  O   UNL     1       1.296   1.432  24.022  0.00  0.00    -0.349 OA
ATOM     14  C   UNL     1       1.539   0.882  23.456  0.00  0.00    +0.173 C 
ENDROOT
BRANCH  11  15
ATOM     15  N   UNL     1      -0.563   0.515  23.515  0.00  0.00    -0.200 NA
ATOM     16  C   UNL     1      -0.980   0.228  24.166  0.00  0.00    +0.237 A 
ATOM     17  N   UNL     1      -1.760  -0.025  24.078  0.00  0.00    -0.212 NA
ATOM     18  C   UNL     1      -2.177  -0.312  24.730  0.00  0.00    +0.086 A 
ATOM     19  C   UNL     1      -1.814  -0.346  25.469  0.00  0.00    +0.040 A 
ATOM     20  C   UNL     1      -1.033  -0.093  25.558  0.00  0.00    +0.103 A 
ATOM     21  N   UNL     1      -0.617   0.194  24.906  0.00  0.00    -0.211 NA
BRANCH  18  22
ATOM     22  C   UNL     1      -2.957  -0.565  24.642  0.00  0.00    +0.018 A 
ATOM     23  C   UNL     1      -3.576  -0.020  24.690  0.00  0.00    +0.001 A 
ATOM     24  C   UNL     1      -4.355  -0.273  24.602  0.00  0.00    +0.000 A 
ATOM     25  C   UNL     1      -4.518  -1.071  24.466  0.00  0.00    +0.000 A 
ATOM     26  C   UNL     1      -3.900  -1.615  24.417  0.00  0.00    +0.000 A 
ATOM     27  C   UNL     1      -3.120  -1.362  24.505  0.00  0.00    +0.001 A 
ENDBRANCH  18  22
ENDBRANCH  11  15
BRANCH   7   6
ATOM      6  O   UNL     1       2.974   0.840  23.139  0.00  0.00    -0.340 OA
BRANCH   6   5
ATOM      5  C   UNL     1       3.592   0.384  22.840  0.00  0.00    +0.252 C 
BRANCH   5   3
ATOM      3  C   UNL     1       4.363   0.509  23.104  0.00  0.00    +0.348 C 
ATOM      4  O   UNL     1       4.649   1.278  23.191  0.00  0.00    -0.247 OA
BRANCH   3   2
ATOM      1  C   UNL     1       5.644  -0.013  23.463  0.00  0.00    +0.256 C 
ATOM      2  O   UNL     1       4.849  -0.134  23.281  0.00  0.00    -0.443 OA
ENDBRANCH   3   2
ENDBRANCH   5   3
ENDBRANCH   6   5
ENDBRANCH   7   6
TORSDOF 6
ENDMDL
MODEL 3
REMARK VINA RESULT:      -8.3      2.820      4.271
REMARK  Name = 
REMARK  6 active torsions:
REMARK  status: ('A' for Active; 'I' for Inactive)
REMARK    1  A    between atoms: O_2  and  C_3
REMARK    2  A    between atoms: C_3  and  C_5
REMARK    3  A    between atoms: C_5  and  O_6
REMARK    4  A    between atoms: O_6  and  C_7
REMARK    5  A    between atoms: C_11  and  N_15
REMARK    6  A    between atoms: C_18  and  C_22
REMARK                            x       y       z     vdW  Elec       q    Type
REMARK                         _______ _______ _______ _____ _____    ______ ____
ROOT
ATOM      7  C   UNL     1      -0.795   2.988  24.414  0.00  0.00    +0.175 C 
ATOM      8  C   UNL     1      -0.338   2.449  24.839  0.00  0.00    +0.174 C 
ATOM      9  O   UNL     1      -0.648   1.696  24.710  0.00  0.00    -0.349 OA
ATOM     10  C   UNL     1      -1.295   1.769  24.205  0.00  0.00    +0.167 C 
ATOM     11  C   UNL     1      -1.888   1.349  23.813  0.00  0.00    +0.154 C 
ATOM     12  C   UNL     1      -2.345   1.888  23.388  0.00  0.00    +0.166 C 
ATOM     13  O   UNL     1      -2.035   2.642  23.517  0.00  0.00    -0.349 OA
ATOM     14  C   UNL     1      -1.386   2.568  24.022  0.00  0.00    +0.173 C 
ENDROOT
BRANCH  11  15
ATOM     15  N   UNL     1      -2.003   0.532  23.842  0.00  0.00    -0.200 NA
ATOM     16  C   UNL     1      -2.726   0.226  24.092  0.00  0.00    +0.237 A 
ATOM     17  N   UNL     1      -2.841  -0.590  24.120  0.00  0.00    -0.212 NA
ATOM     18  C   UNL     1      -3.565  -0.897  24.371  0.00  0.00    +0.086 A 
ATOM     19  C   UNL     1      -4.175  -0.387  24.592  0.00  0.00    +0.040 A 
ATOM     20  C   UNL     1      -4.060   0.430  24.564  0.00  0.00    +0.103 A 
ATOM     21  N   UNL     1      -3.336   0.736  24.314  0.00  0.00    -0.211 NA
BRANCH  18  22
ATOM     22  C   UNL     1      -3.680  -1.713  24.399  0.00  0.00    +0.018 A 
ATOM     23  C   UNL     1      -3.337  -2.157  25.005  0.00  0.00    +0.001 A 
ATOM     24  C   UNL     1      -3.452  -2.973  25.034  0.00  0.00    +0.000 A 
ATOM     25  C   UNL     1      -3.910  -3.346  24.458  0.00  0.00    +0.000 A 
ATOM     26  C   UNL     1      -4.252  -2.902  23.852  0.00  0.00    +0.000 A 
ATOM     27  C   UNL     1      -4.137  -2.086  23.823  0.00  0.00    +0.001 A 
ENDBRANCH  18  22
ENDBRANCH  11  15
BRANCH   7   6
ATOM      6  O   UNL     1      -0.680   3.805  24.385  0.00  0.00    -0.340 OA
BRANCH   6   5
ATOM      5  C   UNL     1      -0.759   4.257  25.071  0.00  0.00    +0.252 C 
BRANCH   5   3
ATOM      3  C   UNL     1      -0.911   5.066  25.017  0.00  0.00    +0.348 C 
ATOM      4  O   UNL     1      -0.408   5.552  24.580  0.00  0.00    -0.247 OA
BRANCH   3   2
ATOM      1  C   UNL     1      -1.952   6.043  25.078  0.00  0.00    +0.256 C 
ATOM      2  O   UNL     1      -1.566   5.390  25.401  0.00  0.00    -0.443 OA
ENDBRANCH   3   2
ENDBRANCH   5   3
ENDBRANCH   6   5
ENDBRANCH   7   6
TORSDOF 6
ENDMDL
MODEL 4
REMARK VINA RESULT:      -7.3      2.832      4.643
REMARK  Name = 
REMARK  6 active torsions:
REMARK  status: ('A' for Active; 'I' for Inactive)
REMARK    1  A    between atoms: O_2  and  C_3
REMARK    2  A    between atoms: C_3  and  C_5
REMARK    3  A    between atoms: C_5  and  O_6
REMARK    4  A    between atoms: O_6  and  C_7
REMARK    5  A    between atoms: C_11  and  N_15
REMARK    6  A    between atoms: C_18  and  C_22
REMARK                            x       y       z     vdW  Elec       q    Type
REMARK                         _______ _______ _______ _____ _____    ______ ____
ROOT
ATOM      7  C   UNL     1      -3.165  -0.804  25.032  0.00  0.00    +0.175 C 
ATOM      8  C   UNL     1      -3.819  -0.310  25.127  0.00  0.00    +0.174 C 
ATOM      9  O   UNL     1      -3.581   0.462  24.958  0.00  0.00    -0.349 OA
ATOM     10  C   UNL     1      -2.781   0.445  24.760  0.00  0.00    +0.167 C 
ATOM     11  C   UNL     1      -2.139   0.910  24.533  0.00  0.00    +0.154 C 
ATOM     12  C   UNL     1      -1.485   0.416  24.438  0.00  0.00    +0.166 C 
ATOM     13  O   UNL     1      -1.723  -0.355  24.607  0.00  0.00    -0.349 OA
ATOM     14  C   UNL     1      -2.524  -0.338  24.806  0.00  0.00    +0.173 C 
ENDROOT
BRANCH  11  15
ATOM     15  N   UNL     1      -2.149   1.728  24.420  0.00  0.00    -0.200 NA
ATOM     16  C   UNL     1      -1.652   2.212  24.867  0.00  0.00    +0.237 A 
ATOM     17  N   UNL     1      -1.662   3.029  24.754  0.00  0.00    -0.212 NA
ATOM     18  C   UNL     1      -1.166   3.514  25.201  0.00  0.00    +0.086 A 
ATOM     19  C   UNL     1      -0.660   3.181  25.761  0.00  0.00    +0.040 A 
ATOM     20  C   UNL     1      -0.650   2.363  25.874  0.00  0.00    +0.103 A 
ATOM     21  N   UNL     1      -1.146   1.879  25.427  0.00  0.00    -0.211 NA
BRANCH  18  22
ATOM     22  C   UNL     1      -1.176   4.330  25.089  0.00  0.00    +0.018 A 
ATOM     23  C   UNL     1      -0.541   4.703  24.713  0.00  0.00    +0.001 A 
ATOM     24  C   UNL     1      -0.551   5.520  24.601  0.00  0.00    +0.000 A 
ATOM     25  C   UNL     1      -1.194   5.965  24.863  0.00  0.00    +0.000 A 
ATOM     26  C   UNL     1      -1.828   5.593  25.238  0.00  0.00    +0.000 A 
ATOM     27  C   UNL     1      -1.818   4.775  25.351  0.00  0.00    +0.001 A 
ENDBRANCH  18  22
ENDBRANCH  11  15
BRANCH   7   6
ATOM      6  O   UNL     1      -3.155  -1.621  25.145  0.00  0.00    -0.340 OA
BRANCH   6   5
ATOM      5  C   UNL     1      -3.698  -2.100  24.748  0.00  0.00    +0.252 C 
BRANCH   5   3
ATOM      3  C   UNL     1      -3.576  -2.914  24.704  0.00  0.00    +0.348 C 
ATOM      4  O   UNL     1      -3.415  -3.345  25.388  0.00  0.00    -0.247 OA
BRANCH   3   2
ATOM      1  C   UNL     1      -4.345  -3.445  23.623  0.00  0.00    +0.256 C 
ATOM      2  O   UNL     1      -3.614  -3.298  23.974  0.00  0.00    -0.443 OA
ENDBRANCH   3   2
ENDBRANCH   5   3
ENDBRANCH   6   5
ENDBRANCH   7   6
TORSDOF 6
ENDMDL
MODEL 5
REMARK VINA RESULT:      -6.9      2.033      6.225
REMARK  Name = 
REMARK  6 active torsions:
REMARK  status: ('A' for Active; 'I' for Inactive)
REMARK    1  A    between atoms: O_2  and  C_3
REMARK    2  A    between atoms: C_3  and  C_5
REMARK    3  A    between atoms: C_5  and  O_6
REMARK    4  A    between atoms: O_6  and  C_7
REMARK    5  A    between atoms: C_11  and  N_15
REMARK    6  A    between atoms: C_18  and  C_22
REMARK                            x       y       z     vdW  Elec       q    Type
REMARK                         _______ _______ _______ _____ _____    ______ ____
ROOT
ATOM      7  C   UNL     1      -3.191   2.260  24.588  0.00  0.00    +0.175 C 
ATOM      8  C   UNL     1      -3.059   2.602  23.849  0.00  0.00    +0.174 C 
ATOM      9  O   UNL     1      -2.275   2.455  23.638  0.00  0.00    -0.349 OA
ATOM     10  C   UNL     1      -1.923   2.024  24.246  0.00  0.00    +0.167 C 
ATOM     11  C   UNL     1      -1.221   1.667  24.493  0.00  0.00    +0.154 C 
ATOM     12  C   UNL     1      -1.353   1.326  25.232  0.00  0.00    +0.166 C 
ATOM     13  O   UNL     1      -2.137   1.472  25.443  0.00  0.00    -0.349 OA
ATOM     14  C   UNL     1      -2.489   1.904  24.834  0.00  0.00    +0.173 C 
ENDROOT
BRANCH  11  15
ATOM     15  N   UNL     1      -0.511   1.654  24.072  0.00  0.00    -0.200 NA
ATOM     16  C   UNL     1      -0.147   0.934  23.900  0.00  0.00    +0.237 A 
ATOM     17  N   UNL     1       0.563   0.920  23.480  0.00  0.00    -0.212 NA
ATOM     18  C   UNL     1       0.927   0.200  23.307  0.00  0.00    +0.086 A 
ATOM     19  C   UNL     1       0.581  -0.507  23.555  0.00  0.00    +0.040 A 
ATOM     20  C   UNL     1      -0.130  -0.493  23.975  0.00  0.00    +0.103 A 
ATOM     21  N   UNL     1      -0.493   0.227  24.147  0.00  0.00    -0.211 NA
BRANCH  18  22
ATOM     22  C   UNL     1       1.636   0.186  22.887  0.00  0.00    +0.018 A 
ATOM     23  C   UNL     1       1.672  -0.183  22.149  0.00  0.00    +0.001 A 
ATOM     24  C   UNL     1       2.382  -0.197  21.729  0.00  0.00    +0.000 A 
ATOM     25  C   UNL     1       3.056   0.158  22.046  0.00  0.00    +0.000 A 
ATOM     26  C   UNL     1       3.020   0.527  22.783  0.00  0.00    +0.000 A 
ATOM     27  C   UNL     1       2.310   0.541  23.203  0.00  0.00    +0.001 A 
ENDBRANCH  18  22
ENDBRANCH  11  15
BRANCH   7   6
ATOM      6  O   UNL     1      -3.901   2.274  25.009  0.00  0.00    -0.340 OA
BRANCH   6   5
ATOM      5  C   UNL     1      -4.590   2.549  24.647  0.00  0.00    +0.252 C 
BRANCH   5   3
ATOM      3  C   UNL     1      -5.313   2.491  25.038  0.00  0.00    +0.348 C 
ATOM      4  O   UNL     1      -5.567   3.106  25.526  0.00  0.00    -0.247 OA
BRANCH   3   2
ATOM      1  C   UNL     1      -6.596   1.863  25.072  0.00  0.00    +0.256 C 
ATOM      2  O   UNL     1      -5.783   1.820  24.943  0.00  0.00    -0.443 OA
ENDBRANCH   3   2
ENDBRANCH   5   3
ENDBRANCH   6   5
ENDBRANCH   7   6
TORSDOF 6
ENDMDL
MODEL 6
REMARK VINA RESULT:      -6.3     15.484     16.737
REMARK  Name = 
REMARK  6 active torsions:
REMARK  status: ('A' for Active; 'I' for Inactive)
REMARK    1  A    between atoms: O_2  and  C_3
REMARK    2  A    between atoms: C_3  and  C_5
REMARK    3  A    between atoms: C_5  and  O_6
REMARK    4  A    between atoms: O_6  and  C_7
REMARK    5  A    between atoms: C_11  and  N_15
REMARK    6  A    between atoms: C_18  and  C_22
REMARK                            x       y       z     vdW  Elec       q    Type
REMARK                         _______ _______ _______ _____ _____    ______ ____
ROOT
ATOM      7  C   UNL     1      -5.652 -10.388  15.902  0.00  0.00    +0.175 C 
ATOM      8  C   UNL     1      -4.832 -10.330  15.841  0.00  0.00    +0.174 C 
ATOM      9  O   UNL     1      -4.637 -10.325  15.040  0.00  0.00    -0.349 OA
ATOM     10  C   UNL     1      -5.335 -10.379  14.606  0.00  0.00    +0.167 C 
ATOM     11  C   UNL     1      -5.648 -10.409  13.843  0.00  0.00    +0.154 C 
ATOM     12  C   UNL     1      -6.468 -10.467  13.904  0.00  0.00    +0.166 C 
ATOM     13  O   UNL     1      -6.663 -10.473  14.706  0.00  0.00    -0.349 OA
ATOM     14  C   UNL     1      -5.963 -10.418  15.139  0.00  0.00    +0.173 C 
ENDROOT
BRANCH  11  15
ATOM     15  N   UNL     1      -5.214 -10.386  13.141  0.00  0.00    -0.200 NA
ATOM     16  C   UNL     1      -5.425  -9.857  12.544  0.00  0.00    +0.237 A 
ATOM     17  N   UNL     1      -4.992  -9.833  11.842  0.00  0.00    -0.212 NA
ATOM     18  C   UNL     1      -5.202  -9.304  11.245  0.00  0.00    +0.086 A 
ATOM     19  C   UNL     1      -5.846  -8.799  11.349  0.00  0.00    +0.040 A 
ATOM     20  C   UNL     1      -6.279  -8.823  12.051  0.00  0.00    +0.103 A 
ATOM     21  N   UNL     1      -6.068  -9.352  12.648  0.00  0.00    -0.211 NA
BRANCH  18  22
ATOM     22  C   UNL     1      -4.770  -9.280  10.543  0.00  0.00    +0.018 A 
ATOM     23  C   UNL     1      -3.988  -9.012  10.549  0.00  0.00    +0.001 A 
ATOM     24  C   UNL     1      -3.556  -8.988   9.848  0.00  0.00    +0.000 A 
ATOM     25  C   UNL     1      -3.902  -9.232   9.140  0.00  0.00    +0.000 A 
ATOM     26  C   UNL     1      -4.682  -9.500   9.134  0.00  0.00    +0.000 A 
ATOM     27  C   UNL     1      -5.116  -9.524   9.836  0.00  0.00    +0.001 A 
ENDBRANCH  18  22
ENDBRANCH  11  15
BRANCH   7   6
ATOM      6  O   UNL     1      -6.086 -10.412  16.604  0.00  0.00    -0.340 OA
BRANCH   6   5
ATOM      5  C   UNL     1      -5.700 -10.343  17.330  0.00  0.00    +0.252 C 
BRANCH   5   3
ATOM      3  C   UNL     1      -6.131 -10.375  18.032  0.00  0.00    +0.348 C 
ATOM      4  O   UNL     1      -6.865 -10.002  18.082  0.00  0.00    -0.247 OA
BRANCH   3   2
ATOM      1  C   UNL     1      -6.171 -10.679  19.428  0.00  0.00    +0.256 C 
ATOM      2  O   UNL     1      -5.829 -10.780  18.685  0.00  0.00    -0.443 OA
ENDBRANCH   3   2
ENDBRANCH   5   3
ENDBRANCH   6   5
ENDBRANCH   7   6
TORSDOF 6
ENDMDL
MODEL 7
REMARK VINA RESULT:      -6.1     17.800     19.043
REMARK  Name = 
REMARK  6 active torsions:
REMARK  status: ('A' for Active; 'I' for Inactive)
REMARK    1  A    between atoms: O_2  and  C_3
REMARK    2  A    between atoms: C_3  and  C_5
REMARK    3  A    between atoms: C_5  and  O_6
REMARK    4  A    between atoms: O_6  and  C_7
REMARK    5  A    between atoms: C_11  and  N_15
REMARK    6  A    between atoms: C_18  and  C_22
REMARK                            x       y       z     vdW  Elec       q    Type
REMARK                         _______ _______ _______ _____ _____    ______ ____
ROOT
ATOM      7  C   UNL     1      -8.471  -6.674   8.447  0.00  0.00    +0.175 C 
ATOM      8  C   UNL     1      -7.777  -6.355   8.136  0.00  0.00    +0.174 C 
ATOM      9  O   UNL     1      -7.161  -6.880   8.298  0.00  0.00    -0.349 OA
ATOM     10  C   UNL     1      -7.473  -7.522   8.708  0.00  0.00    +0.167 C 
ATOM     11  C   UNL     1      -7.287  -8.244   9.062  0.00  0.00    +0.154 C 
ATOM     12  C   UNL     1      -7.981  -8.563   9.373  0.00  0.00    +0.166 C 
ATOM     13  O   UNL     1      -8.597  -8.039   9.212  0.00  0.00    -0.349 OA
ATOM     14  C   UNL     1      -8.283  -7.395   8.801  0.00  0.00    +0.173 C 
ENDROOT
BRANCH  11  15
ATOM     15  N   UNL     1      -6.537  -8.586   9.098  0.00  0.00    -0.200 NA
ATOM     16  C   UNL     1      -6.205  -8.777   9.829  0.00  0.00    +0.237 A 
ATOM     17  N   UNL     1      -5.456  -9.119   9.865  0.00  0.00    -0.212 NA
ATOM     18  C   UNL     1      -5.124  -9.310  10.596  0.00  0.00    +0.086 A 
ATOM     19  C   UNL     1      -5.542  -9.158  11.291  0.00  0.00    +0.040 A 
ATOM     20  C   UNL     1      -6.292  -8.816  11.255  0.00  0.00    +0.103 A 
ATOM     21  N   UNL     1      -6.623  -8.625  10.524  0.00  0.00    -0.211 NA
BRANCH  18  22
ATOM     22  C   UNL     1      -4.374  -9.652  10.633  0.00  0.00    +0.018 A 
ATOM     23  C   UNL     1      -3.707  -9.205  10.439  0.00  0.00    +0.001 A 
ATOM     24  C   UNL     1      -2.958  -9.547  10.476  0.00  0.00    +0.000 A 
ATOM     25  C   UNL     1      -2.874 -10.335  10.705  0.00  0.00    +0.000 A 
ATOM     26  C   UNL     1      -3.540 -10.781  10.898  0.00  0.00    +0.000 A 
ATOM     27  C   UNL     1      -4.291 -10.439  10.862  0.00  0.00    +0.001 A 
ENDBRANCH  18  22
ENDBRANCH  11  15
BRANCH   7   6
ATOM      6  O   UNL     1      -9.221  -6.332   8.411  0.00  0.00    -0.340 OA
BRANCH   6   5
ATOM      5  C   UNL     1      -9.306  -5.515   8.485  0.00  0.00    +0.252 C 
BRANCH   5   3
ATOM      3  C   UNL     1     -10.057  -5.175   8.481  0.00  0.00    +0.348 C 
ATOM      4  O   UNL     1     -10.719  -5.642   8.324  0.00  0.00    -0.247 OA
BRANCH   3   2
ATOM      1  C   UNL     1     -10.716  -4.112   9.172  0.00  0.00    +0.256 C 
ATOM      2  O   UNL     1     -10.147  -4.370   8.633  0.00  0.00    -0.443 OA
ENDBRANCH   3   2
ENDBRANCH   5   3
ENDBRANCH   6   5
ENDBRANCH   7   6
TORSDOF 6
ENDMDL
MODEL 8
REMARK VINA RESULT:      -5.9     15.022     16.624
REMARK  Name = 
REMARK  6 active torsions:
REMARK  status: ('A' for Active; 'I' for Inactive)
REMARK    1  A    between atoms: O_2  and  C_3
REMARK    2  A    between atoms: C_3  and  C_5
REMARK    3  A    between atoms: C_5  and  O_6
REMARK    4  A    between atoms: O_6  and  C_7
REMARK    5  A    between atoms: C_11  and  N_15
REMARK    6  A    between atoms: C_18  and  C_22
REMARK                            x       y       z     vdW  Elec       q    Type
REMARK                         _______ _______ _______ _____ _____    ______ ____
ROOT
ATOM      7  C   UNL     1      -7.087  -9.722  16.350  0.00  0.00    +0.175 C 
ATOM      8  C   UNL     1      -6.423  -9.364  16.682  0.00  0.00    +0.174 C 
ATOM      9  O   UNL     1      -5.777  -9.525  16.195  0.00  0.00    -0.349 OA
ATOM     10  C   UNL     1      -6.041  -9.983  15.563  0.00  0.00    +0.167 C 
ATOM     11  C   UNL     1      -5.806 -10.367  14.871  0.00  0.00    +0.154 C 
ATOM     12  C   UNL     1      -6.470 -10.726  14.539  0.00  0.00    +0.166 C 
ATOM     13  O   UNL     1      -7.116 -10.564  15.026  0.00  0.00    -0.349 OA
ATOM     14  C   UNL     1      -6.851 -10.105  15.659  0.00  0.00    +0.173 C 
ENDROOT
BRANCH  11  15
ATOM     15  N   UNL     1      -5.040 -10.387  14.566  0.00  0.00    -0.200 NA
ATOM     16  C   UNL     1      -4.920 -10.361  13.750  0.00  0.00    +0.237 A 
ATOM     17  N   UNL     1      -4.155 -10.381  13.444  0.00  0.00    -0.212 NA
ATOM     18  C   UNL     1      -4.035 -10.355  12.628  0.00  0.00    +0.086 A 
ATOM     19  C   UNL     1      -4.682 -10.307  12.118  0.00  0.00    +0.040 A 
ATOM     20  C   UNL     1      -5.448 -10.287  12.424  0.00  0.00    +0.103 A 
ATOM     21  N   UNL     1      -5.567 -10.313  13.240  0.00  0.00    -0.211 NA
BRANCH  18  22
ATOM     22  C   UNL     1      -3.270 -10.375  12.322  0.00  0.00    +0.018 A 
ATOM     23  C   UNL     1      -2.662 -10.733  12.753  0.00  0.00    +0.001 A 
ATOM     24  C   UNL     1      -1.897 -10.754  12.447  0.00  0.00    +0.000 A 
ATOM     25  C   UNL     1      -1.737 -10.418  11.711  0.00  0.00    +0.000 A 
ATOM     26  C   UNL     1      -2.344 -10.061  11.280  0.00  0.00    +0.000 A 
ATOM     27  C   UNL     1      -3.110 -10.040  11.586  0.00  0.00    +0.001 A 
ENDBRANCH  18  22
ENDBRANCH  11  15
BRANCH   7   6
ATOM      6  O   UNL     1      -7.854  -9.702  16.655  0.00  0.00    -0.340 OA
BRANCH   6   5
ATOM      5  C   UNL     1      -8.089  -9.074  17.136  0.00  0.00    +0.252 C 
BRANCH   5   3
ATOM      3  C   UNL     1      -8.880  -8.998  17.358  0.00  0.00    +0.348 C 
ATOM      4  O   UNL     1      -9.264  -9.625  17.733  0.00  0.00    -0.247 OA
BRANCH   3   2
ATOM      1  C   UNL     1     -10.046  -8.186  17.507  0.00  0.00    +0.256 C 
ATOM      2  O   UNL     1      -9.286  -8.297  17.206  0.00  0.00    -0.443 OA
ENDBRANCH   3   2
ENDBRANCH   5   3
ENDBRANCH   6   5
ENDBRANCH   7   6
TORSDOF 6
ENDMDL
MODEL 9
REMARK VINA RESULT:      -5.8     15.104     15.968
REMARK  Name = 
REMARK  6 active torsions:
REMARK  status: ('A' for Active; 'I' for Inactive)
REMARK    1  A    between atoms: O_2  and  C_3
REMARK    2  A    between atoms: C_3  and  C_5
REMARK    3  A    between atoms: C_5  and  O_6
REMARK    4  A    between atoms: O_6  and  C_7
REMARK    5  A    between atoms: C_11  and  N_15
REMARK    6  A    between atoms: C_18  and  C_22
REMARK                            x       y       z     vdW  Elec       q    Type
REMARK                         _______ _______ _______ _____ _____    ______ ____
ROOT
ATOM      7  C   UNL     1      -4.797  -9.803  12.002  0.00  0.00    +0.175 C 
ATOM      8  C   UNL     1      -5.549  -9.464  12.010  0.00  0.00    +0.174 C 
ATOM      9  O   UNL     1      -5.893  -9.624  12.742  0.00  0.00    -0.349 OA
ATOM     10  C   UNL     1      -5.355 -10.063  13.187  0.00  0.00    +0.167 C 
ATOM     11  C   UNL     1      -5.234 -10.433  13.914  0.00  0.00    +0.154 C 
ATOM     12  C   UNL     1      -4.482 -10.773  13.906  0.00  0.00    +0.166 C 
ATOM     13  O   UNL     1      -4.138 -10.612  13.174  0.00  0.00    -0.349 OA
ATOM     14  C   UNL     1      -4.677 -10.173  12.729  0.00  0.00    +0.173 C 
ENDROOT
BRANCH  11  15
ATOM     15  N   UNL     1      -5.772 -10.460  14.539  0.00  0.00    -0.200 NA
ATOM     16  C   UNL     1      -5.513 -10.329  15.312  0.00  0.00    +0.237 A 
ATOM     17  N   UNL     1      -6.050 -10.356  15.937  0.00  0.00    -0.212 NA
ATOM     18  C   UNL     1      -5.791 -10.225  16.710  0.00  0.00    +0.086 A 
ATOM     19  C   UNL     1      -4.995 -10.068  16.857  0.00  0.00    +0.040 A 
ATOM     20  C   UNL     1      -4.457 -10.041  16.231  0.00  0.00    +0.103 A 
ATOM     21  N   UNL     1      -4.716 -10.172  15.459  0.00  0.00    -0.211 NA
BRANCH  18  22
ATOM     22  C   UNL     1      -6.328 -10.251  17.335  0.00  0.00    +0.018 A 
ATOM     23  C   UNL     1      -6.191 -10.755  17.976  0.00  0.00    +0.001 A 
ATOM     24  C   UNL     1      -6.728 -10.781  18.601  0.00  0.00    +0.000 A 
ATOM     25  C   UNL     1      -7.402 -10.305  18.587  0.00  0.00    +0.000 A 
ATOM     26  C   UNL     1      -7.538  -9.803  17.947  0.00  0.00    +0.000 A 
ATOM     27  C   UNL     1      -7.001  -9.776  17.321  0.00  0.00    +0.001 A 
ENDBRANCH  18  22
ENDBRANCH  11  15
BRANCH   7   6
ATOM      6  O   UNL     1      -4.259  -9.776  11.377  0.00  0.00    -0.340 OA
BRANCH   6   5
ATOM      5  C   UNL     1      -4.464  -9.398  10.673  0.00  0.00    +0.252 C 
BRANCH   5   3
ATOM      3  C   UNL     1      -3.924  -9.366  10.050  0.00  0.00    +0.348 C 
ATOM      4  O   UNL     1      -3.179  -9.032  10.166  0.00  0.00    -0.247 OA
BRANCH   3   2
ATOM      1  C   UNL     1      -4.357  -9.157   8.704  0.00  0.00    +0.256 C 
ATOM      2  O   UNL     1      -4.130  -9.668   9.310  0.00  0.00    -0.443 OA
ENDBRANCH   3   2
ENDBRANCH   5   3
ENDBRANCH   6   5
ENDBRANCH   7   6
TORSDOF 6
ENDMDL
MODEL 10
REMARK VINA RESULT:      -5.8     14.515     15.227
REMARK  Name = 
REMARK  6 active torsions:
REMARK  status: ('A' for Active; 'I' for Inactive)
REMARK    1  A    between atoms: O_2  and  C_3
REMARK    2  A    between atoms: C_3  and  C_5
REMARK    3  A    between atoms: C_5  and  O_6
REMARK    4  A    between atoms: O_6  and  C_7
REMARK    5  A    between atoms: C_11  and  N_15
REMARK    6  A    between atoms: C_18  and  C_22
REMARK                            x       y       z     vdW  Elec       q    Type
REMARK                         _______ _______ _______ _____ _____    ______ ____
ROOT
ATOM      7  C   UNL     1      -4.796 -10.333  13.751  0.00  0.00    +0.175 C 
ATOM      8  C   UNL     1      -5.330  -9.966  13.242  0.00  0.00    +0.174 C 
ATOM      9  O   UNL     1      -6.040  -9.862  13.649  0.00  0.00    -0.349 OA
ATOM     10  C   UNL     1      -5.945 -10.165  14.409  0.00  0.00    +0.167 C 
ATOM     11  C   UNL     1      -6.324 -10.290  15.132  0.00  0.00    +0.154 C 
ATOM     12  C   UNL     1      -5.790 -10.657  15.641  0.00  0.00    +0.166 C 
ATOM     13  O   UNL     1      -5.080 -10.761  15.234  0.00  0.00    -0.349 OA
ATOM     14  C   UNL     1      -5.176 -10.457  14.473  0.00  0.00    +0.173 C 
ENDROOT
BRANCH  11  15
ATOM     15  N   UNL     1      -7.102 -10.082  15.313  0.00  0.00    -0.200 NA
ATOM     16  C   UNL     1      -7.286  -9.779  16.058  0.00  0.00    +0.237 A 
ATOM     17  N   UNL     1      -8.063  -9.571  16.239  0.00  0.00    -0.212 NA
ATOM     18  C   UNL     1      -8.247  -9.268  16.984  0.00  0.00    +0.086 A 
ATOM     19  C   UNL     1      -7.653  -9.174  17.548  0.00  0.00    +0.040 A 
ATOM     20  C   UNL     1      -6.875  -9.382  17.368  0.00  0.00    +0.103 A 
ATOM     21  N   UNL     1      -6.692  -9.684  16.622  0.00  0.00    -0.211 NA
BRANCH  18  22
ATOM     22  C   UNL     1      -9.024  -9.061  17.165  0.00  0.00    +0.018 A 
ATOM     23  C   UNL     1      -9.306  -8.309  16.970  0.00  0.00    +0.001 A 
ATOM     24  C   UNL     1     -10.083  -8.101  17.151  0.00  0.00    +0.000 A 
ATOM     25  C   UNL     1     -10.579  -8.643  17.526  0.00  0.00    +0.000 A 
ATOM     26  C   UNL     1     -10.297  -9.394  17.720  0.00  0.00    +0.000 A 
ATOM     27  C   UNL     1      -9.520  -9.602  17.539  0.00  0.00    +0.001 A 
ENDBRANCH  18  22
ENDBRANCH  11  15
BRANCH   7   6
ATOM      6  O   UNL     1      -4.018 -10.541  13.571  0.00  0.00    -0.340 OA
BRANCH   6   5
ATOM      5  C   UNL     1      -3.716 -10.394  12.817  0.00  0.00    +0.252 C 
BRANCH   5   3
ATOM      3  C   UNL     1      -2.908 -10.476  12.673  0.00  0.00    +0.348 C 
ATOM      4  O   UNL     1      -2.409 -10.749  13.270  0.00  0.00    -0.247 OA
BRANCH   3   2
ATOM      1  C   UNL     1      -1.788 -10.346  11.795  0.00  0.00    +0.256 C 
ATOM      2  O   UNL     1      -2.599 -10.284  11.933  0.00  0.00    -0.443 OA
ENDBRANCH   3   2
ENDBRANCH   5   3
ENDBRANCH   6   5
ENDBRANCH   7   6
TORSDOF 6
ENDMDL
