REMARK  Name = 
REMARK  6 active torsions:
REMARK  status: ('A' for Active; 'I' for Inactive)
REMARK    1  A    between atoms: O_2  and  C_3
REMARK    2  A    between atoms: C_6  and  N_9
REMARK    3  A    between atoms: C_13  and  C_14
REMARK    4  A    between atoms: C_16  and  N_17
REMARK    5  A    between atoms: N_17  and  C_18
REMARK    6  A    between atoms: C_18  and  C_19
REMARK                            x       y       z     vdW  Elec       q    Type
REMARK                         _______ _______ _______ _____ _____    ______ ____
ROOT
ATOM      9  N   UNL     1       0.119  -4.278   0.000  0.00  0.00    -0.234 N 
ATOM     10  N   UNL     1       0.786  -4.763   0.000  0.00  0.00    -0.170 NA
ATOM     11  C   UNL     1       0.531  -5.548   0.000  0.00  0.00    +0.077 A 
ATOM     12  C   UNL     1       1.016  -6.215   0.000  0.00  0.00    +0.054 C 
ATOM     13  C   UNL     1      -0.293  -5.548   0.000  0.00  0.00    +0.010 A 
ATOM     28  C   UNL     1      -0.548  -4.763   0.000  0.00  0.00    +0.058 A 
ATOM     29  C   UNL     1      -1.333  -4.508   0.000  0.00  0.00    +0.052 C 
ENDROOT
BRANCH   9   6
ATOM      3  C   UNL     1       0.119  -1.803   0.000  0.00  0.00    +0.139 A 
ATOM      4  C   UNL     1       0.834  -2.216   0.000  0.00  0.00    +0.038 A 
ATOM      5  C   UNL     1       0.834  -3.041   0.000  0.00  0.00    +0.022 A 
ATOM      6  C   UNL     1       0.119  -3.453   0.000  0.00  0.00    +0.083 A 
ATOM      7  C   UNL     1      -0.596  -3.041   0.000  0.00  0.00    +0.022 A 
ATOM      8  C   UNL     1      -0.596  -2.216   0.000  0.00  0.00    +0.038 A 
BRANCH   3   2
ATOM      1  C   UNL     1      -0.596  -0.566   0.000  0.00  0.00    +0.252 C 
ATOM      2  O   UNL     1       0.119  -0.978   0.000  0.00  0.00    -0.471 OA
ENDBRANCH   3   2
ENDBRANCH   9   6
BRANCH  13  14
ATOM     14  C   UNL     1      -0.778  -6.215   0.000  0.00  0.00    +0.048 C 
ATOM     15  C   UNL     1      -0.523  -7.000   0.000  0.00  0.00    +0.031 C 
ATOM     16  C   UNL     1      -1.191  -7.484   0.000  0.00  0.00    +0.095 C 
ATOM     26  C   UNL     1      -1.858  -7.000   0.000  0.00  0.00    -0.013 C 
ATOM     27  C   UNL     1      -1.603  -6.215   0.000  0.00  0.00    -0.025 C 
BRANCH  16  17
ATOM     17  N   UNL     1      -1.191  -8.309   0.000  0.00  0.00    -0.210 NA
BRANCH  17  18
ATOM     18  C   UNL     1      -0.476  -8.722   0.000  0.00  0.00    +0.115 C 
BRANCH  18  19
ATOM     19  C   UNL     1      -0.476  -9.547   0.000  0.00  0.00    -0.005 A 
ATOM     20  C   UNL     1       0.238  -9.960   0.000  0.00  0.00    -0.001 A 
ATOM     21  C   UNL     1       0.238 -10.784   0.000  0.00  0.00    +0.029 A 
ATOM     22  C   UNL     1      -0.476 -11.197   0.000  0.00  0.00    +0.140 A 
ATOM     23  F   UNL     1      -0.476 -12.022   0.000  0.00  0.00    -0.204 F 
ATOM     24  C   UNL     1      -1.191 -10.784   0.000  0.00  0.00    +0.029 A 
ATOM     25  C   UNL     1      -1.191  -9.960   0.000  0.00  0.00    -0.001 A 
ENDBRANCH  18  19
ENDBRANCH  17  18
ENDBRANCH  16  17
ENDBRANCH  13  14
TORSDOF 6
