MODEL 1
REMARK VINA RESULT:     -14.1      0.000      0.000
REMARK  Name = 
REMARK  5 active torsions:
REMARK  status: ('A' for Active; 'I' for Inactive)
REMARK    1  A    between atoms: S_2  and  C_3
REMARK    2  A    between atoms: C_3  and  C_4
REMARK    3  A    between atoms: C_13  and  C_20
REMARK    4  A    between atoms: C_23  and  O_24
REMARK    5  A    between atoms: O_24  and  C_25
REMARK                            x       y       z     vdW  Elec       q    Type
REMARK                         _______ _______ _______ _____ _____    ______ ____
ROOT
ATOM      4  C   UNL     1      -4.171   3.027  24.395  0.00  0.00    +0.237 C 
ATOM      5  O   UNL     1      -4.235   3.843  24.295  0.00  0.00    -0.274 OA
ATOM      6  N   UNL     1      -3.546   2.616  24.045  0.00  0.00    -0.278 N 
ATOM      7  C   UNL     1      -2.852   2.487  23.599  0.00  0.00    +0.095 C 
ATOM      8  C   UNL     1      -2.763   1.509  23.710  0.00  0.00    +0.043 C 
ATOM      9  C   UNL     1      -2.552   0.722  23.706  0.00  0.00    +0.011 C 
ATOM     10  C   UNL     1      -3.060   1.121  23.979  0.00  0.00    +0.058 C 
ATOM     11  C   UNL     1      -3.132   2.066  23.862  0.00  0.00    +0.099 C 
ATOM     12  C   UNL     1      -3.816   1.069  24.499  0.00  0.00    +0.041 A 
ATOM     13  C   UNL     1      -4.276   0.519  24.907  0.00  0.00    +0.012 A 
ATOM     14  C   UNL     1      -4.948   0.766  25.317  0.00  0.00    +0.006 A 
ATOM     15  C   UNL     1      -5.159   1.564  25.319  0.00  0.00    +0.061 A 
ATOM     16  C   UNL     1      -4.699   2.114  24.912  0.00  0.00    +0.261 A 
ATOM     17  O   UNL     1      -5.254   2.656  25.191  0.00  0.00    -0.267 OA
ATOM     18  N   UNL     1      -4.028   1.866  24.502  0.00  0.00    -0.299 N 
ATOM     19  C   UNL     1      -3.554   1.464  24.253  0.00  0.00    +0.110 C 
ENDROOT
BRANCH  13  20
ATOM     20  C   UNL     1      -4.065  -0.279  24.904  0.00  0.00    +0.001 A 
ATOM     21  C   UNL     1      -4.315  -0.770  24.290  0.00  0.00    +0.003 A 
ATOM     22  C   UNL     1      -4.103  -1.567  24.287  0.00  0.00    +0.037 A 
ATOM     23  C   UNL     1      -3.642  -1.874  24.899  0.00  0.00    +0.147 A 
ATOM     29  C   UNL     1      -3.393  -1.383  25.513  0.00  0.00    +0.037 A 
ATOM     30  C   UNL     1      -3.604  -0.586  25.515  0.00  0.00    +0.003 A 
BRANCH  23  24
ATOM     24  O   UNL     1      -3.431  -2.671  24.896  0.00  0.00    -0.404 OA
BRANCH  24  25
ATOM     25  C   UNL     1      -2.796  -2.928  24.436  0.00  0.00    +0.575 C 
ATOM     26  F   UNL     1      -2.162  -3.186  23.976  0.00  0.00    -0.133 F 
ATOM     27  F   UNL     1      -2.273  -2.710  25.035  0.00  0.00    -0.133 F 
ATOM     28  F   UNL     1      -3.321  -3.147  23.837  0.00  0.00    -0.133 F 
ENDBRANCH  24  25
ENDBRANCH  23  24
ENDBRANCH  13  20
BRANCH   4   3
ATOM      3  C   UNL     1      -4.731   2.620  24.845  0.00  0.00    +0.143 C 
BRANCH   3   2
ATOM      1  C   UNL     1      -5.347   3.622  25.657  0.00  0.00    +0.070 C 
ATOM      2  S   UNL     1      -5.409   3.010  25.108  0.00  0.00    -0.130 S 
ENDBRANCH   3   2
ENDBRANCH   4   3
TORSDOF 5
ENDMDL
MODEL 2
REMARK VINA RESULT:     -14.0      1.068      1.922
REMARK  Name = 
REMARK  5 active torsions:
REMARK  status: ('A' for Active; 'I' for Inactive)
REMARK    1  A    between atoms: S_2  and  C_3
REMARK    2  A    between atoms: C_3  and  C_4
REMARK    3  A    between atoms: C_13  and  C_20
REMARK    4  A    between atoms: C_23  and  O_24
REMARK    5  A    between atoms: O_24  and  C_25
REMARK                            x       y       z     vdW  Elec       q    Type
REMARK                         _______ _______ _______ _____ _____    ______ ____
ROOT
ATOM      4  C   UNL     1      -4.131   3.528  25.199  0.00  0.00    +0.237 C 
ATOM      5  O   UNL     1      -4.189   4.343  25.310  0.00  0.00    -0.274 OA
ATOM      6  N   UNL     1      -4.806   3.056  25.248  0.00  0.00    -0.278 N 
ATOM      7  C   UNL     1      -5.610   2.855  25.352  0.00  0.00    +0.095 C 
ATOM      8  C   UNL     1      -5.555   1.877  25.221  0.00  0.00    +0.043 C 
ATOM      9  C   UNL     1      -5.677   1.076  25.140  0.00  0.00    +0.011 C 
ATOM     10  C   UNL     1      -5.138   1.524  25.109  0.00  0.00    +0.058 C 
ATOM     11  C   UNL     1      -5.208   2.468  25.239  0.00  0.00    +0.099 C 
ATOM     12  C   UNL     1      -4.231   1.551  24.967  0.00  0.00    +0.041 A 
ATOM     13  C   UNL     1      -3.593   1.055  24.802  0.00  0.00    +0.012 A 
ATOM     14  C   UNL     1      -2.835   1.371  24.720  0.00  0.00    +0.006 A 
ATOM     15  C   UNL     1      -2.715   2.183  24.803  0.00  0.00    +0.061 A 
ATOM     16  C   UNL     1      -3.353   2.679  24.967  0.00  0.00    +0.261 A 
ATOM     17  O   UNL     1      -2.782   3.274  24.950  0.00  0.00    -0.267 OA
ATOM     18  N   UNL     1      -4.111   2.364  25.049  0.00  0.00    -0.299 N 
ATOM     19  C   UNL     1      -4.607   1.916  25.073  0.00  0.00    +0.110 C 
ENDROOT
BRANCH  13  20
ATOM     20  C   UNL     1      -3.713   0.243  24.720  0.00  0.00    +0.001 A 
ATOM     21  C   UNL     1      -3.656  -0.251  25.378  0.00  0.00    +0.003 A 
ATOM     22  C   UNL     1      -3.776  -1.064  25.295  0.00  0.00    +0.037 A 
ATOM     23  C   UNL     1      -3.953  -1.382  24.555  0.00  0.00    +0.147 A 
ATOM     29  C   UNL     1      -4.010  -0.887  23.897  0.00  0.00    +0.037 A 
ATOM     30  C   UNL     1      -3.890  -0.075  23.979  0.00  0.00    +0.003 A 
BRANCH  23  24
ATOM     24  O   UNL     1      -4.073  -2.193  24.472  0.00  0.00    -0.404 OA
BRANCH  24  25
ATOM     25  C   UNL     1      -3.444  -2.717  24.581  0.00  0.00    +0.575 C 
ATOM     26  F   UNL     1      -2.817  -3.240  24.691  0.00  0.00    -0.133 F 
ATOM     27  F   UNL     1      -3.221  -2.613  23.794  0.00  0.00    -0.133 F 
ATOM     28  F   UNL     1      -3.669  -2.820  25.369  0.00  0.00    -0.133 F 
ENDBRANCH  24  25
ENDBRANCH  23  24
ENDBRANCH  13  20
BRANCH   4   3
ATOM      3  C   UNL     1      -3.398   3.184  25.038  0.00  0.00    +0.143 C 
BRANCH   3   2
ATOM      1  C   UNL     1      -2.419   4.135  25.462  0.00  0.00    +0.070 C 
ATOM      2  S   UNL     1      -2.747   3.662  24.871  0.00  0.00    -0.130 S 
ENDBRANCH   3   2
ENDBRANCH   4   3
TORSDOF 5
ENDMDL
MODEL 3
REMARK VINA RESULT:     -13.0      2.876      4.695
REMARK  Name = 
REMARK  5 active torsions:
REMARK  status: ('A' for Active; 'I' for Inactive)
REMARK    1  A    between atoms: S_2  and  C_3
REMARK    2  A    between atoms: C_3  and  C_4
REMARK    3  A    between atoms: C_13  and  C_20
REMARK    4  A    between atoms: C_23  and  O_24
REMARK    5  A    between atoms: O_24  and  C_25
REMARK                            x       y       z     vdW  Elec       q    Type
REMARK                         _______ _______ _______ _____ _____    ______ ____
ROOT
ATOM      4  C   UNL     1      -1.971  -2.158  24.570  0.00  0.00    +0.237 C 
ATOM      5  O   UNL     1      -1.505  -2.837  24.535  0.00  0.00    -0.274 OA
ATOM      6  N   UNL     1      -2.768  -2.194  24.359  0.00  0.00    -0.278 N 
ATOM      7  C   UNL     1      -3.492  -2.522  24.100  0.00  0.00    +0.095 C 
ATOM      8  C   UNL     1      -4.062  -1.716  24.137  0.00  0.00    +0.043 C 
ATOM      9  C   UNL     1      -4.654  -1.157  24.114  0.00  0.00    +0.011 C 
ATOM     10  C   UNL     1      -3.973  -1.185  24.281  0.00  0.00    +0.058 C 
ATOM     11  C   UNL     1      -3.435  -1.973  24.239  0.00  0.00    +0.099 C 
ATOM     12  C   UNL     1      -3.281  -0.657  24.578  0.00  0.00    +0.041 A 
ATOM     13  C   UNL     1      -3.118   0.121  24.796  0.00  0.00    +0.012 A 
ATOM     14  C   UNL     1      -2.357   0.330  25.038  0.00  0.00    +0.006 A 
ATOM     15  C   UNL     1      -1.760  -0.239  25.061  0.00  0.00    +0.061 A 
ATOM     16  C   UNL     1      -1.924  -1.017  24.842  0.00  0.00    +0.261 A 
ATOM     17  O   UNL     1      -1.128  -1.142  25.017  0.00  0.00    -0.267 OA
ATOM     18  N   UNL     1      -2.684  -1.226  24.600  0.00  0.00    -0.299 N 
ATOM     19  C   UNL     1      -3.333  -1.173  24.447  0.00  0.00    +0.110 C 
ENDROOT
BRANCH  13  20
ATOM     20  C   UNL     1      -3.715   0.690  24.773  0.00  0.00    +0.001 A 
ATOM     21  C   UNL     1      -4.265   0.736  25.387  0.00  0.00    +0.003 A 
ATOM     22  C   UNL     1      -4.862   1.305  25.364  0.00  0.00    +0.037 A 
ATOM     23  C   UNL     1      -4.909   1.828  24.728  0.00  0.00    +0.147 A 
ATOM     29  C   UNL     1      -4.360   1.782  24.114  0.00  0.00    +0.037 A 
ATOM     30  C   UNL     1      -3.763   1.213  24.137  0.00  0.00    +0.003 A 
BRANCH  23  24
ATOM     24  O   UNL     1      -5.506   2.397  24.705  0.00  0.00    -0.404 OA
BRANCH  24  25
ATOM     25  C   UNL     1      -5.538   2.985  25.283  0.00  0.00    +0.575 C 
ATOM     26  F   UNL     1      -5.571   3.573  25.861  0.00  0.00    -0.133 F 
ATOM     27  F   UNL     1      -4.991   3.433  24.858  0.00  0.00    -0.133 F 
ATOM     28  F   UNL     1      -6.086   2.536  25.707  0.00  0.00    -0.133 F 
ENDBRANCH  24  25
ENDBRANCH  23  24
ENDBRANCH  13  20
BRANCH   4   3
ATOM      3  C   UNL     1      -1.642  -1.443  24.817  0.00  0.00    +0.143 C 
BRANCH   3   2
ATOM      1  C   UNL     1      -0.397  -1.769  25.439  0.00  0.00    +0.070 C 
ATOM      2  S   UNL     1      -0.822  -1.361  24.862  0.00  0.00    -0.130 S 
ENDBRANCH   3   2
ENDBRANCH   4   3
TORSDOF 5
ENDMDL
MODEL 4
REMARK VINA RESULT:     -13.0      1.800      2.133
REMARK  Name = 
REMARK  5 active torsions:
REMARK  status: ('A' for Active; 'I' for Inactive)
REMARK    1  A    between atoms: S_2  and  C_3
REMARK    2  A    between atoms: C_3  and  C_4
REMARK    3  A    between atoms: C_13  and  C_20
REMARK    4  A    between atoms: C_23  and  O_24
REMARK    5  A    between atoms: O_24  and  C_25
REMARK                            x       y       z     vdW  Elec       q    Type
REMARK                         _______ _______ _______ _____ _____    ______ ____
ROOT
ATOM      4  C   UNL     1      -1.345   2.983  25.350  0.00  0.00    +0.237 C 
ATOM      5  O   UNL     1      -0.861   3.631  25.513  0.00  0.00    -0.274 OA
ATOM      6  N   UNL     1      -1.027   2.221  25.349  0.00  0.00    -0.278 N 
ATOM      7  C   UNL     1      -0.457   1.615  25.418  0.00  0.00    +0.095 C 
ATOM      8  C   UNL     1      -1.025   0.830  25.224  0.00  0.00    +0.043 C 
ATOM      9  C   UNL     1      -1.350   0.095  25.087  0.00  0.00    +0.011 C 
ATOM     10  C   UNL     1      -1.565   0.763  25.101  0.00  0.00    +0.058 C 
ATOM     11  C   UNL     1      -1.003   1.512  25.290  0.00  0.00    +0.099 C 
ATOM     12  C   UNL     1      -2.315   1.281  24.986  0.00  0.00    +0.041 A 
ATOM     13  C   UNL     1      -3.118   1.216  24.806  0.00  0.00    +0.012 A 
ATOM     14  C   UNL     1      -3.588   1.892  24.766  0.00  0.00    +0.006 A 
ATOM     15  C   UNL     1      -3.256   2.635  24.905  0.00  0.00    +0.061 A 
ATOM     16  C   UNL     1      -2.453   2.700  25.085  0.00  0.00    +0.261 A 
ATOM     17  O   UNL     1      -2.617   3.508  25.123  0.00  0.00    -0.267 OA
ATOM     18  N   UNL     1      -1.983   2.024  25.125  0.00  0.00    -0.299 N 
ATOM     19  C   UNL     1      -1.803   1.379  25.105  0.00  0.00    +0.110 C 
ENDROOT
BRANCH  13  20
ATOM     20  C   UNL     1      -3.450   0.473  24.667  0.00  0.00    +0.001 A 
ATOM     21  C   UNL     1      -3.494   0.179  23.898  0.00  0.00    +0.003 A 
ATOM     22  C   UNL     1      -3.826  -0.564  23.759  0.00  0.00    +0.037 A 
ATOM     23  C   UNL     1      -4.114  -1.012  24.389  0.00  0.00    +0.147 A 
ATOM     29  C   UNL     1      -4.070  -0.717  25.158  0.00  0.00    +0.037 A 
ATOM     30  C   UNL     1      -3.738   0.025  25.297  0.00  0.00    +0.003 A 
BRANCH  23  24
ATOM     24  O   UNL     1      -4.446  -1.753  24.250  0.00  0.00    -0.404 OA
BRANCH  24  25
ATOM     25  C   UNL     1      -3.959  -2.414  24.163  0.00  0.00    +0.575 C 
ATOM     26  F   UNL     1      -3.473  -3.074  24.075  0.00  0.00    -0.133 F 
ATOM     27  F   UNL     1      -3.932  -2.503  24.983  0.00  0.00    -0.133 F 
ATOM     28  F   UNL     1      -3.986  -2.324  23.343  0.00  0.00    -0.133 F 
ENDBRANCH  24  25
ENDBRANCH  23  24
ENDBRANCH  13  20
BRANCH   4   3
ATOM      3  C   UNL     1      -2.146   3.096  25.187  0.00  0.00    +0.143 C 
BRANCH   3   2
ATOM      1  C   UNL     1      -2.418   4.410  25.678  0.00  0.00    +0.070 C 
ATOM      2  S   UNL     1      -2.438   3.858  25.066  0.00  0.00    -0.130 S 
ENDBRANCH   3   2
ENDBRANCH   4   3
TORSDOF 5
ENDMDL
