MODEL 1
REMARK VINA RESULT:     -11.4      0.000      0.000
REMARK  Name = 
REMARK  4 active torsions:
REMARK  status: ('A' for Active; 'I' for Inactive)
REMARK    1  A    between atoms: C_2  and  O_5
REMARK    2  A    between atoms: O_5  and  C_6
REMARK    3  A    between atoms: C_9  and  N_10
REMARK    4  A    between atoms: C_16  and  C_18
REMARK                            x       y       z     vdW  Elec       q    Type
REMARK                         _______ _______ _______ _____ _____    ______ ____
ROOT
ATOM     10  N   UNL     1      -3.458   2.764  25.130  0.00  0.00    -0.162 NA
ATOM     11  C   UNL     1      -3.102   2.038  24.966  0.00  0.00    +0.327 C 
ATOM     12  O   UNL     1      -2.284   1.992  24.866  0.00  0.00    -0.250 OA
ATOM     13  N   UNL     1      -3.564   1.357  24.904  0.00  0.00    -0.262 N 
ATOM     14  C   UNL     1      -4.384   1.317  24.990  0.00  0.00    +0.096 C 
ATOM     15  C   UNL     1      -4.614   0.532  24.884  0.00  0.00    +0.033 C 
ATOM     16  C   UNL     1      -3.936   0.086  24.731  0.00  0.00    +0.098 C 
ATOM     17  C   UNL     1      -3.288   0.596  24.744  0.00  0.00    +0.104 C 
ENDROOT
BRANCH  16  18
ATOM     18  C   UNL     1      -3.911  -0.726  24.591  0.00  0.00    +0.207 A 
ATOM     19  N   UNL     1      -3.505  -1.284  25.042  0.00  0.00    -0.212 NA
ATOM     20  C   UNL     1      -3.631  -2.026  24.705  0.00  0.00    +0.119 A 
ATOM     21  C   UNL     1      -4.116  -1.926  24.044  0.00  0.00    +0.164 A 
ATOM     22  O   UNL     1      -4.289  -1.123  23.974  0.00  0.00    -0.438 OA
ATOM     23  C   UNL     1      -4.337  -2.581  23.593  0.00  0.00    +0.039 A 
ATOM     24  C   UNL     1      -4.073  -3.334  23.801  0.00  0.00    +0.003 A 
ATOM     25  C   UNL     1      -3.589  -3.433  24.461  0.00  0.00    +0.002 A 
ATOM     26  C   UNL     1      -3.367  -2.780  24.913  0.00  0.00    +0.022 A 
ENDBRANCH  16  18
BRANCH  10   9
ATOM      6  C   UNL     1      -2.072   4.806  25.318  0.00  0.00    +0.147 A 
ATOM      7  C   UNL     1      -2.189   4.325  25.979  0.00  0.00    +0.039 A 
ATOM      8  C   UNL     1      -2.652   3.644  25.916  0.00  0.00    +0.020 A 
ATOM      9  C   UNL     1      -2.996   3.444  25.192  0.00  0.00    +0.075 A 
ATOM     27  C   UNL     1      -2.878   3.925  24.533  0.00  0.00    +0.020 A 
ATOM     28  C   UNL     1      -2.415   4.606  24.596  0.00  0.00    +0.039 A 
BRANCH   6   5
ATOM      5  O   UNL     1      -1.609   5.487  25.381  0.00  0.00    -0.404 OA
BRANCH   5   2
ATOM      1  F   UNL     1      -0.266   5.661  24.440  0.00  0.00    -0.133 F 
ATOM      2  C   UNL     1      -0.938   5.574  24.911  0.00  0.00    +0.575 C 
ATOM      3  F   UNL     1      -0.552   4.993  25.352  0.00  0.00    -0.133 F 
ATOM      4  F   UNL     1      -1.323   6.155  24.470  0.00  0.00    -0.133 F 
ENDBRANCH   5   2
ENDBRANCH   6   5
ENDBRANCH  10   9
TORSDOF 4
ENDMDL
MODEL 2
REMARK VINA RESULT:     -10.9      3.349      6.629
REMARK  Name = 
REMARK  4 active torsions:
REMARK  status: ('A' for Active; 'I' for Inactive)
REMARK    1  A    between atoms: C_2  and  O_5
REMARK    2  A    between atoms: O_5  and  C_6
REMARK    3  A    between atoms: C_9  and  N_10
REMARK    4  A    between atoms: C_16  and  C_18
REMARK                            x       y       z     vdW  Elec       q    Type
REMARK                         _______ _______ _______ _____ _____    ______ ____
ROOT
ATOM     10  N   UNL     1      -1.849  -0.406  25.391  0.00  0.00    -0.162 NA
ATOM     11  C   UNL     1      -2.103   0.328  25.113  0.00  0.00    +0.327 C 
ATOM     12  O   UNL     1      -2.793   0.382  24.663  0.00  0.00    -0.250 OA
ATOM     13  N   UNL     1      -1.669   1.008  25.285  0.00  0.00    -0.262 N 
ATOM     14  C   UNL     1      -0.973   1.040  25.727  0.00  0.00    +0.096 C 
ATOM     15  C   UNL     1      -0.728   1.828  25.761  0.00  0.00    +0.033 C 
ATOM     16  C   UNL     1      -1.274   2.282  25.340  0.00  0.00    +0.098 C 
ATOM     17  C   UNL     1      -1.855   1.776  25.046  0.00  0.00    +0.104 C 
ENDROOT
BRANCH  16  18
ATOM     18  C   UNL     1      -1.243   3.100  25.232  0.00  0.00    +0.207 A 
ATOM     19  N   UNL     1      -0.634   3.518  24.866  0.00  0.00    -0.212 NA
ATOM     20  C   UNL     1      -0.831   4.319  24.879  0.00  0.00    +0.119 A 
ATOM     21  C   UNL     1      -1.562   4.395  25.254  0.00  0.00    +0.164 A 
ATOM     22  O   UNL     1      -1.817   3.642  25.472  0.00  0.00    -0.438 OA
ATOM     23  C   UNL     1      -1.900   5.142  25.347  0.00  0.00    +0.039 A 
ATOM     24  C   UNL     1      -1.509   5.811  25.067  0.00  0.00    +0.003 A 
ATOM     25  C   UNL     1      -0.778   5.734  24.693  0.00  0.00    +0.002 A 
ATOM     26  C   UNL     1      -0.438   4.988  24.598  0.00  0.00    +0.022 A 
ENDBRANCH  16  18
BRANCH  10   9
ATOM      6  C   UNL     1      -3.152  -2.445  24.874  0.00  0.00    +0.147 A 
ATOM      7  C   UNL     1      -3.427  -1.913  25.442  0.00  0.00    +0.039 A 
ATOM      8  C   UNL     1      -2.992  -1.233  25.614  0.00  0.00    +0.020 A 
ATOM      9  C   UNL     1      -2.283  -1.085  25.219  0.00  0.00    +0.075 A 
ATOM     27  C   UNL     1      -2.009  -1.617  24.651  0.00  0.00    +0.020 A 
ATOM     28  C   UNL     1      -2.444  -2.297  24.479  0.00  0.00    +0.039 A 
BRANCH   6   5
ATOM      5  O   UNL     1      -3.587  -3.125  24.702  0.00  0.00    -0.404 OA
BRANCH   5   2
ATOM      1  F   UNL     1      -4.473  -3.208  23.314  0.00  0.00    -0.133 F 
ATOM      2  C   UNL     1      -4.029  -3.167  24.008  0.00  0.00    +0.575 C 
ATOM      3  F   UNL     1      -4.612  -2.693  24.351  0.00  0.00    -0.133 F 
ATOM      4  F   UNL     1      -3.447  -3.640  23.665  0.00  0.00    -0.133 F 
ENDBRANCH   5   2
ENDBRANCH   6   5
ENDBRANCH  10   9
TORSDOF 4
ENDMDL
MODEL 3
REMARK VINA RESULT:      -9.6      3.874      5.031
REMARK  Name = 
REMARK  4 active torsions:
REMARK  status: ('A' for Active; 'I' for Inactive)
REMARK    1  A    between atoms: C_2  and  O_5
REMARK    2  A    between atoms: O_5  and  C_6
REMARK    3  A    between atoms: C_9  and  N_10
REMARK    4  A    between atoms: C_16  and  C_18
REMARK                            x       y       z     vdW  Elec       q    Type
REMARK                         _______ _______ _______ _____ _____    ______ ____
ROOT
ATOM     10  N   UNL     1      -0.098   0.146  23.946  0.00  0.00    -0.162 NA
ATOM     11  C   UNL     1      -0.683   0.720  23.850  0.00  0.00    +0.327 C 
ATOM     12  O   UNL     1      -0.550   1.364  23.350  0.00  0.00    -0.250 OA
ATOM     13  N   UNL     1      -1.399   0.651  24.252  0.00  0.00    -0.262 N 
ATOM     14  C   UNL     1      -1.609   0.042  24.767  0.00  0.00    +0.096 C 
ATOM     15  C   UNL     1      -2.372   0.193  25.044  0.00  0.00    +0.033 C 
ATOM     16  C   UNL     1      -2.632   0.897  24.700  0.00  0.00    +0.098 C 
ATOM     17  C   UNL     1      -2.032   1.179  24.211  0.00  0.00    +0.104 C 
ENDROOT
BRANCH  16  18
ATOM     18  C   UNL     1      -3.366   1.254  24.824  0.00  0.00    +0.207 A 
ATOM     19  N   UNL     1      -4.100   0.882  24.781  0.00  0.00    -0.212 NA
ATOM     20  C   UNL     1      -4.681   1.444  24.943  0.00  0.00    +0.119 A 
ATOM     21  C   UNL     1      -4.305   2.165  25.086  0.00  0.00    +0.164 A 
ATOM     22  O   UNL     1      -3.493   2.048  25.012  0.00  0.00    -0.438 OA
ATOM     23  C   UNL     1      -4.753   2.835  25.264  0.00  0.00    +0.039 A 
ATOM     24  C   UNL     1      -5.575   2.784  25.300  0.00  0.00    +0.003 A 
ATOM     25  C   UNL     1      -5.951   2.063  25.157  0.00  0.00    +0.002 A 
ATOM     26  C   UNL     1      -5.504   1.393  24.979  0.00  0.00    +0.022 A 
ENDBRANCH  16  18
BRANCH  10   9
ATOM      6  C   UNL     1       2.052   0.353  22.737  0.00  0.00    +0.147 A 
ATOM      7  C   UNL     1       1.511  -0.231  22.519  0.00  0.00    +0.039 A 
ATOM      8  C   UNL     1       0.794  -0.300  22.923  0.00  0.00    +0.020 A 
ATOM      9  C   UNL     1       0.618   0.215  23.543  0.00  0.00    +0.075 A 
ATOM     27  C   UNL     1       1.159   0.799  23.759  0.00  0.00    +0.020 A 
ATOM     28  C   UNL     1       1.876   0.868  23.356  0.00  0.00    +0.039 A 
BRANCH   6   5
ATOM      5  O   UNL     1       2.768   0.422  22.333  0.00  0.00    -0.404 OA
BRANCH   5   2
ATOM      1  F   UNL     1       4.180   0.554  23.176  0.00  0.00    -0.133 F 
ATOM      2  C   UNL     1       3.474   0.489  22.755  0.00  0.00    +0.575 C 
ATOM      3  F   UNL     1       3.502  -0.332  22.837  0.00  0.00    -0.133 F 
ATOM      4  F   UNL     1       3.446   1.309  22.672  0.00  0.00    -0.133 F 
ENDBRANCH   5   2
ENDBRANCH   6   5
ENDBRANCH  10   9
TORSDOF 4
ENDMDL
MODEL 4
REMARK VINA RESULT:      -9.3      4.149      5.161
REMARK  Name = 
REMARK  4 active torsions:
REMARK  status: ('A' for Active; 'I' for Inactive)
REMARK    1  A    between atoms: C_2  and  O_5
REMARK    2  A    between atoms: O_5  and  C_6
REMARK    3  A    between atoms: C_9  and  N_10
REMARK    4  A    between atoms: C_16  and  C_18
REMARK                            x       y       z     vdW  Elec       q    Type
REMARK                         _______ _______ _______ _____ _____    ______ ____
ROOT
ATOM     10  N   UNL     1      -2.591   0.852  24.726  0.00  0.00    -0.162 NA
ATOM     11  C   UNL     1      -2.021   1.080  24.176  0.00  0.00    +0.327 C 
ATOM     12  O   UNL     1      -2.193   1.671  23.626  0.00  0.00    -0.250 OA
ATOM     13  N   UNL     1      -1.280   0.718  24.175  0.00  0.00    -0.262 N 
ATOM     14  C   UNL     1      -1.031   0.122  24.688  0.00  0.00    +0.096 C 
ATOM     15  C   UNL     1      -0.255  -0.077  24.490  0.00  0.00    +0.033 C 
ATOM     16  C   UNL     1      -0.024   0.397  23.854  0.00  0.00    +0.098 C 
ATOM     17  C   UNL     1      -0.658   0.887  23.660  0.00  0.00    +0.104 C 
ENDROOT
BRANCH  16  18
ATOM     18  C   UNL     1       0.711   0.382  23.480  0.00  0.00    +0.207 A 
ATOM     19  N   UNL     1       0.923  -0.103  22.848  0.00  0.00    -0.212 NA
ATOM     20  C   UNL     1       1.705   0.064  22.649  0.00  0.00    +0.119 A 
ATOM     21  C   UNL     1       1.977   0.654  23.159  0.00  0.00    +0.164 A 
ATOM     22  O   UNL     1       1.363   0.850  23.672  0.00  0.00    -0.438 OA
ATOM     23  C   UNL     1       2.750   0.935  23.089  0.00  0.00    +0.039 A 
ATOM     24  C   UNL     1       3.250   0.628  22.510  0.00  0.00    +0.003 A 
ATOM     25  C   UNL     1       2.978   0.038  22.001  0.00  0.00    +0.002 A 
ATOM     26  C   UNL     1       2.206  -0.244  22.070  0.00  0.00    +0.022 A 
ENDBRANCH  16  18
BRANCH  10   9
ATOM      6  C   UNL     1      -4.814   1.940  24.730  0.00  0.00    +0.147 A 
ATOM      7  C   UNL     1      -4.144   2.371  24.945  0.00  0.00    +0.039 A 
ATOM      8  C   UNL     1      -3.403   2.008  24.944  0.00  0.00    +0.020 A 
ATOM      9  C   UNL     1      -3.332   1.214  24.728  0.00  0.00    +0.075 A 
ATOM     27  C   UNL     1      -4.002   0.785  24.513  0.00  0.00    +0.020 A 
ATOM     28  C   UNL     1      -4.743   1.148  24.514  0.00  0.00    +0.039 A 
BRANCH   6   5
ATOM      5  O   UNL     1      -5.555   2.303  24.731  0.00  0.00    -0.404 OA
BRANCH   5   2
ATOM      1  F   UNL     1      -6.682   1.874  25.857  0.00  0.00    -0.133 F 
ATOM      2  C   UNL     1      -6.119   2.088  25.293  0.00  0.00    +0.575 C 
ATOM      3  F   UNL     1      -5.771   2.602  25.838  0.00  0.00    -0.133 F 
ATOM      4  F   UNL     1      -6.466   1.576  24.749  0.00  0.00    -0.133 F 
ENDBRANCH   5   2
ENDBRANCH   6   5
ENDBRANCH  10   9
TORSDOF 4
ENDMDL
MODEL 5
REMARK VINA RESULT:      -7.9      4.709      5.646
REMARK  Name = 
REMARK  4 active torsions:
REMARK  status: ('A' for Active; 'I' for Inactive)
REMARK    1  A    between atoms: C_2  and  O_5
REMARK    2  A    between atoms: O_5  and  C_6
REMARK    3  A    between atoms: C_9  and  N_10
REMARK    4  A    between atoms: C_16  and  C_18
REMARK                            x       y       z     vdW  Elec       q    Type
REMARK                         _______ _______ _______ _____ _____    ______ ____
ROOT
ATOM     10  N   UNL     1      -1.569   0.766  23.730  0.00  0.00    -0.162 NA
ATOM     11  C   UNL     1      -0.813   1.095  23.765  0.00  0.00    +0.327 C 
ATOM     12  O   UNL     1      -0.711   1.866  24.041  0.00  0.00    -0.250 OA
ATOM     13  N   UNL     1      -0.159   0.653  23.525  0.00  0.00    -0.262 N 
ATOM     14  C   UNL     1      -0.175  -0.121  23.238  0.00  0.00    +0.096 C 
ATOM     15  C   UNL     1       0.600  -0.344  23.065  0.00  0.00    +0.033 C 
ATOM     16  C   UNL     1       1.095   0.291  23.245  0.00  0.00    +0.098 C 
ATOM     17  C   UNL     1       0.626   0.907  23.529  0.00  0.00    +0.104 C 
ENDROOT
BRANCH  16  18
ATOM     18  C   UNL     1       1.915   0.307  23.157  0.00  0.00    +0.207 A 
ATOM     19  N   UNL     1       2.370   0.968  22.965  0.00  0.00    -0.212 NA
ATOM     20  C   UNL     1       3.160   0.734  22.934  0.00  0.00    +0.119 A 
ATOM     21  C   UNL     1       3.194  -0.072  23.107  0.00  0.00    +0.164 A 
ATOM     22  O   UNL     1       2.425  -0.336  23.245  0.00  0.00    -0.438 OA
ATOM     23  C   UNL     1       3.922  -0.461  23.117  0.00  0.00    +0.039 A 
ATOM     24  C   UNL     1       4.614  -0.045  22.953  0.00  0.00    +0.003 A 
ATOM     25  C   UNL     1       4.580   0.761  22.780  0.00  0.00    +0.002 A 
ATOM     26  C   UNL     1       3.853   1.151  22.771  0.00  0.00    +0.022 A 
ENDBRANCH  16  18
BRANCH  10   9
ATOM      6  C   UNL     1      -3.530   2.092  24.450  0.00  0.00    +0.147 A 
ATOM      7  C   UNL     1      -3.289   2.108  23.661  0.00  0.00    +0.039 A 
ATOM      8  C   UNL     1      -2.635   1.666  23.421  0.00  0.00    +0.020 A 
ATOM      9  C   UNL     1      -2.222   1.208  23.970  0.00  0.00    +0.075 A 
ATOM     27  C   UNL     1      -2.464   1.192  24.758  0.00  0.00    +0.020 A 
ATOM     28  C   UNL     1      -3.118   1.635  24.998  0.00  0.00    +0.039 A 
BRANCH   6   5
ATOM      5  O   UNL     1      -4.185   2.535  24.690  0.00  0.00    -0.404 OA
BRANCH   5   2
ATOM      1  F   UNL     1      -5.694   1.874  24.627  0.00  0.00    -0.133 F 
ATOM      2  C   UNL     1      -4.940   2.205  24.658  0.00  0.00    +0.575 C 
ATOM      3  F   UNL     1      -4.848   1.920  25.428  0.00  0.00    -0.133 F 
ATOM      4  F   UNL     1      -5.031   2.489  23.890  0.00  0.00    -0.133 F 
ENDBRANCH   5   2
ENDBRANCH   6   5
ENDBRANCH  10   9
TORSDOF 4
ENDMDL
MODEL 6
REMARK VINA RESULT:      -7.9      5.102      6.306
REMARK  Name = 
REMARK  4 active torsions:
REMARK  status: ('A' for Active; 'I' for Inactive)
REMARK    1  A    between atoms: C_2  and  O_5
REMARK    2  A    between atoms: O_5  and  C_6
REMARK    3  A    between atoms: C_9  and  N_10
REMARK    4  A    between atoms: C_16  and  C_18
REMARK                            x       y       z     vdW  Elec       q    Type
REMARK                         _______ _______ _______ _____ _____    ______ ____
ROOT
ATOM     10  N   UNL     1       1.606   0.439  23.165  0.00  0.00    -0.162 NA
ATOM     11  C   UNL     1       1.284   1.062  23.600  0.00  0.00    +0.327 C 
ATOM     12  O   UNL     1       1.781   1.628  23.939  0.00  0.00    -0.250 OA
ATOM     13  N   UNL     1       0.467   1.120  23.695  0.00  0.00    -0.262 N 
ATOM     14  C   UNL     1      -0.095   0.599  23.390  0.00  0.00    +0.096 C 
ATOM     15  C   UNL     1      -0.842   0.867  23.619  0.00  0.00    +0.033 C 
ATOM     16  C   UNL     1      -0.740   1.553  24.066  0.00  0.00    +0.098 C 
ATOM     17  C   UNL     1       0.068   1.710  24.113  0.00  0.00    +0.104 C 
ENDROOT
BRANCH  16  18
ATOM     18  C   UNL     1      -1.342   2.004  24.406  0.00  0.00    +0.207 A 
ATOM     19  N   UNL     1      -2.152   1.895  24.292  0.00  0.00    -0.212 NA
ATOM     20  C   UNL     1      -2.550   2.466  24.735  0.00  0.00    +0.119 A 
ATOM     21  C   UNL     1      -1.986   2.927  25.122  0.00  0.00    +0.164 A 
ATOM     22  O   UNL     1      -1.240   2.642  24.919  0.00  0.00    -0.438 OA
ATOM     23  C   UNL     1      -2.226   3.548  25.610  0.00  0.00    +0.039 A 
ATOM     24  C   UNL     1      -3.028   3.707  25.711  0.00  0.00    +0.003 A 
ATOM     25  C   UNL     1      -3.592   3.246  25.324  0.00  0.00    +0.002 A 
ATOM     26  C   UNL     1      -3.354   2.625  24.836  0.00  0.00    +0.022 A 
ENDBRANCH  16  18
BRANCH  10   9
ATOM      6  C   UNL     1       4.058   0.265  22.879  0.00  0.00    +0.147 A 
ATOM      7  C   UNL     1       3.634  -0.370  23.193  0.00  0.00    +0.039 A 
ATOM      8  C   UNL     1       2.816  -0.311  23.288  0.00  0.00    +0.020 A 
ATOM      9  C   UNL     1       2.423   0.381  23.070  0.00  0.00    +0.075 A 
ATOM     27  C   UNL     1       2.848   1.015  22.757  0.00  0.00    +0.020 A 
ATOM     28  C   UNL     1       3.666   0.956  22.661  0.00  0.00    +0.039 A 
BRANCH   6   5
ATOM      5  O   UNL     1       4.876   0.207  22.784  0.00  0.00    -0.404 OA
BRANCH   5   2
ATOM      1  F   UNL     1       5.856   0.116  24.108  0.00  0.00    -0.133 F 
ATOM      2  C   UNL     1       5.366   0.162  23.446  0.00  0.00    +0.575 C 
ATOM      3  F   UNL     1       5.428  -0.655  23.345  0.00  0.00    -0.133 F 
ATOM      4  F   UNL     1       5.304   0.978  23.547  0.00  0.00    -0.133 F 
ENDBRANCH   5   2
ENDBRANCH   6   5
ENDBRANCH  10   9
TORSDOF 4
ENDMDL
MODEL 7
REMARK VINA RESULT:      -7.7      5.048      6.591
REMARK  Name = 
REMARK  4 active torsions:
REMARK  status: ('A' for Active; 'I' for Inactive)
REMARK    1  A    between atoms: C_2  and  O_5
REMARK    2  A    between atoms: O_5  and  C_6
REMARK    3  A    between atoms: C_9  and  N_10
REMARK    4  A    between atoms: C_16  and  C_18
REMARK                            x       y       z     vdW  Elec       q    Type
REMARK                         _______ _______ _______ _____ _____    ______ ____
ROOT
ATOM     10  N   UNL     1      -1.543   0.165  24.448  0.00  0.00    -0.162 NA
ATOM     11  C   UNL     1      -0.897  -0.143  24.037  0.00  0.00    +0.327 C 
ATOM     12  O   UNL     1      -0.941  -0.898  23.708  0.00  0.00    -0.250 OA
ATOM     13  N   UNL     1      -0.209   0.304  23.955  0.00  0.00    -0.262 N 
ATOM     14  C   UNL     1      -0.085   1.064  24.253  0.00  0.00    +0.096 C 
ATOM     15  C   UNL     1       0.677   1.299  24.042  0.00  0.00    +0.033 C 
ATOM     16  C   UNL     1       1.025   0.685  23.615  0.00  0.00    +0.098 C 
ATOM     17  C   UNL     1       0.477   0.070  23.561  0.00  0.00    +0.104 C 
ENDROOT
BRANCH  16  18
ATOM     18  C   UNL     1       1.786   0.685  23.297  0.00  0.00    +0.207 A 
ATOM     19  N   UNL     1       2.077   0.158  22.734  0.00  0.00    -0.212 NA
ATOM     20  C   UNL     1       2.861   0.360  22.576  0.00  0.00    +0.119 A 
ATOM     21  C   UNL     1       3.055   1.013  23.041  0.00  0.00    +0.164 A 
ATOM     22  O   UNL     1       2.391   1.214  23.487  0.00  0.00    -0.438 OA
ATOM     23  C   UNL     1       3.811   1.340  22.999  0.00  0.00    +0.039 A 
ATOM     24  C   UNL     1       4.373   1.014  22.491  0.00  0.00    +0.003 A 
ATOM     25  C   UNL     1       4.180   0.361  22.025  0.00  0.00    +0.002 A 
ATOM     26  C   UNL     1       3.424   0.034  22.067  0.00  0.00    +0.022 A 
ENDBRANCH  16  18
BRANCH  10   9
ATOM      6  C   UNL     1      -3.608  -1.176  24.694  0.00  0.00    +0.147 A 
ATOM      7  C   UNL     1      -2.942  -1.358  25.147  0.00  0.00    +0.039 A 
ATOM      8  C   UNL     1      -2.253  -0.910  25.065  0.00  0.00    +0.020 A 
ATOM      9  C   UNL     1      -2.231  -0.282  24.530  0.00  0.00    +0.075 A 
ATOM     27  C   UNL     1      -2.896  -0.101  24.078  0.00  0.00    +0.020 A 
ATOM     28  C   UNL     1      -3.585  -0.549  24.160  0.00  0.00    +0.039 A 
BRANCH   6   5
ATOM      5  O   UNL     1      -4.296  -1.624  24.776  0.00  0.00    -0.404 OA
BRANCH   5   2
ATOM      1  F   UNL     1      -4.616  -2.847  23.717  0.00  0.00    -0.133 F 
ATOM      2  C   UNL     1      -4.456  -2.235  24.247  0.00  0.00    +0.575 C 
ATOM      3  F   UNL     1      -4.002  -2.751  24.704  0.00  0.00    -0.133 F 
ATOM      4  F   UNL     1      -4.910  -1.720  23.790  0.00  0.00    -0.133 F 
ENDBRANCH   5   2
ENDBRANCH   6   5
ENDBRANCH  10   9
TORSDOF 4
ENDMDL
