REMARK  Name = 
REMARK  2 active torsions:
REMARK  status: ('A' for Active; 'I' for Inactive)
REMARK    1  A    between atoms: C_2  and  C_26
REMARK    2  A    between atoms: C_12  and  C_13
REMARK                            x       y       z     vdW  Elec       q    Type
REMARK                         _______ _______ _______ _____ _____    ______ ____
ROOT
ATOM      1  O   UNL     1       0.333  -3.509   0.000  0.00  0.00    -0.270 OA
ATOM      2  C   UNL     1       0.172  -2.658   0.000  0.00  0.00    +0.249 C 
ATOM      3  N   UNL     1       0.813  -2.091   0.000  0.00  0.00    -0.276 N 
ATOM      4  C   UNL     1       1.629  -1.912   0.000  0.00  0.00    +0.096 C 
ATOM      5  C   UNL     1       1.582  -0.925   0.000  0.00  0.00    +0.043 C 
ATOM      6  C   UNL     1       1.713  -0.121   0.000  0.00  0.00    +0.011 C 
ATOM      7  C   UNL     1       1.163  -0.557   0.000  0.00  0.00    +0.058 C 
ATOM      8  C   UNL     1       1.225  -1.510   0.000  0.00  0.00    +0.099 C 
ATOM      9  C   UNL     1       0.244  -0.558   0.000  0.00  0.00    +0.041 A 
ATOM     10  C   UNL     1      -0.397  -0.039   0.000  0.00  0.00    +0.013 A 
ATOM     11  C   UNL     1      -1.167  -0.335   0.000  0.00  0.00    +0.006 A 
ATOM     12  C   UNL     1      -1.213  -1.232   0.000  0.00  0.00    +0.062 A 
ATOM     22  C   UNL     1      -0.655  -1.669   0.000  0.00  0.00    +0.261 A 
ATOM     23  O   UNL     1      -0.719  -2.700   0.000  0.00  0.00    -0.267 OA
ATOM     24  N   UNL     1       0.115  -1.373   0.000  0.00  0.00    -0.299 N 
ATOM     25  C   UNL     1       0.622  -0.936   0.000  0.00  0.00    +0.110 C 
ENDROOT
BRANCH  12  13
ATOM     13  C   UNL     1      -1.819  -1.693   0.000  0.00  0.00    +0.034 A 
ATOM     14  C   UNL     1      -2.362  -2.160   0.000  0.00  0.00    +0.007 A 
ATOM     15  C   UNL     1      -3.103  -2.286   0.000  0.00  0.00    +0.006 A 
ATOM     16  C   UNL     1      -3.399  -1.515   0.000  0.00  0.00    +0.029 A 
ATOM     17  S   UNL     1      -2.758  -0.996   0.000  0.00  0.00    -0.087 S 
ATOM     18  C   UNL     1      -4.214  -1.387   0.000  0.00  0.00    +0.006 A 
ATOM     19  C   UNL     1      -4.733  -2.028   0.000  0.00  0.00    +0.001 A 
ATOM     20  C   UNL     1      -4.437  -2.798   0.000  0.00  0.00    +0.000 A 
ATOM     21  C   UNL     1      -3.623  -2.927   0.000  0.00  0.00    +0.001 A 
ENDBRANCH  12  13
BRANCH   2  26
ATOM     26  C   UNL     1      -0.614  -2.179   0.000  0.00  0.00    +0.054 A 
ATOM     27  C   UNL     1      -1.301  -2.635   0.000  0.00  0.00    +0.005 A 
ATOM     28  C   UNL     1      -2.040  -2.267   0.000  0.00  0.00    +0.000 A 
ATOM     29  C   UNL     1      -2.091  -1.444   0.000  0.00  0.00    +0.000 A 
ATOM     30  C   UNL     1      -1.403  -0.988   0.000  0.00  0.00    +0.000 A 
ATOM     31  C   UNL     1      -0.664  -1.356   0.000  0.00  0.00    +0.005 A 
ENDBRANCH   2  26
TORSDOF 2
