MODEL 1
REMARK VINA RESULT:     -11.4      0.000      0.000
REMARK  Name = 
REMARK  8 active torsions:
REMARK  status: ('A' for Active; 'I' for Inactive)
REMARK    1  A    between atoms: O_2  and  C_3
REMARK    2  A    between atoms: C_3  and  C_4
REMARK    3  A    between atoms: C_4  and  N_5
REMARK    4  A    between atoms: N_5  and  C_6
REMARK    5  A    between atoms: C_7  and  C_12
REMARK    6  A    between atoms: C_15  and  C_17
REMARK    7  A    between atoms: N_21  and  C_22
REMARK    8  A    between atoms: C_22  and  C_23
REMARK                            x       y       z     vdW  Elec       q    Type
REMARK                         _______ _______ _______ _____ _____    ______ ____
ROOT
ATOM     12  C   UNL     1      -2.831   3.124  24.520  0.00  0.00    +0.206 A 
ATOM     13  N   UNL     1      -3.154   3.069  23.762  0.00  0.00    -0.056 NA
ATOM     14  O   UNL     1      -3.794   2.549  23.795  0.00  0.00    -0.336 OA
ATOM     15  C   UNL     1      -3.867   2.283  24.572  0.00  0.00    +0.251 A 
ATOM     16  N   UNL     1      -3.272   2.638  25.020  0.00  0.00    -0.190 NA
ENDROOT
BRANCH  12   7
ATOM      6  C   UNL     1      -1.418   3.286  24.653  0.00  0.00    +0.151 A 
ATOM      7  C   UNL     1      -2.182   3.584  24.739  0.00  0.00    +0.072 A 
ATOM      8  C   UNL     1      -2.298   4.342  25.043  0.00  0.00    +0.008 A 
ATOM      9  C   UNL     1      -1.649   4.802  25.261  0.00  0.00    +0.021 A 
ATOM     10  C   UNL     1      -0.885   4.505  25.176  0.00  0.00    +0.100 A 
ATOM     11  N   UNL     1      -0.769   3.746  24.871  0.00  0.00    -0.228 NA
BRANCH   6   5
ATOM      5  N   UNL     1      -1.302   2.528  24.349  0.00  0.00    -0.218 NA
BRANCH   5   4
ATOM      4  C   UNL     1      -0.558   2.175  24.393  0.00  0.00    +0.146 C 
BRANCH   4   3
ATOM      3  C   UNL     1      -0.394   1.501  23.947  0.00  0.00    +0.166 C 
BRANCH   3   2
ATOM      1  C   UNL     1      -0.012   0.125  23.878  0.00  0.00    +0.174 C 
ATOM      2  O   UNL     1      -0.187   0.796  24.324  0.00  0.00    -0.349 OA
ENDBRANCH   3   2
ENDBRANCH   4   3
ENDBRANCH   5   4
ENDBRANCH   6   5
ENDBRANCH  12   7
BRANCH  15  17
ATOM     17  C   UNL     1      -4.434   1.754  24.853  0.00  0.00    +0.138 C 
ATOM     18  C   UNL     1      -5.131   1.955  25.247  0.00  0.00    +0.027 C 
ATOM     19  C   UNL     1      -5.532   1.256  25.426  0.00  0.00    +0.019 C 
ATOM     20  C   UNL     1      -5.084   0.625  25.143  0.00  0.00    +0.073 C 
ATOM     21  N   UNL     1      -4.405   0.932  24.789  0.00  0.00    -0.263 NA
BRANCH  21  22
ATOM     22  C   UNL     1      -3.803   0.494  24.433  0.00  0.00    +0.099 C 
BRANCH  22  23
ATOM     23  C   UNL     1      -3.764  -0.321  24.547  0.00  0.00    -0.006 A 
ATOM     24  C   UNL     1      -3.393  -0.626  25.219  0.00  0.00    -0.002 A 
ATOM     25  C   UNL     1      -3.354  -1.442  25.333  0.00  0.00    +0.011 A 
ATOM     26  C   UNL     1      -3.684  -1.953  24.776  0.00  0.00    +0.058 A 
ATOM     27 CL   UNL     1      -3.644  -2.770  24.891  0.00  0.00    -0.082 Cl
ATOM     28  C   UNL     1      -4.054  -1.649  24.105  0.00  0.00    +0.011 A 
ATOM     29  C   UNL     1      -4.094  -0.833  23.990  0.00  0.00    -0.002 A 
ENDBRANCH  22  23
ENDBRANCH  21  22
ENDBRANCH  15  17
TORSDOF 8
ENDMDL
MODEL 2
REMARK VINA RESULT:     -10.8      1.262      3.037
REMARK  Name = 
REMARK  8 active torsions:
REMARK  status: ('A' for Active; 'I' for Inactive)
REMARK    1  A    between atoms: O_2  and  C_3
REMARK    2  A    between atoms: C_3  and  C_4
REMARK    3  A    between atoms: C_4  and  N_5
REMARK    4  A    between atoms: N_5  and  C_6
REMARK    5  A    between atoms: C_7  and  C_12
REMARK    6  A    between atoms: C_15  and  C_17
REMARK    7  A    between atoms: N_21  and  C_22
REMARK    8  A    between atoms: C_22  and  C_23
REMARK                            x       y       z     vdW  Elec       q    Type
REMARK                         _______ _______ _______ _____ _____    ______ ____
ROOT
ATOM     12  C   UNL     1      -1.163   2.773  25.389  0.00  0.00    +0.206 A 
ATOM     13  N   UNL     1      -1.058   2.402  26.119  0.00  0.00    -0.056 NA
ATOM     14  O   UNL     1      -0.934   1.598  25.981  0.00  0.00    -0.336 OA
ATOM     15  C   UNL     1      -0.963   1.472  25.166  0.00  0.00    +0.251 A 
ATOM     16  N   UNL     1      -1.104   2.198  24.801  0.00  0.00    -0.190 NA
ENDROOT
BRANCH  12   7
ATOM      6  C   UNL     1      -2.071   3.873  25.312  0.00  0.00    +0.151 A 
ATOM      7  C   UNL     1      -1.302   3.577  25.269  0.00  0.00    +0.072 A 
ATOM      8  C   UNL     1      -0.673   4.085  25.108  0.00  0.00    +0.008 A 
ATOM      9  C   UNL     1      -0.812   4.889  24.988  0.00  0.00    +0.021 A 
ATOM     10  C   UNL     1      -1.580   5.186  25.030  0.00  0.00    +0.100 A 
ATOM     11  N   UNL     1      -2.210   4.677  25.192  0.00  0.00    -0.228 NA
BRANCH   6   5
ATOM      5  N   UNL     1      -2.700   3.366  25.473  0.00  0.00    -0.218 NA
BRANCH   5   4
ATOM      4  C   UNL     1      -3.477   3.629  25.382  0.00  0.00    +0.146 C 
BRANCH   4   3
ATOM      3  C   UNL     1      -4.100   3.196  25.705  0.00  0.00    +0.166 C 
BRANCH   3   2
ATOM      1  C   UNL     1      -5.437   2.702  25.600  0.00  0.00    +0.174 C 
ATOM      2  O   UNL     1      -4.766   3.025  25.247  0.00  0.00    -0.349 OA
ENDBRANCH   3   2
ENDBRANCH   4   3
ENDBRANCH   5   4
ENDBRANCH   6   5
ENDBRANCH  12   7
BRANCH  15  17
ATOM     17  C   UNL     1      -0.868   0.747  24.784  0.00  0.00    +0.138 C 
ATOM     18  C   UNL     1      -0.195   0.499  24.376  0.00  0.00    +0.027 C 
ATOM     19  C   UNL     1      -0.339  -0.259  24.082  0.00  0.00    +0.019 C 
ATOM     20  C   UNL     1      -1.101  -0.478  24.309  0.00  0.00    +0.073 C 
ATOM     21  N   UNL     1      -1.428   0.143  24.743  0.00  0.00    -0.263 NA
BRANCH  21  22
ATOM     22  C   UNL     1      -2.182   0.157  25.076  0.00  0.00    +0.099 C 
BRANCH  22  23
ATOM     23  C   UNL     1      -2.760  -0.368  24.811  0.00  0.00    -0.006 A 
ATOM     24  C   UNL     1      -3.276  -0.144  24.207  0.00  0.00    -0.002 A 
ATOM     25  C   UNL     1      -3.854  -0.669  23.942  0.00  0.00    +0.011 A 
ATOM     26  C   UNL     1      -3.917  -1.418  24.282  0.00  0.00    +0.058 A 
ATOM     27 CL   UNL     1      -4.496  -1.944  24.017  0.00  0.00    -0.082 Cl
ATOM     28  C   UNL     1      -3.403  -1.643  24.886  0.00  0.00    +0.011 A 
ATOM     29  C   UNL     1      -2.824  -1.117  25.151  0.00  0.00    -0.002 A 
ENDBRANCH  22  23
ENDBRANCH  21  22
ENDBRANCH  15  17
TORSDOF 8
ENDMDL
MODEL 3
REMARK VINA RESULT:     -10.5      1.953      4.323
REMARK  Name = 
REMARK  8 active torsions:
REMARK  status: ('A' for Active; 'I' for Inactive)
REMARK    1  A    between atoms: O_2  and  C_3
REMARK    2  A    between atoms: C_3  and  C_4
REMARK    3  A    between atoms: C_4  and  N_5
REMARK    4  A    between atoms: N_5  and  C_6
REMARK    5  A    between atoms: C_7  and  C_12
REMARK    6  A    between atoms: C_15  and  C_17
REMARK    7  A    between atoms: N_21  and  C_22
REMARK    8  A    between atoms: C_22  and  C_23
REMARK                            x       y       z     vdW  Elec       q    Type
REMARK                         _______ _______ _______ _____ _____    ______ ____
ROOT
ATOM     12  C   UNL     1      -3.656  -0.481  24.352  0.00  0.00    +0.206 A 
ATOM     13  N   UNL     1      -3.757  -0.135  23.609  0.00  0.00    -0.056 NA
ATOM     14  O   UNL     1      -4.051   0.628  23.720  0.00  0.00    -0.336 OA
ATOM     15  C   UNL     1      -4.131   0.754  24.532  0.00  0.00    +0.251 A 
ATOM     16  N   UNL     1      -3.886   0.069  24.922  0.00  0.00    -0.190 NA
ENDROOT
BRANCH  12   7
ATOM      6  C   UNL     1      -2.563  -1.370  24.587  0.00  0.00    +0.151 A 
ATOM      7  C   UNL     1      -3.373  -1.242  24.498  0.00  0.00    +0.072 A 
ATOM      8  C   UNL     1      -3.900  -1.873  24.554  0.00  0.00    +0.008 A 
ATOM      9  C   UNL     1      -3.617  -2.634  24.701  0.00  0.00    +0.021 A 
ATOM     10  C   UNL     1      -2.808  -2.764  24.790  0.00  0.00    +0.100 A 
ATOM     11  N   UNL     1      -2.280  -2.132  24.733  0.00  0.00    -0.228 NA
BRANCH   6   5
ATOM      5  N   UNL     1      -2.036  -0.739  24.530  0.00  0.00    -0.218 NA
BRANCH   5   4
ATOM      4  C   UNL     1      -1.223  -0.880  24.503  0.00  0.00    +0.146 C 
BRANCH   4   3
ATOM      3  C   UNL     1      -0.693  -0.251  24.560  0.00  0.00    +0.166 C 
BRANCH   3   2
ATOM      1  C   UNL     1       0.241   0.595  23.886  0.00  0.00    +0.174 C 
ATOM      2  O   UNL     1      -0.119  -0.141  23.977  0.00  0.00    -0.349 OA
ENDBRANCH   3   2
ENDBRANCH   4   3
ENDBRANCH   5   4
ENDBRANCH   6   5
ENDBRANCH  12   7
BRANCH  15  17
ATOM     17  C   UNL     1      -4.406   1.444  24.891  0.00  0.00    +0.138 C 
ATOM     18  C   UNL     1      -5.133   1.536  25.270  0.00  0.00    +0.027 C 
ATOM     19  C   UNL     1      -5.180   2.312  25.547  0.00  0.00    +0.019 C 
ATOM     20  C   UNL     1      -4.482   2.699  25.340  0.00  0.00    +0.073 C 
ATOM     21  N   UNL     1      -4.003   2.162  24.934  0.00  0.00    -0.263 NA
BRANCH  21  22
ATOM     22  C   UNL     1      -3.254   2.318  24.626  0.00  0.00    +0.099 C 
BRANCH  22  23
ATOM     23  C   UNL     1      -2.855   3.007  24.839  0.00  0.00    -0.006 A 
ATOM     24  C   UNL     1      -2.300   2.990  25.450  0.00  0.00    -0.002 A 
ATOM     25  C   UNL     1      -1.901   3.679  25.664  0.00  0.00    +0.011 A 
ATOM     26  C   UNL     1      -2.056   4.385  25.268  0.00  0.00    +0.058 A 
ATOM     27 CL   UNL     1      -1.656   5.075  25.482  0.00  0.00    -0.082 Cl
ATOM     28  C   UNL     1      -2.611   4.403  24.657  0.00  0.00    +0.011 A 
ATOM     29  C   UNL     1      -3.010   3.714  24.443  0.00  0.00    -0.002 A 
ENDBRANCH  22  23
ENDBRANCH  21  22
ENDBRANCH  15  17
TORSDOF 8
ENDMDL
MODEL 4
REMARK VINA RESULT:     -10.4      2.007      5.284
REMARK  Name = 
REMARK  8 active torsions:
REMARK  status: ('A' for Active; 'I' for Inactive)
REMARK    1  A    between atoms: O_2  and  C_3
REMARK    2  A    between atoms: C_3  and  C_4
REMARK    3  A    between atoms: C_4  and  N_5
REMARK    4  A    between atoms: N_5  and  C_6
REMARK    5  A    between atoms: C_7  and  C_12
REMARK    6  A    between atoms: C_15  and  C_17
REMARK    7  A    between atoms: N_21  and  C_22
REMARK    8  A    between atoms: C_22  and  C_23
REMARK                            x       y       z     vdW  Elec       q    Type
REMARK                         _______ _______ _______ _____ _____    ______ ____
ROOT
ATOM     12  C   UNL     1      -2.290  -0.775  24.894  0.00  0.00    +0.206 A 
ATOM     13  N   UNL     1      -1.993  -0.722  25.662  0.00  0.00    -0.056 NA
ATOM     14  O   UNL     1      -1.361  -0.191  25.656  0.00  0.00    -0.336 OA
ATOM     15  C   UNL     1      -1.267   0.084  24.883  0.00  0.00    +0.251 A 
ATOM     16  N   UNL     1      -1.842  -0.277  24.413  0.00  0.00    -0.190 NA
ENDROOT
BRANCH  12   7
ATOM      6  C   UNL     1      -3.683  -0.921  24.610  0.00  0.00    +0.151 A 
ATOM      7  C   UNL     1      -2.924  -1.243  24.650  0.00  0.00    +0.072 A 
ATOM      8  C   UNL     1      -2.799  -2.032  24.447  0.00  0.00    +0.008 A 
ATOM      9  C   UNL     1      -3.433  -2.500  24.203  0.00  0.00    +0.021 A 
ATOM     10  C   UNL     1      -4.192  -2.180  24.163  0.00  0.00    +0.100 A 
ATOM     11  N   UNL     1      -4.317  -1.389  24.367  0.00  0.00    -0.228 NA
BRANCH   6   5
ATOM      5  N   UNL     1      -3.808  -0.132  24.814  0.00  0.00    -0.218 NA
BRANCH   5   4
ATOM      4  C   UNL     1      -4.548   0.213  24.696  0.00  0.00    +0.146 C 
BRANCH   4   3
ATOM      3  C   UNL     1      -4.748   0.907  25.093  0.00  0.00    +0.166 C 
BRANCH   3   2
ATOM      1  C   UNL     1      -5.506   2.118  25.114  0.00  0.00    +0.174 C 
ATOM      2  O   UNL     1      -5.132   1.517  24.692  0.00  0.00    -0.349 OA
ENDBRANCH   3   2
ENDBRANCH   4   3
ENDBRANCH   5   4
ENDBRANCH   6   5
ENDBRANCH  12   7
BRANCH  15  17
ATOM     17  C   UNL     1      -0.700   0.624  24.626  0.00  0.00    +0.138 C 
ATOM     18  C   UNL     1      -0.067   0.460  24.123  0.00  0.00    +0.027 C 
ATOM     19  C   UNL     1       0.359   1.158  24.013  0.00  0.00    +0.019 C 
ATOM     20  C   UNL     1      -0.010   1.753  24.448  0.00  0.00    +0.073 C 
ATOM     21  N   UNL     1      -0.665   1.423  24.827  0.00  0.00    -0.263 NA
BRANCH  21  22
ATOM     22  C   UNL     1      -1.191   1.823  25.321  0.00  0.00    +0.099 C 
BRANCH  22  23
ATOM     23  C   UNL     1      -1.255   2.644  25.278  0.00  0.00    -0.006 A 
ATOM     24  C   UNL     1      -1.831   2.989  24.798  0.00  0.00    -0.002 A 
ATOM     25  C   UNL     1      -1.895   3.810  24.755  0.00  0.00    +0.011 A 
ATOM     26  C   UNL     1      -1.383   4.287  25.191  0.00  0.00    +0.058 A 
ATOM     27 CL   UNL     1      -1.446   5.109  25.148  0.00  0.00    -0.082 Cl
ATOM     28  C   UNL     1      -0.806   3.943  25.671  0.00  0.00    +0.011 A 
ATOM     29  C   UNL     1      -0.742   3.121  25.714  0.00  0.00    -0.002 A 
ENDBRANCH  22  23
ENDBRANCH  21  22
ENDBRANCH  15  17
TORSDOF 8
ENDMDL
MODEL 5
REMARK VINA RESULT:     -10.2      1.320      2.856
REMARK  Name = 
REMARK  8 active torsions:
REMARK  status: ('A' for Active; 'I' for Inactive)
REMARK    1  A    between atoms: O_2  and  C_3
REMARK    2  A    between atoms: C_3  and  C_4
REMARK    3  A    between atoms: C_4  and  N_5
REMARK    4  A    between atoms: N_5  and  C_6
REMARK    5  A    between atoms: C_7  and  C_12
REMARK    6  A    between atoms: C_15  and  C_17
REMARK    7  A    between atoms: N_21  and  C_22
REMARK    8  A    between atoms: C_22  and  C_23
REMARK                            x       y       z     vdW  Elec       q    Type
REMARK                         _______ _______ _______ _____ _____    ______ ____
ROOT
ATOM     12  C   UNL     1      -3.704   2.177  24.525  0.00  0.00    +0.206 A 
ATOM     13  N   UNL     1      -3.598   2.128  23.708  0.00  0.00    -0.056 NA
ATOM     14  O   UNL     1      -3.065   1.517  23.556  0.00  0.00    -0.336 OA
ATOM     15  C   UNL     1      -2.841   1.188  24.279  0.00  0.00    +0.251 A 
ATOM     16  N   UNL     1      -3.237   1.596  24.878  0.00  0.00    -0.190 NA
ENDROOT
BRANCH  12   7
ATOM      6  C   UNL     1      -3.878   3.416  25.214  0.00  0.00    +0.151 A 
ATOM      7  C   UNL     1      -4.192   2.713  24.919  0.00  0.00    +0.072 A 
ATOM      8  C   UNL     1      -4.993   2.545  25.018  0.00  0.00    +0.008 A 
ATOM      9  C   UNL     1      -5.481   3.081  25.413  0.00  0.00    +0.021 A 
ATOM     10  C   UNL     1      -5.168   3.784  25.708  0.00  0.00    +0.100 A 
ATOM     11  N   UNL     1      -4.366   3.952  25.609  0.00  0.00    -0.228 NA
BRANCH   6   5
ATOM      5  N   UNL     1      -3.077   3.584  25.115  0.00  0.00    -0.218 NA
BRANCH   5   4
ATOM      4  C   UNL     1      -2.764   4.292  25.403  0.00  0.00    +0.146 C 
BRANCH   4   3
ATOM      3  C   UNL     1      -1.949   4.415  25.398  0.00  0.00    +0.166 C 
BRANCH   3   2
ATOM      1  C   UNL     1      -0.898   5.266  24.937  0.00  0.00    +0.174 C 
ATOM      2  O   UNL     1      -1.646   5.172  25.269  0.00  0.00    -0.349 OA
ENDBRANCH   3   2
ENDBRANCH   4   3
ENDBRANCH   5   4
ENDBRANCH   6   5
ENDBRANCH  12   7
BRANCH  15  17
ATOM     17  C   UNL     1      -2.316   0.561  24.386  0.00  0.00    +0.138 C 
ATOM     18  C   UNL     1      -1.495   0.598  24.306  0.00  0.00    +0.027 C 
ATOM     19  C   UNL     1      -1.190  -0.153  24.461  0.00  0.00    +0.019 C 
ATOM     20  C   UNL     1      -1.821  -0.653  24.637  0.00  0.00    +0.073 C 
ATOM     21  N   UNL     1      -2.517  -0.212  24.590  0.00  0.00    -0.263 NA
BRANCH  21  22
ATOM     22  C   UNL     1      -3.280  -0.495  24.725  0.00  0.00    +0.099 C 
BRANCH  22  23
ATOM     23  C   UNL     1      -3.452  -1.292  24.606  0.00  0.00    -0.006 A 
ATOM     24  C   UNL     1      -3.835  -1.534  23.916  0.00  0.00    -0.002 A 
ATOM     25  C   UNL     1      -4.006  -2.331  23.797  0.00  0.00    +0.011 A 
ATOM     26  C   UNL     1      -3.795  -2.888  24.367  0.00  0.00    +0.058 A 
ATOM     27 CL   UNL     1      -3.967  -3.687  24.248  0.00  0.00    -0.082 Cl
ATOM     28  C   UNL     1      -3.412  -2.648  25.057  0.00  0.00    +0.011 A 
ATOM     29  C   UNL     1      -3.241  -1.849  25.176  0.00  0.00    -0.002 A 
ENDBRANCH  22  23
ENDBRANCH  21  22
ENDBRANCH  15  17
TORSDOF 8
ENDMDL
MODEL 6
REMARK VINA RESULT:      -9.7      1.613      2.777
REMARK  Name = 
REMARK  8 active torsions:
REMARK  status: ('A' for Active; 'I' for Inactive)
REMARK    1  A    between atoms: O_2  and  C_3
REMARK    2  A    between atoms: C_3  and  C_4
REMARK    3  A    between atoms: C_4  and  N_5
REMARK    4  A    between atoms: N_5  and  C_6
REMARK    5  A    between atoms: C_7  and  C_12
REMARK    6  A    between atoms: C_15  and  C_17
REMARK    7  A    between atoms: N_21  and  C_22
REMARK    8  A    between atoms: C_22  and  C_23
REMARK                            x       y       z     vdW  Elec       q    Type
REMARK                         _______ _______ _______ _____ _____    ______ ____
ROOT
ATOM     12  C   UNL     1      -4.181   1.911  24.559  0.00  0.00    +0.206 A 
ATOM     13  N   UNL     1      -3.906   1.903  23.780  0.00  0.00    -0.056 NA
ATOM     14  O   UNL     1      -3.737   1.121  23.578  0.00  0.00    -0.336 OA
ATOM     15  C   UNL     1      -3.908   0.646  24.231  0.00  0.00    +0.251 A 
ATOM     16  N   UNL     1      -4.182   1.135  24.837  0.00  0.00    -0.190 NA
ENDROOT
BRANCH  12   7
ATOM      6  C   UNL     1      -3.844   3.083  25.304  0.00  0.00    +0.151 A 
ATOM      7  C   UNL     1      -4.414   2.579  24.983  0.00  0.00    +0.072 A 
ATOM      8  C   UNL     1      -5.215   2.743  25.087  0.00  0.00    +0.008 A 
ATOM      9  C   UNL     1      -5.448   3.411  25.512  0.00  0.00    +0.021 A 
ATOM     10  C   UNL     1      -4.879   3.915  25.833  0.00  0.00    +0.100 A 
ATOM     11  N   UNL     1      -4.077   3.751  25.729  0.00  0.00    -0.228 NA
BRANCH   6   5
ATOM      5  N   UNL     1      -3.043   2.919  25.200  0.00  0.00    -0.218 NA
BRANCH   5   4
ATOM      4  C   UNL     1      -2.476   3.341  25.626  0.00  0.00    +0.146 C 
BRANCH   4   3
ATOM      3  C   UNL     1      -1.675   3.241  25.460  0.00  0.00    +0.166 C 
BRANCH   3   2
ATOM      1  C   UNL     1      -0.377   2.815  25.881  0.00  0.00    +0.174 C 
ATOM      2  O   UNL     1      -1.150   3.038  26.063  0.00  0.00    -0.349 OA
ENDBRANCH   3   2
ENDBRANCH   4   3
ENDBRANCH   5   4
ENDBRANCH   6   5
ENDBRANCH  12   7
BRANCH  15  17
ATOM     17  C   UNL     1      -3.820  -0.173  24.271  0.00  0.00    +0.138 C 
ATOM     18  C   UNL     1      -4.421  -0.730  24.174  0.00  0.00    +0.027 C 
ATOM     19  C   UNL     1      -4.089  -1.481  24.258  0.00  0.00    +0.019 C 
ATOM     20  C   UNL     1      -3.283  -1.388  24.407  0.00  0.00    +0.073 C 
ATOM     21  N   UNL     1      -3.117  -0.579  24.415  0.00  0.00    -0.263 NA
BRANCH  21  22
ATOM     22  C   UNL     1      -2.378  -0.238  24.545  0.00  0.00    +0.099 C 
BRANCH  22  23
ATOM     23  C   UNL     1      -1.746  -0.704  24.798  0.00  0.00    -0.006 A 
ATOM     24  C   UNL     1      -1.265  -1.083  24.245  0.00  0.00    -0.002 A 
ATOM     25  C   UNL     1      -0.634  -1.549  24.499  0.00  0.00    +0.011 A 
ATOM     26  C   UNL     1      -0.483  -1.637  25.305  0.00  0.00    +0.058 A 
ATOM     27 CL   UNL     1       0.149  -2.103  25.559  0.00  0.00    -0.082 Cl
ATOM     28  C   UNL     1      -0.964  -1.258  25.858  0.00  0.00    +0.011 A 
ATOM     29  C   UNL     1      -1.596  -0.792  25.604  0.00  0.00    -0.002 A 
ENDBRANCH  22  23
ENDBRANCH  21  22
ENDBRANCH  15  17
TORSDOF 8
ENDMDL
MODEL 7
REMARK VINA RESULT:      -9.6      1.507      3.567
REMARK  Name = 
REMARK  8 active torsions:
REMARK  status: ('A' for Active; 'I' for Inactive)
REMARK    1  A    between atoms: O_2  and  C_3
REMARK    2  A    between atoms: C_3  and  C_4
REMARK    3  A    between atoms: C_4  and  N_5
REMARK    4  A    between atoms: N_5  and  C_6
REMARK    5  A    between atoms: C_7  and  C_12
REMARK    6  A    between atoms: C_15  and  C_17
REMARK    7  A    between atoms: N_21  and  C_22
REMARK    8  A    between atoms: C_22  and  C_23
REMARK                            x       y       z     vdW  Elec       q    Type
REMARK                         _______ _______ _______ _____ _____    ______ ____
ROOT
ATOM     12  C   UNL     1      -3.376   2.851  24.911  0.00  0.00    +0.206 A 
ATOM     13  N   UNL     1      -3.065   3.058  24.174  0.00  0.00    -0.056 NA
ATOM     14  O   UNL     1      -2.249   2.935  24.198  0.00  0.00    -0.336 OA
ATOM     15  C   UNL     1      -2.056   2.652  24.949  0.00  0.00    +0.251 A 
ATOM     16  N   UNL     1      -2.752   2.600  25.389  0.00  0.00    -0.190 NA
ENDROOT
BRANCH  12   7
ATOM      6  C   UNL     1      -4.657   2.230  25.028  0.00  0.00    +0.151 A 
ATOM      7  C   UNL     1      -4.170   2.889  25.130  0.00  0.00    +0.072 A 
ATOM      8  C   UNL     1      -4.477   3.583  25.450  0.00  0.00    +0.008 A 
ATOM      9  C   UNL     1      -5.271   3.621  25.669  0.00  0.00    +0.021 A 
ATOM     10  C   UNL     1      -5.759   2.964  25.568  0.00  0.00    +0.100 A 
ATOM     11  N   UNL     1      -5.452   2.268  25.247  0.00  0.00    -0.228 NA
BRANCH   6   5
ATOM      5  N   UNL     1      -4.351   1.535  24.707  0.00  0.00    -0.218 NA
BRANCH   5   4
ATOM      4  C   UNL     1      -4.778   0.832  24.761  0.00  0.00    +0.146 C 
BRANCH   4   3
ATOM      3  C   UNL     1      -4.571   0.186  24.292  0.00  0.00    +0.166 C 
BRANCH   3   2
ATOM      1  C   UNL     1      -4.326  -1.216  24.164  0.00  0.00    +0.174 C 
ATOM      2  O   UNL     1      -4.445  -0.553  24.638  0.00  0.00    -0.349 OA
ENDBRANCH   3   2
ENDBRANCH   4   3
ENDBRANCH   5   4
ENDBRANCH   6   5
ENDBRANCH  12   7
BRANCH  15  17
ATOM     17  C   UNL     1      -1.300   2.455  25.213  0.00  0.00    +0.138 C 
ATOM     18  C   UNL     1      -0.808   2.932  25.673  0.00  0.00    +0.027 C 
ATOM     19  C   UNL     1      -0.106   2.518  25.808  0.00  0.00    +0.019 C 
ATOM     20  C   UNL     1      -0.165   1.787  25.431  0.00  0.00    +0.073 C 
ATOM     21  N   UNL     1      -0.902   1.748  25.063  0.00  0.00    -0.263 NA
BRANCH  21  22
ATOM     22  C   UNL     1      -1.191   1.113  24.623  0.00  0.00    +0.099 C 
BRANCH  22  23
ATOM     23  C   UNL     1      -0.948   0.345  24.798  0.00  0.00    -0.006 A 
ATOM     24  C   UNL     1      -0.464  -0.065  24.270  0.00  0.00    -0.002 A 
ATOM     25  C   UNL     1      -0.220  -0.833  24.445  0.00  0.00    +0.011 A 
ATOM     26  C   UNL     1      -0.460  -1.192  25.147  0.00  0.00    +0.058 A 
ATOM     27 CL   UNL     1      -0.216  -1.961  25.323  0.00  0.00    -0.082 Cl
ATOM     28  C   UNL     1      -0.943  -0.783  25.676  0.00  0.00    +0.011 A 
ATOM     29  C   UNL     1      -1.187  -0.014  25.501  0.00  0.00    -0.002 A 
ENDBRANCH  22  23
ENDBRANCH  21  22
ENDBRANCH  15  17
TORSDOF 8
ENDMDL
MODEL 8
REMARK VINA RESULT:      -9.5      2.074      4.300
REMARK  Name = 
REMARK  8 active torsions:
REMARK  status: ('A' for Active; 'I' for Inactive)
REMARK    1  A    between atoms: O_2  and  C_3
REMARK    2  A    between atoms: C_3  and  C_4
REMARK    3  A    between atoms: C_4  and  N_5
REMARK    4  A    between atoms: N_5  and  C_6
REMARK    5  A    between atoms: C_7  and  C_12
REMARK    6  A    between atoms: C_15  and  C_17
REMARK    7  A    between atoms: N_21  and  C_22
REMARK    8  A    between atoms: C_22  and  C_23
REMARK                            x       y       z     vdW  Elec       q    Type
REMARK                         _______ _______ _______ _____ _____    ______ ____
ROOT
ATOM     12  C   UNL     1      -0.162   1.756  24.754  0.00  0.00    +0.206 A 
ATOM     13  N   UNL     1       0.023   1.859  25.551  0.00  0.00    -0.056 NA
ATOM     14  O   UNL     1      -0.292   2.582  25.795  0.00  0.00    -0.336 OA
ATOM     15  C   UNL     1      -0.672   2.925  25.148  0.00  0.00    +0.251 A 
ATOM     16  N   UNL     1      -0.591   2.415  24.505  0.00  0.00    -0.190 NA
ENDROOT
BRANCH  12   7
ATOM      6  C   UNL     1      -0.393   0.411  24.332  0.00  0.00    +0.151 A 
ATOM      7  C   UNL     1       0.046   1.108  24.287  0.00  0.00    +0.072 A 
ATOM      8  C   UNL     1       0.692   1.157  23.778  0.00  0.00    +0.008 A 
ATOM      9  C   UNL     1       0.900   0.509  23.312  0.00  0.00    +0.021 A 
ATOM     10  C   UNL     1       0.462  -0.188  23.355  0.00  0.00    +0.100 A 
ATOM     11  N   UNL     1      -0.185  -0.238  23.866  0.00  0.00    -0.228 NA
BRANCH   6   5
ATOM      5  N   UNL     1      -1.039   0.361  24.841  0.00  0.00    -0.218 NA
BRANCH   5   4
ATOM      4  C   UNL     1      -1.549  -0.286  24.800  0.00  0.00    +0.146 C 
BRANCH   4   3
ATOM      3  C   UNL     1      -2.084  -0.430  25.411  0.00  0.00    +0.166 C 
BRANCH   3   2
ATOM      1  C   UNL     1      -3.344  -1.026  25.726  0.00  0.00    +0.174 C 
ATOM      2  O   UNL     1      -2.884  -0.542  25.243  0.00  0.00    -0.349 OA
ENDBRANCH   3   2
ENDBRANCH   4   3
ENDBRANCH   5   4
ENDBRANCH   6   5
ENDBRANCH  12   7
BRANCH  15  17
ATOM     17  C   UNL     1      -1.063   3.651  25.145  0.00  0.00    +0.138 C 
ATOM     18  C   UNL     1      -0.728   4.382  24.960  0.00  0.00    +0.027 C 
ATOM     19  C   UNL     1      -1.317   4.957  25.026  0.00  0.00    +0.019 C 
ATOM     20  C   UNL     1      -2.015   4.581  25.252  0.00  0.00    +0.073 C 
ATOM     21  N   UNL     1      -1.859   3.774  25.325  0.00  0.00    -0.263 NA
BRANCH  21  22
ATOM     22  C   UNL     1      -2.403   3.193  25.541  0.00  0.00    +0.099 C 
BRANCH  22  23
ATOM     23  C   UNL     1      -3.211   3.350  25.503  0.00  0.00    -0.006 A 
ATOM     24  C   UNL     1      -3.639   3.151  24.825  0.00  0.00    -0.002 A 
ATOM     25  C   UNL     1      -4.447   3.307  24.787  0.00  0.00    +0.011 A 
ATOM     26  C   UNL     1      -4.829   3.663  25.425  0.00  0.00    +0.058 A 
ATOM     27 CL   UNL     1      -5.639   3.820  25.387  0.00  0.00    -0.082 Cl
ATOM     28  C   UNL     1      -4.403   3.862  26.103  0.00  0.00    +0.011 A 
ATOM     29  C   UNL     1      -3.593   3.705  26.141  0.00  0.00    -0.002 A 
ENDBRANCH  22  23
ENDBRANCH  21  22
ENDBRANCH  15  17
TORSDOF 8
ENDMDL
