MODEL 1
REMARK VINA RESULT:     -11.5      0.000      0.000
REMARK  Name = 
REMARK  9 active torsions:
REMARK  status: ('A' for Active; 'I' for Inactive)
REMARK    1  A    between atoms: O_2  and  C_3
REMARK    2  A    between atoms: C_5  and  S_6
REMARK    3  A    between atoms: C_10  and  C_11
REMARK    4  A    between atoms: N_13  and  C_14
REMARK    5  A    between atoms: C_16  and  C_22
REMARK    6  A    between atoms: N_24  and  C_25
REMARK    7  A    between atoms: C_25  and  C_26
REMARK    8  A    between atoms: C_25  and  C_32
REMARK    9  A    between atoms: C_26  and  C_27
REMARK                            x       y       z     vdW  Elec       q    Type
REMARK                         _______ _______ _______ _____ _____    ______ ____
ROOT
ATOM     14  C   UNL     1      -4.442   1.634  25.060  0.00  0.00    +0.150 C 
ATOM     15  C   UNL     1      -3.786   2.111  24.911  0.00  0.00    -0.002 C 
ATOM     16  C   UNL     1      -3.862   2.932  24.921  0.00  0.00    +0.033 C 
ATOM     17  C   UNL     1      -4.595   3.277  25.080  0.00  0.00    +0.066 C 
ATOM     18  C   UNL     1      -5.251   2.800  25.229  0.00  0.00    +0.189 C 
ATOM     19  O   UNL     1      -5.984   3.144  25.388  0.00  0.00    -0.220 OA
ATOM     20  C   UNL     1      -5.176   1.979  25.219  0.00  0.00    +0.206 C 
ATOM     21  O   UNL     1      -5.832   1.501  25.368  0.00  0.00    -0.218 OA
ENDROOT
BRANCH  14  13
ATOM     11  C   UNL     1      -3.866   0.450  24.505  0.00  0.00    +0.268 C 
ATOM     12  O   UNL     1      -3.439   0.910  23.967  0.00  0.00    -0.268 OA
ATOM     13  N   UNL     1      -4.367   0.812  25.050  0.00  0.00    -0.196 NA
BRANCH  11  10
ATOM      3  C   UNL     1      -3.172  -0.734  24.902  0.00  0.00    +0.144 A 
ATOM      4  C   UNL     1      -3.097  -1.556  24.892  0.00  0.00    +0.043 A 
ATOM      5  C   UNL     1      -3.641  -2.015  24.475  0.00  0.00    +0.028 A 
ATOM      8  C   UNL     1      -4.260  -1.652  24.067  0.00  0.00    +0.006 A 
ATOM      9  C   UNL     1      -4.334  -0.830  24.077  0.00  0.00    +0.008 A 
ATOM     10  C   UNL     1      -3.790  -0.372  24.495  0.00  0.00    +0.089 A 
BRANCH   3   2
ATOM      1  C   UNL     1      -2.007  -0.638  25.724  0.00  0.00    +0.252 C 
ATOM      2  O   UNL     1      -2.628  -0.275  25.321  0.00  0.00    -0.471 OA
ENDBRANCH   3   2
BRANCH   5   6
ATOM      6  S   UNL     1      -3.566  -2.836  24.464  0.00  0.00    -0.113 S 
ATOM      7  C   UNL     1      -3.956  -3.278  23.888  0.00  0.00    +0.074 C 
ENDBRANCH   5   6
ENDBRANCH  11  10
ENDBRANCH  14  13
BRANCH  16  22
ATOM     22  C   UNL     1      -3.206   3.409  24.772  0.00  0.00    +0.261 C 
ATOM     23  O   UNL     1      -3.187   3.887  24.100  0.00  0.00    -0.269 OA
ATOM     24  N   UNL     1      -2.568   3.408  25.295  0.00  0.00    -0.194 NA
BRANCH  24  25
ATOM     25  C   UNL     1      -1.912   3.885  25.147  0.00  0.00    +0.179 C 
BRANCH  25  32
ATOM     32  C   UNL     1      -1.890   4.658  25.435  0.00  0.00    +0.281 C 
ATOM     33  N   UNL     1      -1.551   5.259  24.981  0.00  0.00    -0.086 NA
ATOM     34  O   UNL     1      -2.208   4.831  26.177  0.00  0.00    -0.270 OA
ENDBRANCH  25  32
BRANCH  25  26
ATOM     26  C   UNL     1      -1.277   3.590  24.711  0.00  0.00    +0.064 C 
BRANCH  26  27
ATOM     27  C   UNL     1      -0.734   3.080  25.067  0.00  0.00    +0.010 A 
ATOM     28  C   UNL     1      -0.569   3.034  25.874  0.00  0.00    +0.003 A 
ATOM     29  C   UNL     1       0.007   2.453  25.983  0.00  0.00    +0.007 A 
ATOM     30  C   UNL     1       0.197   2.139  25.243  0.00  0.00    +0.035 A 
ATOM     31  S   UNL     1      -0.261   2.527  24.677  0.00  0.00    -0.091 S 
ENDBRANCH  26  27
ENDBRANCH  25  26
ENDBRANCH  24  25
ENDBRANCH  16  22
TORSDOF 9
ENDMDL
MODEL 2
REMARK VINA RESULT:     -10.2      1.611      3.270
REMARK  Name = 
REMARK  9 active torsions:
REMARK  status: ('A' for Active; 'I' for Inactive)
REMARK    1  A    between atoms: O_2  and  C_3
REMARK    2  A    between atoms: C_5  and  S_6
REMARK    3  A    between atoms: C_10  and  C_11
REMARK    4  A    between atoms: N_13  and  C_14
REMARK    5  A    between atoms: C_16  and  C_22
REMARK    6  A    between atoms: N_24  and  C_25
REMARK    7  A    between atoms: C_25  and  C_26
REMARK    8  A    between atoms: C_25  and  C_32
REMARK    9  A    between atoms: C_26  and  C_27
REMARK                            x       y       z     vdW  Elec       q    Type
REMARK                         _______ _______ _______ _____ _____    ______ ____
ROOT
ATOM     14  C   UNL     1      -0.852   0.863  24.447  0.00  0.00    +0.150 C 
ATOM     15  C   UNL     1      -1.173   1.533  24.804  0.00  0.00    -0.002 C 
ATOM     16  C   UNL     1      -0.713   2.212  24.895  0.00  0.00    +0.033 C 
ATOM     17  C   UNL     1       0.068   2.221  24.628  0.00  0.00    +0.066 C 
ATOM     18  C   UNL     1       0.388   1.549  24.270  0.00  0.00    +0.189 C 
ATOM     19  O   UNL     1       1.169   1.558  24.003  0.00  0.00    -0.220 OA
ATOM     20  C   UNL     1      -0.071   0.871  24.179  0.00  0.00    +0.206 C 
ATOM     21  O   UNL     1       0.250   0.200  23.822  0.00  0.00    -0.218 OA
ENDROOT
BRANCH  14  13
ATOM     11  C   UNL     1      -1.667  -0.166  25.012  0.00  0.00    +0.268 C 
ATOM     12  O   UNL     1      -1.563   0.164  25.762  0.00  0.00    -0.268 OA
ATOM     13  N   UNL     1      -1.312   0.183  24.356  0.00  0.00    -0.196 NA
BRANCH  11  10
ATOM      3  C   UNL     1      -2.944  -0.807  25.017  0.00  0.00    +0.144 A 
ATOM      4  C   UNL     1      -3.403  -1.487  24.926  0.00  0.00    +0.043 A 
ATOM      5  C   UNL     1      -3.044  -2.205  24.739  0.00  0.00    +0.028 A 
ATOM      8  C   UNL     1      -2.224  -2.244  24.643  0.00  0.00    +0.006 A 
ATOM      9  C   UNL     1      -1.766  -1.564  24.734  0.00  0.00    +0.008 A 
ATOM     10  C   UNL     1      -2.126  -0.846  24.921  0.00  0.00    +0.089 A 
BRANCH   3   2
ATOM      1  C   UNL     1      -4.123  -0.048  25.293  0.00  0.00    +0.252 C 
ATOM      2  O   UNL     1      -3.304  -0.088  25.205  0.00  0.00    -0.471 OA
ENDBRANCH   3   2
BRANCH   5   6
ATOM      6  S   UNL     1      -3.502  -2.885  24.648  0.00  0.00    -0.113 S 
ATOM      7  C   UNL     1      -3.784  -3.096  23.903  0.00  0.00    +0.074 C 
ENDBRANCH   5   6
ENDBRANCH  11  10
ENDBRANCH  14  13
BRANCH  16  22
ATOM     22  C   UNL     1      -1.034   2.883  25.252  0.00  0.00    +0.261 C 
ATOM     23  O   UNL     1      -0.760   3.128  25.990  0.00  0.00    -0.269 OA
ATOM     24  N   UNL     1      -1.629   3.308  24.871  0.00  0.00    -0.194 NA
BRANCH  24  25
ATOM     25  C   UNL     1      -1.950   3.979  25.228  0.00  0.00    +0.179 C 
BRANCH  25  32
ATOM     32  C   UNL     1      -1.635   4.724  25.064  0.00  0.00    +0.281 C 
ATOM     33  N   UNL     1      -1.381   4.905  24.299  0.00  0.00    -0.086 NA
ATOM     34  O   UNL     1      -1.573   5.287  25.664  0.00  0.00    -0.270 OA
ENDBRANCH  25  32
BRANCH  25  26
ATOM     26  C   UNL     1      -2.586   3.906  25.748  0.00  0.00    +0.064 C 
BRANCH  26  27
ATOM     27  C   UNL     1      -3.349   3.796  25.454  0.00  0.00    +0.010 A 
ATOM     28  C   UNL     1      -3.572   3.822  24.659  0.00  0.00    +0.003 A 
ATOM     29  C   UNL     1      -4.384   3.682  24.618  0.00  0.00    +0.007 A 
ATOM     30  C   UNL     1      -4.663   3.570  25.386  0.00  0.00    +0.035 A 
ATOM     31  S   UNL     1      -4.024   3.640  25.903  0.00  0.00    -0.091 S 
ENDBRANCH  26  27
ENDBRANCH  25  26
ENDBRANCH  24  25
ENDBRANCH  16  22
TORSDOF 9
ENDMDL
MODEL 3
REMARK VINA RESULT:     -10.1      1.520      4.793
REMARK  Name = 
REMARK  9 active torsions:
REMARK  status: ('A' for Active; 'I' for Inactive)
REMARK    1  A    between atoms: O_2  and  C_3
REMARK    2  A    between atoms: C_5  and  S_6
REMARK    3  A    between atoms: C_10  and  C_11
REMARK    4  A    between atoms: N_13  and  C_14
REMARK    5  A    between atoms: C_16  and  C_22
REMARK    6  A    between atoms: N_24  and  C_25
REMARK    7  A    between atoms: C_25  and  C_26
REMARK    8  A    between atoms: C_25  and  C_32
REMARK    9  A    between atoms: C_26  and  C_27
REMARK                            x       y       z     vdW  Elec       q    Type
REMARK                         _______ _______ _______ _____ _____    ______ ____
ROOT
ATOM     14  C   UNL     1      -3.922   1.807  24.751  0.00  0.00    +0.150 C 
ATOM     15  C   UNL     1      -3.634   1.062  24.547  0.00  0.00    -0.002 C 
ATOM     16  C   UNL     1      -4.129   0.403  24.587  0.00  0.00    +0.033 C 
ATOM     17  C   UNL     1      -4.914   0.490  24.831  0.00  0.00    +0.066 C 
ATOM     18  C   UNL     1      -5.201   1.237  25.034  0.00  0.00    +0.189 C 
ATOM     19  O   UNL     1      -5.984   1.324  25.278  0.00  0.00    -0.220 OA
ATOM     20  C   UNL     1      -4.706   1.895  24.995  0.00  0.00    +0.206 C 
ATOM     21  O   UNL     1      -4.993   2.641  25.198  0.00  0.00    -0.218 OA
ENDROOT
BRANCH  14  13
ATOM     11  C   UNL     1      -2.729   2.485  25.149  0.00  0.00    +0.268 C 
ATOM     12  O   UNL     1      -2.525   1.844  25.629  0.00  0.00    -0.268 OA
ATOM     13  N   UNL     1      -3.427   2.466  24.711  0.00  0.00    -0.196 NA
BRANCH  11  10
ATOM      3  C   UNL     1      -1.481   3.076  24.781  0.00  0.00    +0.144 A 
ATOM      4  C   UNL     1      -0.986   3.735  24.742  0.00  0.00    +0.043 A 
ATOM      5  C   UNL     1      -1.245   4.463  25.031  0.00  0.00    +0.028 A 
ATOM      8  C   UNL     1      -1.999   4.532  25.360  0.00  0.00    +0.006 A 
ATOM      9  C   UNL     1      -2.493   3.872  25.399  0.00  0.00    +0.008 A 
ATOM     10  C   UNL     1      -2.234   3.144  25.110  0.00  0.00    +0.089 A 
BRANCH   3   2
ATOM      1  C   UNL     1      -0.459   2.273  24.187  0.00  0.00    +0.252 C 
ATOM      2  O   UNL     1      -1.221   2.347  24.492  0.00  0.00    -0.471 OA
ENDBRANCH   3   2
BRANCH   5   6
ATOM      6  S   UNL     1      -0.751   5.122  24.992  0.00  0.00    -0.113 S 
ATOM      7  C   UNL     1      -1.049   5.847  24.738  0.00  0.00    +0.074 C 
ENDBRANCH   5   6
ENDBRANCH  11  10
ENDBRANCH  14  13
BRANCH  16  22
ATOM     22  C   UNL     1      -3.842  -0.343  24.384  0.00  0.00    +0.261 C 
ATOM     23  O   UNL     1      -4.045  -0.679  23.659  0.00  0.00    -0.269 OA
ATOM     24  N   UNL     1      -3.351  -0.752  24.905  0.00  0.00    -0.194 NA
BRANCH  24  25
ATOM     25  C   UNL     1      -3.063  -1.497  24.702  0.00  0.00    +0.179 C 
BRANCH  25  32
ATOM     32  C   UNL     1      -3.471  -2.175  24.939  0.00  0.00    +0.281 C 
ATOM     33  N   UNL     1      -3.670  -2.752  24.383  0.00  0.00    -0.086 NA
ATOM     34  O   UNL     1      -3.679  -2.276  25.731  0.00  0.00    -0.270 OA
ENDBRANCH  25  32
BRANCH  25  26
ATOM     26  C   UNL     1      -2.368  -1.566  24.264  0.00  0.00    +0.064 C 
BRANCH  26  27
ATOM     27  C   UNL     1      -1.636  -1.474  24.634  0.00  0.00    +0.010 A 
ATOM     28  C   UNL     1      -1.499  -1.481  25.448  0.00  0.00    +0.003 A 
ATOM     29  C   UNL     1      -0.691  -1.369  25.571  0.00  0.00    +0.007 A 
ATOM     30  C   UNL     1      -0.328  -1.293  24.833  0.00  0.00    +0.035 A 
ATOM     31  S   UNL     1      -0.912  -1.358  24.254  0.00  0.00    -0.091 S 
ENDBRANCH  26  27
ENDBRANCH  25  26
ENDBRANCH  24  25
ENDBRANCH  16  22
TORSDOF 9
ENDMDL
MODEL 4
REMARK VINA RESULT:      -9.8      2.145      4.105
REMARK  Name = 
REMARK  9 active torsions:
REMARK  status: ('A' for Active; 'I' for Inactive)
REMARK    1  A    between atoms: O_2  and  C_3
REMARK    2  A    between atoms: C_5  and  S_6
REMARK    3  A    between atoms: C_10  and  C_11
REMARK    4  A    between atoms: N_13  and  C_14
REMARK    5  A    between atoms: C_16  and  C_22
REMARK    6  A    between atoms: N_24  and  C_25
REMARK    7  A    between atoms: C_25  and  C_26
REMARK    8  A    between atoms: C_25  and  C_32
REMARK    9  A    between atoms: C_26  and  C_27
REMARK                            x       y       z     vdW  Elec       q    Type
REMARK                         _______ _______ _______ _____ _____    ______ ____
ROOT
ATOM     14  C   UNL     1      -2.543  -0.472  24.666  0.00  0.00    +0.150 C 
ATOM     15  C   UNL     1      -3.103   0.116  24.526  0.00  0.00    -0.002 C 
ATOM     16  C   UNL     1      -3.839   0.083  24.899  0.00  0.00    +0.033 C 
ATOM     17  C   UNL     1      -4.013  -0.539  25.414  0.00  0.00    +0.066 C 
ATOM     18  C   UNL     1      -3.451  -1.127  25.554  0.00  0.00    +0.189 C 
ATOM     19  O   UNL     1      -3.625  -1.749  26.067  0.00  0.00    -0.220 OA
ATOM     20  C   UNL     1      -2.717  -1.094  25.180  0.00  0.00    +0.206 C 
ATOM     21  O   UNL     1      -2.155  -1.683  25.320  0.00  0.00    -0.218 OA
ENDROOT
BRANCH  14  13
ATOM     11  C   UNL     1      -1.257   0.132  24.514  0.00  0.00    +0.268 C 
ATOM     12  O   UNL     1      -1.441   0.673  25.110  0.00  0.00    -0.268 OA
ATOM     13  N   UNL     1      -1.808  -0.440  24.292  0.00  0.00    -0.196 NA
BRANCH  11  10
ATOM      3  C   UNL     1      -0.138   0.888  24.046  0.00  0.00    +0.144 A 
ATOM      4  C   UNL     1       0.597   0.921  23.672  0.00  0.00    +0.043 A 
ATOM      5  C   UNL     1       0.948   0.228  23.394  0.00  0.00    +0.028 A 
ATOM      8  C   UNL     1       0.564  -0.497  23.488  0.00  0.00    +0.006 A 
ATOM      9  C   UNL     1      -0.170  -0.528  23.862  0.00  0.00    +0.008 A 
ATOM     10  C   UNL     1      -0.522   0.165  24.140  0.00  0.00    +0.089 A 
BRANCH   3   2
ATOM      1  C   UNL     1      -0.070   2.291  24.312  0.00  0.00    +0.252 C 
ATOM      2  O   UNL     1      -0.490   1.581  24.325  0.00  0.00    -0.471 OA
ENDBRANCH   3   2
BRANCH   5   6
ATOM      6  S   UNL     1       1.683   0.259  23.020  0.00  0.00    -0.113 S 
ATOM      7  C   UNL     1       1.803  -0.143  22.311  0.00  0.00    +0.074 C 
ENDBRANCH   5   6
ENDBRANCH  11  10
ENDBRANCH  14  13
BRANCH  16  22
ATOM     22  C   UNL     1      -4.399   0.671  24.759  0.00  0.00    +0.261 C 
ATOM     23  O   UNL     1      -4.956   0.576  24.159  0.00  0.00    -0.269 OA
ATOM     24  N   UNL     1      -4.403   1.355  25.220  0.00  0.00    -0.194 NA
BRANCH  24  25
ATOM     25  C   UNL     1      -4.964   1.944  25.081  0.00  0.00    +0.179 C 
BRANCH  25  32
ATOM     32  C   UNL     1      -5.718   1.882  25.412  0.00  0.00    +0.281 C 
ATOM     33  N   UNL     1      -6.386   1.941  24.931  0.00  0.00    -0.086 NA
ATOM     34  O   UNL     1      -5.803   1.761  26.224  0.00  0.00    -0.270 OA
ENDBRANCH  25  32
BRANCH  25  26
ATOM     26  C   UNL     1      -4.772   2.593  24.612  0.00  0.00    +0.064 C 
BRANCH  26  27
ATOM     27  C   UNL     1      -4.239   3.160  24.889  0.00  0.00    +0.010 A 
ATOM     28  C   UNL     1      -4.186   3.438  25.664  0.00  0.00    +0.003 A 
ATOM     29  C   UNL     1      -3.580   3.997  25.693  0.00  0.00    +0.007 A 
ATOM     30  C   UNL     1      -3.258   4.065  24.935  0.00  0.00    +0.035 A 
ATOM     31  S   UNL     1      -3.666   3.547  24.438  0.00  0.00    -0.091 S 
ENDBRANCH  26  27
ENDBRANCH  25  26
ENDBRANCH  24  25
ENDBRANCH  16  22
TORSDOF 9
ENDMDL
MODEL 5
REMARK VINA RESULT:      -9.3      1.984      3.704
REMARK  Name = 
REMARK  9 active torsions:
REMARK  status: ('A' for Active; 'I' for Inactive)
REMARK    1  A    between atoms: O_2  and  C_3
REMARK    2  A    between atoms: C_5  and  S_6
REMARK    3  A    between atoms: C_10  and  C_11
REMARK    4  A    between atoms: N_13  and  C_14
REMARK    5  A    between atoms: C_16  and  C_22
REMARK    6  A    between atoms: N_24  and  C_25
REMARK    7  A    between atoms: C_25  and  C_26
REMARK    8  A    between atoms: C_25  and  C_32
REMARK    9  A    between atoms: C_26  and  C_27
REMARK                            x       y       z     vdW  Elec       q    Type
REMARK                         _______ _______ _______ _____ _____    ______ ____
ROOT
ATOM     14  C   UNL     1      -1.366   2.461  25.293  0.00  0.00    +0.150 C 
ATOM     15  C   UNL     1      -2.161   2.632  25.161  0.00  0.00    -0.002 C 
ATOM     16  C   UNL     1      -2.408   3.415  25.079  0.00  0.00    +0.033 C 
ATOM     17  C   UNL     1      -1.857   4.028  25.127  0.00  0.00    +0.066 C 
ATOM     18  C   UNL     1      -1.060   3.857  25.258  0.00  0.00    +0.189 C 
ATOM     19  O   UNL     1      -0.510   4.469  25.307  0.00  0.00    -0.220 OA
ATOM     20  C   UNL     1      -0.814   3.074  25.341  0.00  0.00    +0.206 C 
ATOM     21  O   UNL     1      -0.018   2.903  25.473  0.00  0.00    -0.218 OA
ENDROOT
BRANCH  14  13
ATOM     11  C   UNL     1      -1.277   1.130  24.781  0.00  0.00    +0.268 C 
ATOM     12  O   UNL     1      -1.684   1.364  24.101  0.00  0.00    -0.268 OA
ATOM     13  N   UNL     1      -1.119   1.678  25.376  0.00  0.00    -0.196 NA
BRANCH  11  10
ATOM      3  C   UNL     1      -0.495   0.023  24.327  0.00  0.00    +0.144 A 
ATOM      4  C   UNL     1      -0.249  -0.760  24.410  0.00  0.00    +0.043 A 
ATOM      5  C   UNL     1      -0.538  -1.219  25.031  0.00  0.00    +0.028 A 
ATOM      8  C   UNL     1      -1.075  -0.896  25.569  0.00  0.00    +0.006 A 
ATOM      9  C   UNL     1      -1.320  -0.113  25.485  0.00  0.00    +0.008 A 
ATOM     10  C   UNL     1      -1.031   0.347  24.864  0.00  0.00    +0.089 A 
BRANCH   3   2
ATOM      1  C   UNL     1       0.410   0.200  23.235  0.00  0.00    +0.252 C 
ATOM      2  O   UNL     1      -0.205   0.483  23.705  0.00  0.00    -0.471 OA
ENDBRANCH   3   2
BRANCH   5   6
ATOM      6  S   UNL     1      -0.292  -2.002  25.115  0.00  0.00    -0.113 S 
ATOM      7  C   UNL     1      -0.846  -2.612  25.100  0.00  0.00    +0.074 C 
ENDBRANCH   5   6
ENDBRANCH  11  10
ENDBRANCH  14  13
BRANCH  16  22
ATOM     22  C   UNL     1      -3.204   3.585  24.947  0.00  0.00    +0.261 C 
ATOM     23  O   UNL     1      -3.419   4.128  24.366  0.00  0.00    -0.269 OA
ATOM     24  N   UNL     1      -3.785   3.212  25.398  0.00  0.00    -0.194 NA
BRANCH  24  25
ATOM     25  C   UNL     1      -4.582   3.382  25.268  0.00  0.00    +0.179 C 
BRANCH  25  32
ATOM     32  C   UNL     1      -4.947   3.991  25.688  0.00  0.00    +0.281 C 
ATOM     33  N   UNL     1      -5.423   4.539  25.293  0.00  0.00    -0.086 NA
ATOM     34  O   UNL     1      -4.838   4.053  26.504  0.00  0.00    -0.270 OA
ENDBRANCH  25  32
BRANCH  25  26
ATOM     26  C   UNL     1      -5.012   2.945  24.718  0.00  0.00    +0.064 C 
BRANCH  26  27
ATOM     27  C   UNL     1      -5.313   2.204  24.924  0.00  0.00    +0.010 A 
ATOM     28  C   UNL     1      -4.990   1.474  24.714  0.00  0.00    +0.003 A 
ATOM     29  C   UNL     1      -5.468   0.883  25.037  0.00  0.00    +0.007 A 
ATOM     30  C   UNL     1      -6.085   1.248  25.445  0.00  0.00    +0.035 A 
ATOM     31  S   UNL     1      -5.990   2.064  25.376  0.00  0.00    -0.091 S 
ENDBRANCH  26  27
ENDBRANCH  25  26
ENDBRANCH  24  25
ENDBRANCH  16  22
TORSDOF 9
ENDMDL
MODEL 6
REMARK VINA RESULT:      -9.2      2.152      5.909
REMARK  Name = 
REMARK  9 active torsions:
REMARK  status: ('A' for Active; 'I' for Inactive)
REMARK    1  A    between atoms: O_2  and  C_3
REMARK    2  A    between atoms: C_5  and  S_6
REMARK    3  A    between atoms: C_10  and  C_11
REMARK    4  A    between atoms: N_13  and  C_14
REMARK    5  A    between atoms: C_16  and  C_22
REMARK    6  A    between atoms: N_24  and  C_25
REMARK    7  A    between atoms: C_25  and  C_26
REMARK    8  A    between atoms: C_25  and  C_32
REMARK    9  A    between atoms: C_26  and  C_27
REMARK                            x       y       z     vdW  Elec       q    Type
REMARK                         _______ _______ _______ _____ _____    ______ ____
ROOT
ATOM     14  C   UNL     1      -0.232   1.011  24.387  0.00  0.00    +0.150 C 
ATOM     15  C   UNL     1      -0.681   0.392  24.696  0.00  0.00    -0.002 C 
ATOM     16  C   UNL     1      -0.526  -0.386  24.467  0.00  0.00    +0.033 C 
ATOM     17  C   UNL     1       0.079  -0.544  23.928  0.00  0.00    +0.066 C 
ATOM     18  C   UNL     1       0.528   0.076  23.619  0.00  0.00    +0.189 C 
ATOM     19  O   UNL     1       1.133  -0.083  23.081  0.00  0.00    -0.220 OA
ATOM     20  C   UNL     1       0.373   0.852  23.848  0.00  0.00    +0.206 C 
ATOM     21  O   UNL     1       0.822   1.472  23.539  0.00  0.00    -0.218 OA
ENDROOT
BRANCH  14  13
ATOM     11  C   UNL     1      -1.094   2.151  24.395  0.00  0.00    +0.268 C 
ATOM     12  O   UNL     1      -1.647   1.735  23.945  0.00  0.00    -0.268 OA
ATOM     13  N   UNL     1      -0.387   1.788  24.616  0.00  0.00    -0.196 NA
BRANCH  11  10
ATOM      3  C   UNL     1      -2.011   3.149  24.847  0.00  0.00    +0.144 A 
ATOM      4  C   UNL     1      -2.166   3.927  25.076  0.00  0.00    +0.043 A 
ATOM      5  C   UNL     1      -1.557   4.483  25.082  0.00  0.00    +0.028 A 
ATOM      8  C   UNL     1      -0.793   4.262  24.859  0.00  0.00    +0.006 A 
ATOM      9  C   UNL     1      -0.640   3.485  24.630  0.00  0.00    +0.008 A 
ATOM     10  C   UNL     1      -1.248   2.928  24.624  0.00  0.00    +0.089 A 
BRANCH   3   2
ATOM      1  C   UNL     1      -3.381   2.811  25.070  0.00  0.00    +0.252 C 
ATOM      2  O   UNL     1      -2.620   2.592  24.841  0.00  0.00    -0.471 OA
ENDBRANCH   3   2
BRANCH   5   6
ATOM      6  S   UNL     1      -1.710   5.261  25.311  0.00  0.00    -0.113 S 
ATOM      7  C   UNL     1      -1.368   5.887  24.899  0.00  0.00    +0.074 C 
ENDBRANCH   5   6
ENDBRANCH  11  10
ENDBRANCH  14  13
BRANCH  16  22
ATOM     22  C   UNL     1      -0.975  -1.004  24.776  0.00  0.00    +0.261 C 
ATOM     23  O   UNL     1      -0.750  -1.364  25.483  0.00  0.00    -0.269 OA
ATOM     24  N   UNL     1      -1.649  -1.263  24.378  0.00  0.00    -0.194 NA
BRANCH  24  25
ATOM     25  C   UNL     1      -2.099  -1.882  24.686  0.00  0.00    +0.179 C 
BRANCH  25  32
ATOM     32  C   UNL     1      -1.881  -2.664  24.537  0.00  0.00    +0.281 C 
ATOM     33  N   UNL     1      -1.810  -3.199  25.161  0.00  0.00    -0.086 NA
ATOM     34  O   UNL     1      -1.735  -2.911  23.763  0.00  0.00    -0.270 OA
ENDBRANCH  25  32
BRANCH  25  26
ATOM     26  C   UNL     1      -2.765  -1.720  25.143  0.00  0.00    +0.064 C 
BRANCH  26  27
ATOM     27  C   UNL     1      -3.451  -1.430  24.786  0.00  0.00    +0.010 A 
ATOM     28  C   UNL     1      -3.818  -1.743  24.116  0.00  0.00    +0.003 A 
ATOM     29  C   UNL     1      -4.483  -1.283  23.952  0.00  0.00    +0.007 A 
ATOM     30  C   UNL     1      -4.527  -0.686  24.521  0.00  0.00    +0.035 A 
ATOM     31  S   UNL     1      -3.889  -0.777  25.036  0.00  0.00    -0.091 S 
ENDBRANCH  26  27
ENDBRANCH  25  26
ENDBRANCH  24  25
ENDBRANCH  16  22
TORSDOF 9
ENDMDL
MODEL 7
REMARK VINA RESULT:      -9.0      2.065      5.030
REMARK  Name = 
REMARK  9 active torsions:
REMARK  status: ('A' for Active; 'I' for Inactive)
REMARK    1  A    between atoms: O_2  and  C_3
REMARK    2  A    between atoms: C_5  and  S_6
REMARK    3  A    between atoms: C_10  and  C_11
REMARK    4  A    between atoms: N_13  and  C_14
REMARK    5  A    between atoms: C_16  and  C_22
REMARK    6  A    between atoms: N_24  and  C_25
REMARK    7  A    between atoms: C_25  and  C_26
REMARK    8  A    between atoms: C_25  and  C_32
REMARK    9  A    between atoms: C_26  and  C_27
REMARK                            x       y       z     vdW  Elec       q    Type
REMARK                         _______ _______ _______ _____ _____    ______ ____
ROOT
ATOM     14  C   UNL     1      -1.494   2.022  24.866  0.00  0.00    +0.150 C 
ATOM     15  C   UNL     1      -1.450   1.202  24.801  0.00  0.00    -0.002 C 
ATOM     16  C   UNL     1      -0.752   0.844  24.545  0.00  0.00    +0.033 C 
ATOM     17  C   UNL     1      -0.097   1.309  24.353  0.00  0.00    +0.066 C 
ATOM     18  C   UNL     1      -0.141   2.130  24.418  0.00  0.00    +0.189 C 
ATOM     19  O   UNL     1       0.513   2.594  24.226  0.00  0.00    -0.220 OA
ATOM     20  C   UNL     1      -0.839   2.487  24.674  0.00  0.00    +0.206 C 
ATOM     21  O   UNL     1      -0.883   3.308  24.739  0.00  0.00    -0.218 OA
ENDROOT
BRANCH  14  13
ATOM     11  C   UNL     1      -2.875   2.329  24.664  0.00  0.00    +0.268 C 
ATOM     12  O   UNL     1      -2.861   1.920  23.947  0.00  0.00    -0.268 OA
ATOM     13  N   UNL     1      -2.192   2.380  25.123  0.00  0.00    -0.196 NA
BRANCH  11  10
ATOM      3  C   UNL     1      -4.267   2.246  24.973  0.00  0.00    +0.144 A 
ATOM      4  C   UNL     1      -4.965   2.604  25.230  0.00  0.00    +0.043 A 
ATOM      5  C   UNL     1      -4.968   3.403  25.434  0.00  0.00    +0.028 A 
ATOM      8  C   UNL     1      -4.272   3.845  25.382  0.00  0.00    +0.006 A 
ATOM      9  C   UNL     1      -3.575   3.486  25.125  0.00  0.00    +0.008 A 
ATOM     10  C   UNL     1      -3.573   2.687  24.921  0.00  0.00    +0.089 A 
BRANCH   3   2
ATOM      1  C   UNL     1      -4.962   1.008  24.811  0.00  0.00    +0.252 C 
ATOM      2  O   UNL     1      -4.265   1.446  24.768  0.00  0.00    -0.471 OA
ENDBRANCH   3   2
BRANCH   5   6
ATOM      6  S   UNL     1      -5.665   3.762  25.691  0.00  0.00    -0.113 S 
ATOM      7  C   UNL     1      -5.837   4.536  25.467  0.00  0.00    +0.074 C 
ENDBRANCH   5   6
ENDBRANCH  11  10
ENDBRANCH  14  13
BRANCH  16  22
ATOM     22  C   UNL     1      -0.708   0.023  24.480  0.00  0.00    +0.261 C 
ATOM     23  O   UNL     1      -0.256  -0.320  23.882  0.00  0.00    -0.269 OA
ATOM     24  N   UNL     1      -1.117  -0.455  25.014  0.00  0.00    -0.194 NA
BRANCH  24  25
ATOM     25  C   UNL     1      -1.074  -1.276  24.950  0.00  0.00    +0.179 C 
BRANCH  25  32
ATOM     32  C   UNL     1      -0.520  -1.696  25.396  0.00  0.00    +0.281 C 
ATOM     33  N   UNL     1      -0.047  -2.268  25.036  0.00  0.00    -0.086 NA
ATOM     34  O   UNL     1      -0.440  -1.543  26.203  0.00  0.00    -0.270 OA
ENDBRANCH  25  32
BRANCH  25  26
ATOM     26  C   UNL     1      -1.582  -1.678  24.440  0.00  0.00    +0.064 C 
BRANCH  26  27
ATOM     27  C   UNL     1      -2.331  -1.908  24.701  0.00  0.00    +0.010 A 
ATOM     28  C   UNL     1      -2.697  -1.665  25.400  0.00  0.00    +0.003 A 
ATOM     29  C   UNL     1      -3.436  -2.029  25.439  0.00  0.00    +0.007 A 
ATOM     30  C   UNL     1      -3.528  -2.496  24.764  0.00  0.00    +0.035 A 
ATOM     31  S   UNL     1      -2.844  -2.421  24.308  0.00  0.00    -0.091 S 
ENDBRANCH  26  27
ENDBRANCH  25  26
ENDBRANCH  24  25
ENDBRANCH  16  22
TORSDOF 9
ENDMDL
MODEL 8
REMARK VINA RESULT:      -8.9      1.892      4.379
REMARK  Name = 
REMARK  9 active torsions:
REMARK  status: ('A' for Active; 'I' for Inactive)
REMARK    1  A    between atoms: O_2  and  C_3
REMARK    2  A    between atoms: C_5  and  S_6
REMARK    3  A    between atoms: C_10  and  C_11
REMARK    4  A    between atoms: N_13  and  C_14
REMARK    5  A    between atoms: C_16  and  C_22
REMARK    6  A    between atoms: N_24  and  C_25
REMARK    7  A    between atoms: C_25  and  C_26
REMARK    8  A    between atoms: C_25  and  C_32
REMARK    9  A    between atoms: C_26  and  C_27
REMARK                            x       y       z     vdW  Elec       q    Type
REMARK                         _______ _______ _______ _____ _____    ______ ____
ROOT
ATOM     14  C   UNL     1      -1.372   2.601  24.295  0.00  0.00    +0.150 C 
ATOM     15  C   UNL     1      -2.122   2.272  24.203  0.00  0.00    -0.002 C 
ATOM     16  C   UNL     1      -2.780   2.641  24.538  0.00  0.00    +0.033 C 
ATOM     17  C   UNL     1      -2.686   3.341  24.967  0.00  0.00    +0.066 C 
ATOM     18  C   UNL     1      -1.935   3.670  25.059  0.00  0.00    +0.189 C 
ATOM     19  O   UNL     1      -1.841   4.369  25.486  0.00  0.00    -0.220 OA
ATOM     20  C   UNL     1      -1.278   3.301  24.723  0.00  0.00    +0.206 C 
ATOM     21  O   UNL     1      -0.527   3.630  24.815  0.00  0.00    -0.218 OA
ENDROOT
BRANCH  14  13
ATOM     11  C   UNL     1      -0.455   1.505  24.251  0.00  0.00    +0.268 C 
ATOM     12  O   UNL     1      -0.854   1.147  24.879  0.00  0.00    -0.268 OA
ATOM     13  N   UNL     1      -0.714   2.232  23.960  0.00  0.00    -0.196 NA
BRANCH  11  10
ATOM      3  C   UNL     1       0.179   0.331  23.740  0.00  0.00    +0.144 A 
ATOM      4  C   UNL     1       0.836  -0.038  23.405  0.00  0.00    +0.043 A 
ATOM      5  C   UNL     1       1.517   0.400  23.245  0.00  0.00    +0.028 A 
ATOM      8  C   UNL     1       1.541   1.206  23.421  0.00  0.00    +0.006 A 
ATOM      9  C   UNL     1       0.883   1.574  23.756  0.00  0.00    +0.008 A 
ATOM     10  C   UNL     1       0.202   1.136  23.916  0.00  0.00    +0.089 A 
BRANCH   3   2
ATOM      1  C   UNL     1      -0.472  -0.931  23.902  0.00  0.00    +0.252 C 
ATOM      2  O   UNL     1      -0.503  -0.107  23.901  0.00  0.00    -0.471 OA
ENDBRANCH   3   2
BRANCH   5   6
ATOM      6  S   UNL     1       2.175   0.032  22.910  0.00  0.00    -0.113 S 
ATOM      7  C   UNL     1       2.819   0.483  22.664  0.00  0.00    +0.074 C 
ENDBRANCH   5   6
ENDBRANCH  11  10
ENDBRANCH  14  13
BRANCH  16  22
ATOM     22  C   UNL     1      -3.530   2.312  24.446  0.00  0.00    +0.261 C 
ATOM     23  O   UNL     1      -4.030   2.585  23.850  0.00  0.00    -0.269 OA
ATOM     24  N   UNL     1      -3.780   1.709  24.951  0.00  0.00    -0.194 NA
BRANCH  24  25
ATOM     25  C   UNL     1      -4.530   1.379  24.859  0.00  0.00    +0.179 C 
BRANCH  25  32
ATOM     32  C   UNL     1      -5.183   1.732  25.221  0.00  0.00    +0.281 C 
ATOM     33  N   UNL     1      -5.881   1.844  24.794  0.00  0.00    -0.086 NA
ATOM     34  O   UNL     1      -5.138   1.973  26.009  0.00  0.00    -0.270 OA
ENDBRANCH  25  32
BRANCH  25  26
ATOM     26  C   UNL     1      -4.629   0.697  24.407  0.00  0.00    +0.064 C 
BRANCH  26  27
ATOM     27  C   UNL     1      -4.335  -0.025  24.679  0.00  0.00    +0.010 A 
ATOM     28  C   UNL     1      -4.121  -0.200  25.457  0.00  0.00    +0.003 A 
ATOM     29  C   UNL     1      -3.857  -0.981  25.478  0.00  0.00    +0.007 A 
ATOM     30  C   UNL     1      -3.909  -1.290  24.714  0.00  0.00    +0.035 A 
ATOM     31  S   UNL     1      -4.204  -0.699  24.220  0.00  0.00    -0.091 S 
ENDBRANCH  26  27
ENDBRANCH  25  26
ENDBRANCH  24  25
ENDBRANCH  16  22
TORSDOF 9
ENDMDL
