MODEL 1
REMARK VINA RESULT:      -8.4      0.000      0.000
REMARK  Name = 
REMARK  4 active torsions:
REMARK  status: ('A' for Active; 'I' for Inactive)
REMARK    1  A    between atoms: C_4  and  C_5
REMARK    2  A    between atoms: C_5  and  N_6
REMARK    3  A    between atoms: C_11  and  O_13
REMARK    4  A    between atoms: O_13  and  C_14
REMARK                            x       y       z     vdW  Elec       q    Type
REMARK                         _______ _______ _______ _____ _____    ______ ____
ROOT
ATOM      6  N   UNL     1      -3.219   1.350  24.294  0.00  0.00    -0.264 NA
ATOM      7  C   UNL     1      -2.416   1.541  24.269  0.00  0.00    +0.105 C 
ATOM      8  C   UNL     1      -1.777   1.119  24.576  0.00  0.00    +0.160 C 
ATOM      9  O   UNL     1      -1.782   0.401  24.984  0.00  0.00    -0.348 OA
ATOM     10  C   UNL     1      -2.428  -0.071  25.185  0.00  0.00    +0.187 C 
ATOM     11  C   UNL     1      -3.228   0.057  25.029  0.00  0.00    +0.213 C 
ATOM     12  C   UNL     1      -3.580   0.690  24.632  0.00  0.00    +0.119 C 
ENDROOT
BRANCH   6   5
ATOM      5  C   UNL     1      -3.727   1.891  23.934  0.00  0.00    +0.102 C 
BRANCH   5   4
ATOM      1  C   UNL     1      -5.433   3.568  25.580  0.00  0.00    +0.154 C 
ATOM      2  N   UNL     1      -4.802   3.304  25.119  0.00  0.00    -0.248 N 
ATOM      3  C   UNL     1      -4.734   2.558  24.772  0.00  0.00    +0.094 A 
ATOM      4  C   UNL     1      -4.018   2.533  24.362  0.00  0.00    +0.033 A 
ATOM     20  C   UNL     1      -3.644   3.262  24.456  0.00  0.00    +0.119 A 
ATOM     21  N   UNL     1      -4.129   3.739  24.924  0.00  0.00    -0.168 NA
ENDBRANCH   5   4
ENDBRANCH   6   5
BRANCH  11  13
ATOM     13  O   UNL     1      -3.745  -0.524  25.306  0.00  0.00    -0.459 OA
BRANCH  13  14
ATOM     14  C   UNL     1      -3.766  -1.264  24.941  0.00  0.00    +0.245 A 
ATOM     15  C   UNL     1      -3.382  -1.906  25.290  0.00  0.00    +0.156 A 
ATOM     16  N   UNL     1      -3.403  -2.646  24.925  0.00  0.00    -0.236 NA
ATOM     17  C   UNL     1      -3.808  -2.744  24.213  0.00  0.00    +0.120 A 
ATOM     18  C   UNL     1      -4.191  -2.102  23.865  0.00  0.00    +0.123 A 
ATOM     19  N   UNL     1      -4.170  -1.362  24.229  0.00  0.00    -0.207 NA
ENDBRANCH  13  14
ENDBRANCH  11  13
TORSDOF 4
ENDMDL
MODEL 2
REMARK VINA RESULT:      -8.2      0.904      4.283
REMARK  Name = 
REMARK  4 active torsions:
REMARK  status: ('A' for Active; 'I' for Inactive)
REMARK    1  A    between atoms: C_4  and  C_5
REMARK    2  A    between atoms: C_5  and  N_6
REMARK    3  A    between atoms: C_11  and  O_13
REMARK    4  A    between atoms: O_13  and  C_14
REMARK                            x       y       z     vdW  Elec       q    Type
REMARK                         _______ _______ _______ _____ _____    ______ ____
ROOT
ATOM      6  N   UNL     1      -3.392   0.123  25.038  0.00  0.00    -0.264 NA
ATOM      7  C   UNL     1      -2.574   0.077  25.138  0.00  0.00    +0.105 C 
ATOM      8  C   UNL     1      -1.998   0.631  24.932  0.00  0.00    +0.160 C 
ATOM      9  O   UNL     1      -2.097   1.368  24.574  0.00  0.00    -0.348 OA
ATOM     10  C   UNL     1      -2.798   1.733  24.335  0.00  0.00    +0.187 C 
ATOM     11  C   UNL     1      -3.571   1.451  24.394  0.00  0.00    +0.213 C 
ATOM     12  C   UNL     1      -3.835   0.734  24.707  0.00  0.00    +0.119 C 
ENDROOT
BRANCH   6   5
ATOM      5  C   UNL     1      -3.822  -0.528  25.303  0.00  0.00    +0.102 C 
BRANCH   5   4
ATOM      1  C   UNL     1      -3.372  -3.237  24.358  0.00  0.00    +0.154 C 
ATOM      2  N   UNL     1      -3.647  -2.461  24.414  0.00  0.00    -0.248 N 
ATOM      3  C   UNL     1      -3.459  -1.922  25.011  0.00  0.00    +0.094 A 
ATOM      4  C   UNL     1      -3.853  -1.216  24.849  0.00  0.00    +0.033 A 
ATOM     20  C   UNL     1      -4.284  -1.318  24.153  0.00  0.00    +0.119 A 
ATOM     21  N   UNL     1      -4.156  -2.088  23.884  0.00  0.00    -0.168 NA
ENDBRANCH   5   4
ENDBRANCH   6   5
BRANCH  11  13
ATOM     13  O   UNL     1      -4.158   1.952  24.101  0.00  0.00    -0.459 OA
BRANCH  13  14
ATOM     14  C   UNL     1      -4.485   2.532  24.588  0.00  0.00    +0.245 A 
ATOM     15  C   UNL     1      -4.131   3.276  24.638  0.00  0.00    +0.156 A 
ATOM     16  N   UNL     1      -4.457   3.856  25.125  0.00  0.00    -0.236 NA
ATOM     17  C   UNL     1      -5.138   3.694  25.562  0.00  0.00    +0.120 A 
ATOM     18  C   UNL     1      -5.492   2.950  25.511  0.00  0.00    +0.123 A 
ATOM     19  N   UNL     1      -5.165   2.370  25.024  0.00  0.00    -0.207 NA
ENDBRANCH  13  14
ENDBRANCH  11  13
TORSDOF 4
ENDMDL
MODEL 3
REMARK VINA RESULT:      -8.2      1.458      2.561
REMARK  Name = 
REMARK  4 active torsions:
REMARK  status: ('A' for Active; 'I' for Inactive)
REMARK    1  A    between atoms: C_4  and  C_5
REMARK    2  A    between atoms: C_5  and  N_6
REMARK    3  A    between atoms: C_11  and  O_13
REMARK    4  A    between atoms: O_13  and  C_14
REMARK                            x       y       z     vdW  Elec       q    Type
REMARK                         _______ _______ _______ _____ _____    ______ ____
ROOT
ATOM      6  N   UNL     1      -4.331   2.864  24.839  0.00  0.00    -0.264 NA
ATOM      7  C   UNL     1      -4.934   3.050  25.371  0.00  0.00    +0.105 C 
ATOM      8  C   UNL     1      -5.486   2.548  25.721  0.00  0.00    +0.160 C 
ATOM      9  O   UNL     1      -5.572   1.732  25.626  0.00  0.00    -0.348 OA
ATOM     10  C   UNL     1      -5.127   1.219  25.156  0.00  0.00    +0.187 C 
ATOM     11  C   UNL     1      -4.486   1.395  24.667  0.00  0.00    +0.213 C 
ATOM     12  C   UNL     1      -4.133   2.127  24.526  0.00  0.00    +0.119 C 
ENDROOT
BRANCH   6   5
ATOM      5  C   UNL     1      -3.867   3.497  24.587  0.00  0.00    +0.102 C 
BRANCH   5   4
ATOM      1  C   UNL     1      -1.086   3.933  25.300  0.00  0.00    +0.154 C 
ATOM      2  N   UNL     1      -1.910   3.905  25.335  0.00  0.00    -0.248 N 
ATOM      3  C   UNL     1      -2.411   3.635  24.738  0.00  0.00    +0.094 A 
ATOM      4  C   UNL     1      -3.188   3.704  25.007  0.00  0.00    +0.033 A 
ATOM     20  C   UNL     1      -3.167   4.016  25.770  0.00  0.00    +0.119 A 
ATOM     21  N   UNL     1      -2.376   4.140  25.973  0.00  0.00    -0.168 NA
ENDBRANCH   5   4
ENDBRANCH   6   5
BRANCH  11  13
ATOM     13  O   UNL     1      -4.156   0.754  24.266  0.00  0.00    -0.459 OA
BRANCH  13  14
ATOM     14  C   UNL     1      -3.735   0.180  24.682  0.00  0.00    +0.245 A 
ATOM     15  C   UNL     1      -4.115  -0.507  24.937  0.00  0.00    +0.156 A 
ATOM     16  N   UNL     1      -3.693  -1.080  25.354  0.00  0.00    -0.236 NA
ATOM     17  C   UNL     1      -2.891  -0.968  25.516  0.00  0.00    +0.120 A 
ATOM     18  C   UNL     1      -2.512  -0.281  25.260  0.00  0.00    +0.123 A 
ATOM     19  N   UNL     1      -2.934   0.292  24.844  0.00  0.00    -0.207 NA
ENDBRANCH  13  14
ENDBRANCH  11  13
TORSDOF 4
ENDMDL
MODEL 4
REMARK VINA RESULT:      -8.2      1.640      4.205
REMARK  Name = 
REMARK  4 active torsions:
REMARK  status: ('A' for Active; 'I' for Inactive)
REMARK    1  A    between atoms: C_4  and  C_5
REMARK    2  A    between atoms: C_5  and  N_6
REMARK    3  A    between atoms: C_11  and  O_13
REMARK    4  A    between atoms: O_13  and  C_14
REMARK                            x       y       z     vdW  Elec       q    Type
REMARK                         _______ _______ _______ _____ _____    ______ ____
ROOT
ATOM      6  N   UNL     1      -2.459   0.001  25.276  0.00  0.00    -0.264 NA
ATOM      7  C   UNL     1      -2.740  -0.734  25.524  0.00  0.00    +0.105 C 
ATOM      8  C   UNL     1      -3.498  -1.049  25.444  0.00  0.00    +0.160 C 
ATOM      9  O   UNL     1      -4.164  -0.707  25.096  0.00  0.00    -0.348 OA
ATOM     10  C   UNL     1      -4.234   0.035  24.742  0.00  0.00    +0.187 C 
ATOM     11  C   UNL     1      -3.657   0.618  24.649  0.00  0.00    +0.213 C 
ATOM     12  C   UNL     1      -2.868   0.602  24.886  0.00  0.00    +0.119 C 
ENDROOT
BRANCH   6   5
ATOM      5  C   UNL     1      -1.665   0.154  25.438  0.00  0.00    +0.102 C 
BRANCH   5   4
ATOM      1  C   UNL     1       0.362   0.021  23.363  0.00  0.00    +0.154 C 
ATOM      2  N   UNL     1      -0.146  -0.189  23.978  0.00  0.00    -0.248 N 
ATOM      3  C   UNL     1      -0.688   0.310  24.351  0.00  0.00    +0.094 A 
ATOM      4  C   UNL     1      -1.078  -0.128  24.932  0.00  0.00    +0.033 A 
ATOM     20  C   UNL     1      -0.778  -0.896  24.918  0.00  0.00    +0.119 A 
ATOM     21  N   UNL     1      -0.202  -0.934  24.328  0.00  0.00    -0.168 NA
ENDBRANCH   5   4
ENDBRANCH   6   5
BRANCH  11  13
ATOM     13  O   UNL     1      -3.904   1.307  24.267  0.00  0.00    -0.459 OA
BRANCH  13  14
ATOM     14  C   UNL     1      -4.323   1.882  24.685  0.00  0.00    +0.245 A 
ATOM     15  C   UNL     1      -5.145   1.835  24.739  0.00  0.00    +0.156 A 
ATOM     16  N   UNL     1      -5.565   2.409  25.156  0.00  0.00    -0.236 NA
ATOM     17  C   UNL     1      -5.163   3.031  25.520  0.00  0.00    +0.120 A 
ATOM     18  C   UNL     1      -4.341   3.078  25.466  0.00  0.00    +0.123 A 
ATOM     19  N   UNL     1      -3.921   2.503  25.049  0.00  0.00    -0.207 NA
ENDBRANCH  13  14
ENDBRANCH  11  13
TORSDOF 4
ENDMDL
MODEL 5
REMARK VINA RESULT:      -8.0      1.890      2.593
REMARK  Name = 
REMARK  4 active torsions:
REMARK  status: ('A' for Active; 'I' for Inactive)
REMARK    1  A    between atoms: C_4  and  C_5
REMARK    2  A    between atoms: C_5  and  N_6
REMARK    3  A    between atoms: C_11  and  O_13
REMARK    4  A    between atoms: O_13  and  C_14
REMARK                            x       y       z     vdW  Elec       q    Type
REMARK                         _______ _______ _______ _____ _____    ______ ____
ROOT
ATOM      6  N   UNL     1      -2.933   3.293  24.751  0.00  0.00    -0.264 NA
ATOM      7  C   UNL     1      -2.694   3.776  25.376  0.00  0.00    +0.105 C 
ATOM      8  C   UNL     1      -1.994   3.746  25.812  0.00  0.00    +0.160 C 
ATOM      9  O   UNL     1      -1.360   3.224  25.731  0.00  0.00    -0.348 OA
ATOM     10  C   UNL     1      -1.269   2.604  25.194  0.00  0.00    +0.187 C 
ATOM     11  C   UNL     1      -1.790   2.353  24.605  0.00  0.00    +0.213 C 
ATOM     12  C   UNL     1      -2.531   2.660  24.409  0.00  0.00    +0.119 C 
ENDROOT
BRANCH   6   5
ATOM      5  C   UNL     1      -3.671   3.466  24.427  0.00  0.00    +0.102 C 
BRANCH   5   4
ATOM      1  C   UNL     1      -5.998   1.879  25.136  0.00  0.00    +0.154 C 
ATOM      2  N   UNL     1      -5.428   2.475  25.128  0.00  0.00    -0.248 N 
ATOM      3  C   UNL     1      -4.782   2.521  24.616  0.00  0.00    +0.094 A 
ATOM      4  C   UNL     1      -4.358   3.205  24.802  0.00  0.00    +0.033 A 
ATOM     20  C   UNL     1      -4.742   3.580  25.428  0.00  0.00    +0.119 A 
ATOM     21  N   UNL     1      -5.403   3.129  25.629  0.00  0.00    -0.168 NA
ENDBRANCH   5   4
ENDBRANCH   6   5
BRANCH  11  13
ATOM     13  O   UNL     1      -1.537   1.710  24.154  0.00  0.00    -0.459 OA
BRANCH  13  14
ATOM     14  C   UNL     1      -1.455   0.968  24.504  0.00  0.00    +0.245 A 
ATOM     15  C   UNL     1      -0.708   0.701  24.734  0.00  0.00    +0.156 A 
ATOM     16  N   UNL     1      -0.626  -0.042  25.084  0.00  0.00    -0.236 NA
ATOM     17  C   UNL     1      -1.290  -0.517  25.206  0.00  0.00    +0.120 A 
ATOM     18  C   UNL     1      -2.035  -0.250  24.976  0.00  0.00    +0.123 A 
ATOM     19  N   UNL     1      -2.118   0.493  24.626  0.00  0.00    -0.207 NA
ENDBRANCH  13  14
ENDBRANCH  11  13
TORSDOF 4
ENDMDL
MODEL 6
REMARK VINA RESULT:      -8.0      1.796      4.278
REMARK  Name = 
REMARK  4 active torsions:
REMARK  status: ('A' for Active; 'I' for Inactive)
REMARK    1  A    between atoms: C_4  and  C_5
REMARK    2  A    between atoms: C_5  and  N_6
REMARK    3  A    between atoms: C_11  and  O_13
REMARK    4  A    between atoms: O_13  and  C_14
REMARK                            x       y       z     vdW  Elec       q    Type
REMARK                         _______ _______ _______ _____ _____    ______ ____
ROOT
ATOM      6  N   UNL     1      -3.100   0.488  24.441  0.00  0.00    -0.264 NA
ATOM      7  C   UNL     1      -3.489   0.922  23.856  0.00  0.00    +0.105 C 
ATOM      8  C   UNL     1      -3.171   1.457  23.316  0.00  0.00    +0.160 C 
ATOM      9  O   UNL     1      -2.385   1.693  23.226  0.00  0.00    -0.348 OA
ATOM     10  C   UNL     1      -1.723   1.450  23.656  0.00  0.00    +0.187 C 
ATOM     11  C   UNL     1      -1.685   0.912  24.280  0.00  0.00    +0.213 C 
ATOM     12  C   UNL     1      -2.298   0.484  24.629  0.00  0.00    +0.119 C 
ENDROOT
BRANCH   6   5
ATOM      5  C   UNL     1      -3.578  -0.006  24.897  0.00  0.00    +0.102 C 
BRANCH   5   4
ATOM      1  C   UNL     1      -3.488  -2.897  24.637  0.00  0.00    +0.154 C 
ATOM      2  N   UNL     1      -3.692  -2.105  24.527  0.00  0.00    -0.248 N 
ATOM      3  C   UNL     1      -3.371  -1.461  24.930  0.00  0.00    +0.094 A 
ATOM      4  C   UNL     1      -3.734  -0.776  24.646  0.00  0.00    +0.033 A 
ATOM     20  C   UNL     1      -4.279  -0.997  24.068  0.00  0.00    +0.119 A 
ATOM     21  N   UNL     1      -4.253  -1.819  23.994  0.00  0.00    -0.168 NA
ENDBRANCH   5   4
ENDBRANCH   6   5
BRANCH  11  13
ATOM     13  O   UNL     1      -0.933   0.785  24.597  0.00  0.00    -0.459 OA
BRANCH  13  14
ATOM     14  C   UNL     1      -0.559   1.385  25.023  0.00  0.00    +0.245 A 
ATOM     15  C   UNL     1       0.045   1.824  24.673  0.00  0.00    +0.156 A 
ATOM     16  N   UNL     1       0.419   2.423  25.099  0.00  0.00    -0.236 NA
ATOM     17  C   UNL     1       0.189   2.584  25.875  0.00  0.00    +0.120 A 
ATOM     18  C   UNL     1      -0.416   2.145  26.225  0.00  0.00    +0.123 A 
ATOM     19  N   UNL     1      -0.790   1.546  25.799  0.00  0.00    -0.207 NA
ENDBRANCH  13  14
ENDBRANCH  11  13
TORSDOF 4
ENDMDL
MODEL 7
REMARK VINA RESULT:      -8.0      1.702      4.431
REMARK  Name = 
REMARK  4 active torsions:
REMARK  status: ('A' for Active; 'I' for Inactive)
REMARK    1  A    between atoms: C_4  and  C_5
REMARK    2  A    between atoms: C_5  and  N_6
REMARK    3  A    between atoms: C_11  and  O_13
REMARK    4  A    between atoms: O_13  and  C_14
REMARK                            x       y       z     vdW  Elec       q    Type
REMARK                         _______ _______ _______ _____ _____    ______ ____
ROOT
ATOM      6  N   UNL     1      -4.311   1.079  24.542  0.00  0.00    -0.264 NA
ATOM      7  C   UNL     1      -4.982   1.087  25.023  0.00  0.00    +0.105 C 
ATOM      8  C   UNL     1      -5.361   1.733  25.367  0.00  0.00    +0.160 C 
ATOM      9  O   UNL     1      -5.164   2.533  25.316  0.00  0.00    -0.348 OA
ATOM     10  C   UNL     1      -4.538   2.883  24.907  0.00  0.00    +0.187 C 
ATOM     11  C   UNL     1      -3.955   2.520  24.449  0.00  0.00    +0.213 C 
ATOM     12  C   UNL     1      -3.855   1.717  24.287  0.00  0.00    +0.119 C 
ENDROOT
BRANCH   6   5
ATOM      5  C   UNL     1      -4.065   0.336  24.283  0.00  0.00    +0.102 C 
BRANCH   5   4
ATOM      1  C   UNL     1      -1.822  -1.026  25.527  0.00  0.00    +0.154 C 
ATOM      2  N   UNL     1      -2.588  -0.774  25.352  0.00  0.00    -0.248 N 
ATOM      3  C   UNL     1      -2.799  -0.240  24.760  0.00  0.00    +0.094 A 
ATOM      4  C   UNL     1      -3.619  -0.148  24.780  0.00  0.00    +0.033 A 
ATOM     20  C   UNL     1      -3.914  -0.625  25.385  0.00  0.00    +0.119 A 
ATOM     21  N   UNL     1      -3.277  -1.012  25.738  0.00  0.00    -0.168 NA
ENDBRANCH   5   4
ENDBRANCH   6   5
BRANCH  11  13
ATOM     13  O   UNL     1      -3.400   3.026  24.108  0.00  0.00    -0.459 OA
BRANCH  13  14
ATOM     14  C   UNL     1      -2.789   3.337  24.568  0.00  0.00    +0.245 A 
ATOM     15  C   UNL     1      -2.911   4.028  25.002  0.00  0.00    +0.156 A 
ATOM     16  N   UNL     1      -2.300   4.339  25.461  0.00  0.00    -0.236 NA
ATOM     17  C   UNL     1      -1.568   3.959  25.487  0.00  0.00    +0.120 A 
ATOM     18  C   UNL     1      -1.447   3.268  25.053  0.00  0.00    +0.123 A 
ATOM     19  N   UNL     1      -2.058   2.957  24.593  0.00  0.00    -0.207 NA
ENDBRANCH  13  14
ENDBRANCH  11  13
TORSDOF 4
ENDMDL
MODEL 8
REMARK VINA RESULT:      -7.9      1.495      2.563
REMARK  Name = 
REMARK  4 active torsions:
REMARK  status: ('A' for Active; 'I' for Inactive)
REMARK    1  A    between atoms: C_4  and  C_5
REMARK    2  A    between atoms: C_5  and  N_6
REMARK    3  A    between atoms: C_11  and  O_13
REMARK    4  A    between atoms: O_13  and  C_14
REMARK                            x       y       z     vdW  Elec       q    Type
REMARK                         _______ _______ _______ _____ _____    ______ ____
ROOT
ATOM      6  N   UNL     1      -3.630   0.436  24.628  0.00  0.00    -0.264 NA
ATOM      7  C   UNL     1      -4.118  -0.217  24.759  0.00  0.00    +0.105 C 
ATOM      8  C   UNL     1      -3.934  -0.933  25.125  0.00  0.00    +0.160 C 
ATOM      9  O   UNL     1      -3.216  -1.174  25.452  0.00  0.00    -0.348 OA
ATOM     10  C   UNL     1      -2.504  -0.757  25.493  0.00  0.00    +0.187 C 
ATOM     11  C   UNL     1      -2.336   0.002  25.217  0.00  0.00    +0.213 C 
ATOM     12  C   UNL     1      -2.837   0.532  24.832  0.00  0.00    +0.119 C 
ENDROOT
BRANCH   6   5
ATOM      5  C   UNL     1      -3.982   1.074  24.243  0.00  0.00    +0.102 C 
BRANCH   5   4
ATOM      1  C   UNL     1      -4.777   3.462  25.694  0.00  0.00    +0.154 C 
ATOM      2  N   UNL     1      -4.794   2.717  25.339  0.00  0.00    -0.248 N 
ATOM      3  C   UNL     1      -4.170   2.358  24.935  0.00  0.00    +0.094 A 
ATOM      4  C   UNL     1      -4.428   1.620  24.672  0.00  0.00    +0.033 A 
ATOM     20  C   UNL     1      -5.211   1.523  24.912  0.00  0.00    +0.119 A 
ATOM     21  N   UNL     1      -5.437   2.201  25.324  0.00  0.00    -0.168 NA
ENDBRANCH   5   4
ENDBRANCH   6   5
BRANCH  11  13
ATOM     13  O   UNL     1      -1.563   0.265  25.343  0.00  0.00    -0.459 OA
BRANCH  13  14
ATOM     14  C   UNL     1      -0.977   0.102  24.786  0.00  0.00    +0.245 A 
ATOM     15  C   UNL     1      -0.625  -0.645  24.765  0.00  0.00    +0.156 A 
ATOM     16  N   UNL     1      -0.038  -0.808  24.208  0.00  0.00    -0.236 NA
ATOM     17  C   UNL     1       0.197  -0.226  23.673  0.00  0.00    +0.120 A 
ATOM     18  C   UNL     1      -0.155   0.520  23.695  0.00  0.00    +0.123 A 
ATOM     19  N   UNL     1      -0.742   0.684  24.251  0.00  0.00    -0.207 NA
ENDBRANCH  13  14
ENDBRANCH  11  13
TORSDOF 4
ENDMDL
MODEL 9
REMARK VINA RESULT:      -7.8      1.957      4.042
REMARK  Name = 
REMARK  4 active torsions:
REMARK  status: ('A' for Active; 'I' for Inactive)
REMARK    1  A    between atoms: C_4  and  C_5
REMARK    2  A    between atoms: C_5  and  N_6
REMARK    3  A    between atoms: C_11  and  O_13
REMARK    4  A    between atoms: O_13  and  C_14
REMARK                            x       y       z     vdW  Elec       q    Type
REMARK                         _______ _______ _______ _____ _____    ______ ____
ROOT
ATOM      6  N   UNL     1      -1.815   2.418  24.739  0.00  0.00    -0.264 NA
ATOM      7  C   UNL     1      -1.336   2.797  25.295  0.00  0.00    +0.105 C 
ATOM      8  C   UNL     1      -1.501   3.467  25.746  0.00  0.00    +0.160 C 
ATOM      9  O   UNL     1      -2.188   3.925  25.753  0.00  0.00    -0.348 OA
ATOM     10  C   UNL     1      -2.878   3.826  25.311  0.00  0.00    +0.187 C 
ATOM     11  C   UNL     1      -3.051   3.243  24.753  0.00  0.00    +0.213 C 
ATOM     12  C   UNL     1      -2.578   2.617  24.499  0.00  0.00    +0.119 C 
ENDROOT
BRANCH   6   5
ATOM      5  C   UNL     1      -1.487   1.753  24.378  0.00  0.00    +0.102 C 
BRANCH   5   4
ATOM      1  C   UNL     1      -2.177  -0.947  25.193  0.00  0.00    +0.154 C 
ATOM      2  N   UNL     1      -1.803  -0.214  25.146  0.00  0.00    -0.248 N 
ATOM      3  C   UNL     1      -2.002   0.399  24.630  0.00  0.00    +0.094 A 
ATOM      4  C   UNL     1      -1.486   1.028  24.771  0.00  0.00    +0.033 A 
ATOM     20  C   UNL     1      -0.969   0.804  25.373  0.00  0.00    +0.119 A 
ATOM     21  N   UNL     1      -1.165   0.037  25.605  0.00  0.00    -0.168 NA
ENDBRANCH   5   4
ENDBRANCH   6   5
BRANCH  11  13
ATOM     13  O   UNL     1      -3.797   3.295  24.403  0.00  0.00    -0.459 OA
BRANCH  13  14
ATOM     14  C   UNL     1      -4.459   3.006  24.800  0.00  0.00    +0.245 A 
ATOM     15  C   UNL     1      -4.829   3.468  25.376  0.00  0.00    +0.156 A 
ATOM     16  N   UNL     1      -5.492   3.179  25.773  0.00  0.00    -0.236 NA
ATOM     17  C   UNL     1      -5.785   2.429  25.596  0.00  0.00    +0.120 A 
ATOM     18  C   UNL     1      -5.415   1.967  25.021  0.00  0.00    +0.123 A 
ATOM     19  N   UNL     1      -4.753   2.256  24.624  0.00  0.00    -0.207 NA
ENDBRANCH  13  14
ENDBRANCH  11  13
TORSDOF 4
ENDMDL
