MODEL 1
REMARK VINA RESULT:     -12.4      0.000      0.000
REMARK  Name = 
REMARK  6 active torsions:
REMARK  status: ('A' for Active; 'I' for Inactive)
REMARK    1  A    between atoms: O_2  and  C_3
REMARK    2  A    between atoms: C_8  and  C_9
REMARK    3  A    between atoms: C_12  and  C_14
REMARK    4  A    between atoms: N_17  and  C_18
REMARK    5  A    between atoms: C_18  and  C_19
REMARK    6  A    between atoms: C_23  and  C_25
REMARK                            x       y       z     vdW  Elec       q    Type
REMARK                         _______ _______ _______ _____ _____    ______ ____
ROOT
ATOM     14  C   UNL     1      -3.953   2.130  24.803  0.00  0.00    +0.096 C 
ATOM     15  C   UNL     1      -4.034   2.657  24.173  0.00  0.00    +0.028 C 
ATOM     16  C   UNL     1      -3.671   3.367  24.386  0.00  0.00    +0.073 C 
ATOM     17  N   UNL     1      -3.365   3.278  25.148  0.00  0.00    -0.268 NA
ATOM     27  C   UNL     1      -3.539   2.513  25.405  0.00  0.00    +0.082 C 
ENDROOT
BRANCH  14  12
ATOM      9  C   UNL     1      -4.310   0.027  24.715  0.00  0.00    +0.252 A 
ATOM     10  N   UNL     1      -5.032   0.299  25.007  0.00  0.00    -0.107 NA
ATOM     11  N   UNL     1      -4.986   1.120  25.075  0.00  0.00    -0.111 NA
ATOM     12  C   UNL     1      -4.236   1.355  24.826  0.00  0.00    +0.227 A 
ATOM     13  O   UNL     1      -3.817   0.680  24.603  0.00  0.00    -0.419 OA
BRANCH   9   8
ATOM      3  C   UNL     1      -3.702  -1.199  25.126  0.00  0.00    +0.143 A 
ATOM      4  C   UNL     1      -3.506  -1.987  24.973  0.00  0.00    +0.037 A 
ATOM      5  C   UNL     1      -3.722  -2.333  24.255  0.00  0.00    +0.003 A 
ATOM      6  C   UNL     1      -4.133  -1.894  23.692  0.00  0.00    +0.000 A 
ATOM      7  C   UNL     1      -4.330  -1.106  23.845  0.00  0.00    +0.008 A 
ATOM      8  C   UNL     1      -4.114  -0.760  24.562  0.00  0.00    +0.089 A 
BRANCH   3   2
ATOM      1  C   UNL     1      -3.047  -1.282  26.393  0.00  0.00    +0.252 C 
ATOM      2  O   UNL     1      -3.487  -0.853  25.842  0.00  0.00    -0.471 OA
ENDBRANCH   3   2
ENDBRANCH   9   8
ENDBRANCH  14  12
BRANCH  17  18
ATOM     18  C   UNL     1      -2.957   3.852  25.576  0.00  0.00    +0.099 C 
BRANCH  18  19
ATOM     19  C   UNL     1      -2.156   3.985  25.429  0.00  0.00    -0.005 A 
ATOM     20  C   UNL     1      -1.918   4.669  25.034  0.00  0.00    -0.003 A 
ATOM     21  C   UNL     1      -1.118   4.803  24.886  0.00  0.00    +0.000 A 
ATOM     22  C   UNL     1      -0.555   4.253  25.135  0.00  0.00    +0.010 A 
ATOM     23  C   UNL     1      -0.793   3.569  25.530  0.00  0.00    +0.068 A 
ATOM     24  C   UNL     1      -1.594   3.436  25.677  0.00  0.00    +0.007 A 
BRANCH  23  25
ATOM     25  C   UNL     1      -0.231   3.019  25.779  0.00  0.00    +0.100 C 
ATOM     26  N   UNL     1       0.331   2.469  26.026  0.00  0.00    -0.191 NA
ENDBRANCH  23  25
ENDBRANCH  18  19
ENDBRANCH  17  18
TORSDOF 6
ENDMDL
MODEL 2
REMARK VINA RESULT:     -11.8      1.512      5.073
REMARK  Name = 
REMARK  6 active torsions:
REMARK  status: ('A' for Active; 'I' for Inactive)
REMARK    1  A    between atoms: O_2  and  C_3
REMARK    2  A    between atoms: C_8  and  C_9
REMARK    3  A    between atoms: C_12  and  C_14
REMARK    4  A    between atoms: N_17  and  C_18
REMARK    5  A    between atoms: C_18  and  C_19
REMARK    6  A    between atoms: C_23  and  C_25
REMARK                            x       y       z     vdW  Elec       q    Type
REMARK                         _______ _______ _______ _____ _____    ______ ____
ROOT
ATOM     14  C   UNL     1      -3.823   1.307  24.711  0.00  0.00    +0.096 C 
ATOM     15  C   UNL     1      -4.632   1.162  24.639  0.00  0.00    +0.028 C 
ATOM     16  C   UNL     1      -4.784   0.408  24.938  0.00  0.00    +0.073 C 
ATOM     17  N   UNL     1      -4.069   0.087  25.196  0.00  0.00    -0.268 NA
ATOM     27  C   UNL     1      -3.475   0.643  25.056  0.00  0.00    +0.082 C 
ENDROOT
BRANCH  14  12
ATOM      9  C   UNL     1      -2.644   3.074  24.494  0.00  0.00    +0.252 A 
ATOM     10  N   UNL     1      -3.014   3.037  23.757  0.00  0.00    -0.107 NA
ATOM     11  N   UNL     1      -3.501   2.370  23.749  0.00  0.00    -0.111 NA
ATOM     12  C   UNL     1      -3.432   1.995  24.481  0.00  0.00    +0.227 A 
ATOM     13  O   UNL     1      -2.902   2.430  24.941  0.00  0.00    -0.419 OA
BRANCH   9   8
ATOM      3  C   UNL     1      -1.300   3.538  24.630  0.00  0.00    +0.143 A 
ATOM      4  C   UNL     1      -0.765   4.117  24.877  0.00  0.00    +0.037 A 
ATOM      5  C   UNL     1      -1.041   4.809  25.233  0.00  0.00    +0.003 A 
ATOM      6  C   UNL     1      -1.850   4.922  25.342  0.00  0.00    +0.000 A 
ATOM      7  C   UNL     1      -2.385   4.343  25.095  0.00  0.00    +0.008 A 
ATOM      8  C   UNL     1      -2.110   3.652  24.740  0.00  0.00    +0.089 A 
BRANCH   3   2
ATOM      1  C   UNL     1      -0.213   2.713  24.207  0.00  0.00    +0.252 C 
ATOM      2  O   UNL     1      -1.024   2.848  24.275  0.00  0.00    -0.471 OA
ENDBRANCH   3   2
ENDBRANCH   9   8
ENDBRANCH  14  12
BRANCH  17  18
ATOM     18  C   UNL     1      -3.966  -0.657  25.534  0.00  0.00    +0.099 C 
BRANCH  18  19
ATOM     19  C   UNL     1      -3.685  -1.284  25.076  0.00  0.00    -0.005 A 
ATOM     20  C   UNL     1      -4.198  -1.688  24.572  0.00  0.00    -0.003 A 
ATOM     21  C   UNL     1      -3.918  -2.314  24.115  0.00  0.00    +0.000 A 
ATOM     22  C   UNL     1      -3.125  -2.536  24.161  0.00  0.00    +0.010 A 
ATOM     23  C   UNL     1      -2.612  -2.131  24.664  0.00  0.00    +0.068 A 
ATOM     24  C   UNL     1      -2.892  -1.505  25.122  0.00  0.00    +0.007 A 
BRANCH  23  25
ATOM     25  C   UNL     1      -1.818  -2.353  24.710  0.00  0.00    +0.100 C 
ATOM     26  N   UNL     1      -1.025  -2.574  24.756  0.00  0.00    -0.191 NA
ENDBRANCH  23  25
ENDBRANCH  18  19
ENDBRANCH  17  18
TORSDOF 6
ENDMDL
MODEL 3
REMARK VINA RESULT:     -11.7      1.942      5.579
REMARK  Name = 
REMARK  6 active torsions:
REMARK  status: ('A' for Active; 'I' for Inactive)
REMARK    1  A    between atoms: O_2  and  C_3
REMARK    2  A    between atoms: C_8  and  C_9
REMARK    3  A    between atoms: C_12  and  C_14
REMARK    4  A    between atoms: N_17  and  C_18
REMARK    5  A    between atoms: C_18  and  C_19
REMARK    6  A    between atoms: C_23  and  C_25
REMARK                            x       y       z     vdW  Elec       q    Type
REMARK                         _______ _______ _______ _____ _____    ______ ____
ROOT
ATOM     14  C   UNL     1      -0.794   0.915  25.092  0.00  0.00    +0.096 C 
ATOM     15  C   UNL     1      -0.542   0.623  24.363  0.00  0.00    +0.028 C 
ATOM     16  C   UNL     1      -0.732  -0.179  24.329  0.00  0.00    +0.073 C 
ATOM     17  N   UNL     1      -1.102  -0.383  25.039  0.00  0.00    -0.268 NA
ATOM     27  C   UNL     1      -1.140   0.293  25.510  0.00  0.00    +0.082 C 
ENDROOT
BRANCH  14  12
ATOM      9  C   UNL     1      -0.823   3.020  25.449  0.00  0.00    +0.252 A 
ATOM     10  N   UNL     1      -0.361   2.757  26.080  0.00  0.00    -0.107 NA
ATOM     11  N   UNL     1      -0.294   1.936  26.023  0.00  0.00    -0.111 NA
ATOM     12  C   UNL     1      -0.715   1.692  25.357  0.00  0.00    +0.227 A 
ATOM     13  O   UNL     1      -1.042   2.361  25.002  0.00  0.00    -0.419 OA
BRANCH   9   8
ATOM      3  C   UNL     1      -1.762   4.093  25.541  0.00  0.00    +0.143 A 
ATOM      4  C   UNL     1      -1.970   4.877  25.384  0.00  0.00    +0.037 A 
ATOM      5  C   UNL     1      -1.445   5.368  24.979  0.00  0.00    +0.003 A 
ATOM      6  C   UNL     1      -0.715   5.078  24.731  0.00  0.00    +0.000 A 
ATOM      7  C   UNL     1      -0.507   4.294  24.888  0.00  0.00    +0.008 A 
ATOM      8  C   UNL     1      -1.031   3.803  25.292  0.00  0.00    +0.089 A 
BRANCH   3   2
ATOM      1  C   UNL     1      -3.023   3.887  26.181  0.00  0.00    +0.252 C 
ATOM      2  O   UNL     1      -2.285   3.601  25.946  0.00  0.00    -0.471 OA
ENDBRANCH   3   2
ENDBRANCH   9   8
ENDBRANCH  14  12
BRANCH  17  18
ATOM     18  C   UNL     1      -1.383  -1.132  25.240  0.00  0.00    +0.099 C 
BRANCH  18  19
ATOM     19  C   UNL     1      -2.195  -1.266  25.298  0.00  0.00    -0.005 A 
ATOM     20  C   UNL     1      -2.602  -1.041  25.979  0.00  0.00    -0.003 A 
ATOM     21  C   UNL     1      -3.413  -1.175  26.038  0.00  0.00    +0.000 A 
ATOM     22  C   UNL     1      -3.818  -1.534  25.415  0.00  0.00    +0.010 A 
ATOM     23  C   UNL     1      -3.411  -1.759  24.734  0.00  0.00    +0.068 A 
ATOM     24  C   UNL     1      -2.598  -1.625  24.676  0.00  0.00    +0.007 A 
BRANCH  23  25
ATOM     25  C   UNL     1      -3.815  -2.119  24.111  0.00  0.00    +0.100 C 
ATOM     26  N   UNL     1      -4.220  -2.478  23.488  0.00  0.00    -0.191 NA
ENDBRANCH  23  25
ENDBRANCH  18  19
ENDBRANCH  17  18
TORSDOF 6
ENDMDL
MODEL 4
REMARK VINA RESULT:     -11.6      1.522      2.512
REMARK  Name = 
REMARK  6 active torsions:
REMARK  status: ('A' for Active; 'I' for Inactive)
REMARK    1  A    between atoms: O_2  and  C_3
REMARK    2  A    between atoms: C_8  and  C_9
REMARK    3  A    between atoms: C_12  and  C_14
REMARK    4  A    between atoms: N_17  and  C_18
REMARK    5  A    between atoms: C_18  and  C_19
REMARK    6  A    between atoms: C_23  and  C_25
REMARK                            x       y       z     vdW  Elec       q    Type
REMARK                         _______ _______ _______ _____ _____    ______ ____
ROOT
ATOM     14  C   UNL     1      -0.919   0.762  25.191  0.00  0.00    +0.096 C 
ATOM     15  C   UNL     1      -0.398   0.920  24.571  0.00  0.00    +0.028 C 
ATOM     16  C   UNL     1      -0.081   1.672  24.690  0.00  0.00    +0.073 C 
ATOM     17  N   UNL     1      -0.405   1.979  25.384  0.00  0.00    -0.268 NA
ATOM     27  C   UNL     1      -0.923   1.416  25.694  0.00  0.00    +0.082 C 
ENDROOT
BRANCH  14  12
ATOM      9  C   UNL     1      -2.231  -0.919  25.090  0.00  0.00    +0.252 A 
ATOM     10  N   UNL     1      -1.835  -1.068  25.798  0.00  0.00    -0.107 NA
ATOM     11  N   UNL     1      -1.295  -0.457  25.923  0.00  0.00    -0.111 NA
ATOM     12  C   UNL     1      -1.357   0.070  25.291  0.00  0.00    +0.227 A 
ATOM     13  O   UNL     1      -1.936  -0.215  24.776  0.00  0.00    -0.419 OA
BRANCH   9   8
ATOM      3  C   UNL     1      -3.584  -1.094  24.664  0.00  0.00    +0.143 A 
ATOM      4  C   UNL     1      -4.172  -1.566  24.328  0.00  0.00    +0.037 A 
ATOM      5  C   UNL     1      -3.995  -2.334  24.083  0.00  0.00    +0.003 A 
ATOM      6  C   UNL     1      -3.231  -2.630  24.173  0.00  0.00    +0.000 A 
ATOM      7  C   UNL     1      -2.642  -2.158  24.510  0.00  0.00    +0.008 A 
ATOM      8  C   UNL     1      -2.819  -1.391  24.754  0.00  0.00    +0.089 A 
BRANCH   3   2
ATOM      1  C   UNL     1      -4.524  -0.028  24.813  0.00  0.00    +0.252 C 
ATOM      2  O   UNL     1      -3.760  -0.327  24.909  0.00  0.00    -0.471 OA
ENDBRANCH   3   2
ENDBRANCH   9   8
ENDBRANCH  14  12
BRANCH  17  18
ATOM     18  C   UNL     1      -0.240   2.718  25.711  0.00  0.00    +0.099 C 
BRANCH  18  19
ATOM     19  C   UNL     1      -0.713   3.367  25.523  0.00  0.00    -0.005 A 
ATOM     20  C   UNL     1      -0.433   3.945  25.005  0.00  0.00    -0.003 A 
ATOM     21  C   UNL     1      -0.905   4.594  24.817  0.00  0.00    +0.000 A 
ATOM     22  C   UNL     1      -1.658   4.665  25.148  0.00  0.00    +0.010 A 
ATOM     23  C   UNL     1      -1.938   4.088  25.666  0.00  0.00    +0.068 A 
ATOM     24  C   UNL     1      -1.465   3.438  25.854  0.00  0.00    +0.007 A 
BRANCH  23  25
ATOM     25  C   UNL     1      -2.691   4.160  25.997  0.00  0.00    +0.100 C 
ATOM     26  N   UNL     1      -3.443   4.232  26.327  0.00  0.00    -0.191 NA
ENDBRANCH  23  25
ENDBRANCH  18  19
ENDBRANCH  17  18
TORSDOF 6
ENDMDL
