MODEL 1
REMARK VINA RESULT:     -10.9      0.000      0.000
REMARK  Name = 
REMARK  6 active torsions:
REMARK  status: ('A' for Active; 'I' for Inactive)
REMARK    1  A    between atoms: C_2  and  C_4
REMARK    2  A    between atoms: C_4  and  N_5
REMARK    3  A    between atoms: C_6  and  C_7
REMARK    4  A    between atoms: C_9  and  C_14
REMARK    5  A    between atoms: C_17  and  N_18
REMARK    6  A    between atoms: C_19  and  C_21
REMARK                            x       y       z     vdW  Elec       q    Type
REMARK                         _______ _______ _______ _____ _____    ______ ____
ROOT
ATOM      5  N   UNL     1      -2.561  -1.471  24.811  0.00  0.00    -0.274 N 
ATOM      6  C   UNL     1      -2.402  -0.663  24.846  0.00  0.00    +0.140 C 
ATOM      9  C   UNL     1      -1.638  -0.385  24.700  0.00  0.00    +0.159 C 
ATOM     10  O   UNL     1      -1.034  -0.918  24.520  0.00  0.00    -0.341 OA
ATOM     11  C   UNL     1      -1.193  -1.726  24.485  0.00  0.00    +0.227 C 
ATOM     12  C   UNL     1      -1.956  -2.003  24.631  0.00  0.00    +0.256 C 
ATOM     13  O   UNL     1      -2.115  -2.812  24.596  0.00  0.00    -0.272 OA
ENDROOT
BRANCH   9  14
ATOM     14  C   UNL     1      -1.479   0.423  24.735  0.00  0.00    +0.006 A 
ATOM     15  C   UNL     1      -1.613   0.898  24.074  0.00  0.00    -0.001 A 
ATOM     16  C   UNL     1      -1.454   1.707  24.109  0.00  0.00    +0.016 A 
ATOM     17  C   UNL     1      -1.161   2.041  24.805  0.00  0.00    +0.073 A 
ATOM     25  C   UNL     1      -1.028   1.565  25.465  0.00  0.00    +0.016 A 
ATOM     26  C   UNL     1      -1.187   0.756  25.431  0.00  0.00    -0.001 A 
BRANCH  17  18
ATOM     18  N   UNL     1      -1.002   2.850  24.840  0.00  0.00    -0.179 NA
ATOM     19  C   UNL     1      -1.608   3.382  25.016  0.00  0.00    +0.245 C 
ATOM     20  O   UNL     1      -2.373   3.106  25.158  0.00  0.00    -0.273 OA
BRANCH  19  21
ATOM     21  C   UNL     1      -1.449   4.190  25.051  0.00  0.00    +0.079 C 
ATOM     22  C   UNL     1      -0.823   4.673  24.815  0.00  0.00    +0.009 C 
ATOM     23  C   UNL     1      -1.224   5.334  25.100  0.00  0.00    +0.001 C 
ATOM     24  C   UNL     1      -1.850   4.853  25.337  0.00  0.00    +0.009 C 
ENDBRANCH  19  21
ENDBRANCH  17  18
ENDBRANCH   9  14
BRANCH   6   7
ATOM      7  C   UNL     1      -3.007  -0.130  25.027  0.00  0.00    +0.205 C 
ATOM      8  O   UNL     1      -3.384  -0.167  25.759  0.00  0.00    -0.218 OA
ENDBRANCH   6   7
BRANCH   5   4
ATOM      4  C   UNL     1      -3.325  -1.748  24.957  0.00  0.00    +0.094 C 
BRANCH   4   2
ATOM      1  C   UNL     1      -3.750  -2.978  24.366  0.00  0.00    +0.002 C 
ATOM      2  C   UNL     1      -3.736  -2.153  24.367  0.00  0.00    +0.020 C 
ATOM      3  C   UNL     1      -4.133  -1.733  23.778  0.00  0.00    +0.002 C 
ENDBRANCH   4   2
ENDBRANCH   5   4
TORSDOF 6
ENDMDL
MODEL 2
REMARK VINA RESULT:     -10.9      1.346      5.475
REMARK  Name = 
REMARK  6 active torsions:
REMARK  status: ('A' for Active; 'I' for Inactive)
REMARK    1  A    between atoms: C_2  and  C_4
REMARK    2  A    between atoms: C_4  and  N_5
REMARK    3  A    between atoms: C_6  and  C_7
REMARK    4  A    between atoms: C_9  and  C_14
REMARK    5  A    between atoms: C_17  and  N_18
REMARK    6  A    between atoms: C_19  and  C_21
REMARK                            x       y       z     vdW  Elec       q    Type
REMARK                         _______ _______ _______ _____ _____    ______ ____
ROOT
ATOM      5  N   UNL     1      -2.217   3.528  25.068  0.00  0.00    -0.274 N 
ATOM      6  C   UNL     1      -2.421   2.741  24.927  0.00  0.00    +0.140 C 
ATOM      9  C   UNL     1      -3.178   2.553  24.656  0.00  0.00    +0.159 C 
ATOM     10  O   UNL     1      -3.730   3.153  24.527  0.00  0.00    -0.341 OA
ATOM     11  C   UNL     1      -3.525   3.939  24.667  0.00  0.00    +0.227 C 
ATOM     12  C   UNL     1      -2.770   4.127  24.937  0.00  0.00    +0.256 C 
ATOM     13  O   UNL     1      -2.565   4.914  25.078  0.00  0.00    -0.272 OA
ENDROOT
BRANCH   9  14
ATOM     14  C   UNL     1      -3.383   1.766  24.516  0.00  0.00    +0.006 A 
ATOM     15  C   UNL     1      -3.838   1.354  25.067  0.00  0.00    -0.001 A 
ATOM     16  C   UNL     1      -4.043   0.567  24.927  0.00  0.00    +0.016 A 
ATOM     17  C   UNL     1      -3.792   0.193  24.235  0.00  0.00    +0.073 A 
ATOM     25  C   UNL     1      -3.337   0.606  23.685  0.00  0.00    +0.016 A 
ATOM     26  C   UNL     1      -3.132   1.392  23.825  0.00  0.00    -0.001 A 
BRANCH  17  18
ATOM     18  N   UNL     1      -3.996  -0.594  24.095  0.00  0.00    -0.179 NA
ATOM     19  C   UNL     1      -3.529  -1.202  24.399  0.00  0.00    +0.245 C 
ATOM     20  O   UNL     1      -2.857  -1.024  24.844  0.00  0.00    -0.273 OA
BRANCH  19  21
ATOM     21  C   UNL     1      -3.733  -1.989  24.259  0.00  0.00    +0.079 C 
ATOM     22  C   UNL     1      -4.278  -2.373  23.772  0.00  0.00    +0.009 C 
ATOM     23  C   UNL     1      -4.023  -3.102  24.060  0.00  0.00    +0.001 C 
ATOM     24  C   UNL     1      -3.478  -2.719  24.547  0.00  0.00    +0.009 C 
ENDBRANCH  19  21
ENDBRANCH  17  18
ENDBRANCH   9  14
BRANCH   6   7
ATOM      7  C   UNL     1      -1.869   2.141  25.057  0.00  0.00    +0.205 C 
ATOM      8  O   UNL     1      -1.585   2.000  25.819  0.00  0.00    -0.218 OA
ENDBRANCH   6   7
BRANCH   5   4
ATOM      4  C   UNL     1      -1.460   3.715  25.338  0.00  0.00    +0.094 C 
BRANCH   4   2
ATOM      1  C   UNL     1      -0.933   5.013  25.056  0.00  0.00    +0.002 C 
ATOM      2  C   UNL     1      -0.972   4.206  24.890  0.00  0.00    +0.020 C 
ATOM      3  C   UNL     1      -0.522   3.889  24.274  0.00  0.00    +0.002 C 
ENDBRANCH   4   2
ENDBRANCH   5   4
TORSDOF 6
ENDMDL
MODEL 3
REMARK VINA RESULT:     -10.1      1.078      5.161
REMARK  Name = 
REMARK  6 active torsions:
REMARK  status: ('A' for Active; 'I' for Inactive)
REMARK    1  A    between atoms: C_2  and  C_4
REMARK    2  A    between atoms: C_4  and  N_5
REMARK    3  A    between atoms: C_6  and  C_7
REMARK    4  A    between atoms: C_9  and  C_14
REMARK    5  A    between atoms: C_17  and  N_18
REMARK    6  A    between atoms: C_19  and  C_21
REMARK                            x       y       z     vdW  Elec       q    Type
REMARK                         _______ _______ _______ _____ _____    ______ ____
ROOT
ATOM      5  N   UNL     1      -1.171   3.094  25.021  0.00  0.00    -0.274 N 
ATOM      6  C   UNL     1      -1.517   2.355  24.900  0.00  0.00    +0.140 C 
ATOM      9  C   UNL     1      -1.170   1.678  25.222  0.00  0.00    +0.159 C 
ATOM     10  O   UNL     1      -0.477   1.742  25.664  0.00  0.00    -0.341 OA
ATOM     11  C   UNL     1      -0.131   2.481  25.786  0.00  0.00    +0.227 C 
ATOM     12  C   UNL     1      -0.477   3.156  25.464  0.00  0.00    +0.256 C 
ATOM     13  O   UNL     1      -0.131   3.895  25.586  0.00  0.00    -0.272 OA
ENDROOT
BRANCH   9  14
ATOM     14  C   UNL     1      -1.517   0.940  25.100  0.00  0.00    +0.006 A 
ATOM     15  C   UNL     1      -1.245   0.452  24.492  0.00  0.00    -0.001 A 
ATOM     16  C   UNL     1      -1.592  -0.287  24.371  0.00  0.00    +0.016 A 
ATOM     17  C   UNL     1      -2.209  -0.538  24.858  0.00  0.00    +0.073 A 
ATOM     25  C   UNL     1      -2.480  -0.050  25.465  0.00  0.00    +0.016 A 
ATOM     26  C   UNL     1      -2.133   0.689  25.586  0.00  0.00    -0.001 A 
BRANCH  17  18
ATOM     18  N   UNL     1      -2.556  -1.277  24.736  0.00  0.00    -0.179 NA
ATOM     19  C   UNL     1      -3.285  -1.332  24.354  0.00  0.00    +0.245 C 
ATOM     20  O   UNL     1      -3.668  -0.650  24.093  0.00  0.00    -0.273 OA
BRANCH  19  21
ATOM     21  C   UNL     1      -3.631  -2.071  24.233  0.00  0.00    +0.079 C 
ATOM     22  C   UNL     1      -3.511  -2.830  24.535  0.00  0.00    +0.009 C 
ATOM     23  C   UNL     1      -4.121  -3.116  24.061  0.00  0.00    +0.001 C 
ATOM     24  C   UNL     1      -4.242  -2.359  23.759  0.00  0.00    +0.009 C 
ENDBRANCH  19  21
ENDBRANCH  17  18
ENDBRANCH   9  14
BRANCH   6   7
ATOM      7  C   UNL     1      -2.211   2.292  24.457  0.00  0.00    +0.205 C 
ATOM      8  O   UNL     1      -2.204   2.474  23.652  0.00  0.00    -0.218 OA
ENDBRANCH   6   7
BRANCH   5   4
ATOM      4  C   UNL     1      -1.518   3.770  24.699  0.00  0.00    +0.094 C 
BRANCH   4   2
ATOM      1  C   UNL     1      -1.320   5.122  25.117  0.00  0.00    +0.002 C 
ATOM      2  C   UNL     1      -1.718   4.403  25.189  0.00  0.00    +0.020 C 
ATOM      3  C   UNL     1      -2.316   4.318  25.751  0.00  0.00    +0.002 C 
ENDBRANCH   4   2
ENDBRANCH   5   4
TORSDOF 6
ENDMDL
