MODEL 1
REMARK VINA RESULT:     -10.9      0.000      0.000
REMARK  Name = 
REMARK  7 active torsions:
REMARK  status: ('A' for Active; 'I' for Inactive)
REMARK    1  A    between atoms: C_2  and  C_3
REMARK    2  A    between atoms: C_3  and  C_4
REMARK    3  A    between atoms: C_9  and  C_10
REMARK    4  A    between atoms: C_10  and  C_11
REMARK    5  A    between atoms: C_14  and  C_15
REMARK    6  A    between atoms: C_15  and  S_16
REMARK    7  A    between atoms: S_16  and  C_17
REMARK                            x       y       z     vdW  Elec       q    Type
REMARK                         _______ _______ _______ _____ _____    ______ ____
ROOT
ATOM      4  C   UNL     1      -4.024   3.299  25.223  0.00  0.00    +0.012 C 
ATOM      5  C   UNL     1      -4.307   3.830  25.786  0.00  0.00    +0.019 C 
ATOM      6  C   UNL     1      -5.096   3.798  26.024  0.00  0.00    +0.089 C 
ATOM      7  N   UNL     1      -5.602   3.233  25.698  0.00  0.00    -0.218 NA
ATOM      8  C   UNL     1      -5.319   2.701  25.134  0.00  0.00    +0.089 C 
ATOM      9  C   UNL     1      -4.530   2.735  24.897  0.00  0.00    +0.024 C 
ENDROOT
BRANCH   4   3
ATOM      3  C   UNL     1      -3.234   3.331  24.984  0.00  0.00    +0.085 C 
BRANCH   3   2
ATOM      1  O   UNL     1      -3.287   4.747  24.803  0.00  0.00    -0.275 OA
ATOM      2  C   UNL     1      -2.850   4.059  24.927  0.00  0.00    +0.226 C 
ATOM     24  N   UNL     1      -2.028   4.099  24.993  0.00  0.00    -0.280 N 
ATOM     25  C   UNL     1      -1.645   4.827  24.936  0.00  0.00    +0.093 C 
ATOM     26  C   UNL     1      -0.824   4.866  25.002  0.00  0.00    +0.022 C 
ATOM     27  C   UNL     1      -0.386   4.178  25.126  0.00  0.00    +0.004 C 
ATOM     28  C   UNL     1      -0.769   3.450  25.184  0.00  0.00    +0.022 C 
ATOM     29  C   UNL     1      -1.591   3.410  25.117  0.00  0.00    +0.093 C 
ENDBRANCH   3   2
ENDBRANCH   4   3
BRANCH   9  10
ATOM     10  C   UNL     1      -4.246   2.202  24.332  0.00  0.00    +0.051 C 
BRANCH  10  11
ATOM     11  C   UNL     1      -4.393   1.395  24.416  0.00  0.00    +0.100 A 
ATOM     12  N   UNL     1      -5.081   1.056  24.720  0.00  0.00    -0.082 NA
ATOM     13  O   UNL     1      -4.990   0.237  24.703  0.00  0.00    -0.357 OA
ATOM     14  C   UNL     1      -4.247   0.069  24.388  0.00  0.00    +0.165 A 
ATOM     23  C   UNL     1      -3.877   0.785  24.211  0.00  0.00    +0.054 A 
BRANCH  14  15
ATOM     15  C   UNL     1      -3.928  -0.683  24.271  0.00  0.00    +0.129 C 
BRANCH  15  16
ATOM     16  S   UNL     1      -3.585  -1.089  24.902  0.00  0.00    -0.105 S 
BRANCH  16  17
ATOM     17  C   UNL     1      -3.165  -1.786  24.765  0.00  0.00    +0.026 A 
ATOM     18  C   UNL     1      -2.342  -1.767  24.717  0.00  0.00    +0.006 A 
ATOM     19  C   UNL     1      -1.921  -2.464  24.580  0.00  0.00    +0.001 A 
ATOM     20  C   UNL     1      -2.324  -3.179  24.492  0.00  0.00    +0.000 A 
ATOM     21  C   UNL     1      -3.147  -3.196  24.541  0.00  0.00    +0.001 A 
ATOM     22  C   UNL     1      -3.567  -2.500  24.677  0.00  0.00    +0.006 A 
ENDBRANCH  16  17
ENDBRANCH  15  16
ENDBRANCH  14  15
ENDBRANCH  10  11
ENDBRANCH   9  10
TORSDOF 7
ENDMDL
MODEL 2
REMARK VINA RESULT:     -10.6      1.624      3.145
REMARK  Name = 
REMARK  7 active torsions:
REMARK  status: ('A' for Active; 'I' for Inactive)
REMARK    1  A    between atoms: C_2  and  C_3
REMARK    2  A    between atoms: C_3  and  C_4
REMARK    3  A    between atoms: C_9  and  C_10
REMARK    4  A    between atoms: C_10  and  C_11
REMARK    5  A    between atoms: C_14  and  C_15
REMARK    6  A    between atoms: C_15  and  S_16
REMARK    7  A    between atoms: S_16  and  C_17
REMARK                            x       y       z     vdW  Elec       q    Type
REMARK                         _______ _______ _______ _____ _____    ______ ____
ROOT
ATOM      4  C   UNL     1      -1.559   2.891  25.086  0.00  0.00    +0.012 C 
ATOM      5  C   UNL     1      -1.383   3.539  24.607  0.00  0.00    +0.019 C 
ATOM      6  C   UNL     1      -0.638   3.604  24.257  0.00  0.00    +0.089 C 
ATOM      7  N   UNL     1      -0.070   3.021  24.386  0.00  0.00    -0.218 NA
ATOM      8  C   UNL     1      -0.246   2.372  24.866  0.00  0.00    +0.089 C 
ATOM      9  C   UNL     1      -0.990   2.308  25.215  0.00  0.00    +0.024 C 
ENDROOT
BRANCH   4   3
ATOM      3  C   UNL     1      -2.303   2.826  25.436  0.00  0.00    +0.085 C 
BRANCH   3   2
ATOM      1  O   UNL     1      -2.455   4.237  25.601  0.00  0.00    -0.275 OA
ATOM      2  C   UNL     1      -2.788   3.490  25.499  0.00  0.00    +0.226 C 
ATOM     24  N   UNL     1      -3.609   3.407  25.460  0.00  0.00    -0.280 N 
ATOM     25  C   UNL     1      -4.094   4.071  25.523  0.00  0.00    +0.093 C 
ATOM     26  C   UNL     1      -4.914   3.988  25.484  0.00  0.00    +0.022 C 
ATOM     27  C   UNL     1      -5.249   3.241  25.382  0.00  0.00    +0.004 C 
ATOM     28  C   UNL     1      -4.764   2.577  25.319  0.00  0.00    +0.022 C 
ATOM     29  C   UNL     1      -3.943   2.660  25.358  0.00  0.00    +0.093 C 
ENDBRANCH   3   2
ENDBRANCH   4   3
BRANCH   9  10
ATOM     10  C   UNL     1      -1.166   1.658  25.694  0.00  0.00    +0.051 C 
BRANCH  10  11
ATOM     11  C   UNL     1      -1.110   0.894  25.389  0.00  0.00    +0.100 A 
ATOM     12  N   UNL     1      -0.411   0.495  25.205  0.00  0.00    -0.082 NA
ATOM     13  O   UNL     1      -0.613  -0.251  24.918  0.00  0.00    -0.357 OA
ATOM     14  C   UNL     1      -1.435  -0.314  24.925  0.00  0.00    +0.165 A 
ATOM     23  C   UNL     1      -1.743   0.393  25.216  0.00  0.00    +0.054 A 
BRANCH  14  15
ATOM     15  C   UNL     1      -1.874  -0.970  24.682  0.00  0.00    +0.129 C 
BRANCH  15  16
ATOM     16  S   UNL     1      -2.607  -1.126  25.025  0.00  0.00    -0.105 S 
BRANCH  16  17
ATOM     17  C   UNL     1      -3.124  -1.661  24.668  0.00  0.00    +0.026 A 
ATOM     18  C   UNL     1      -3.015  -2.471  24.772  0.00  0.00    +0.006 A 
ATOM     19  C   UNL     1      -3.533  -3.006  24.415  0.00  0.00    +0.001 A 
ATOM     20  C   UNL     1      -4.160  -2.729  23.954  0.00  0.00    +0.000 A 
ATOM     21  C   UNL     1      -4.268  -1.918  23.852  0.00  0.00    +0.001 A 
ATOM     22  C   UNL     1      -3.751  -1.384  24.209  0.00  0.00    +0.006 A 
ENDBRANCH  16  17
ENDBRANCH  15  16
ENDBRANCH  14  15
ENDBRANCH  10  11
ENDBRANCH   9  10
TORSDOF 7
ENDMDL
MODEL 3
REMARK VINA RESULT:     -10.4      1.491      3.085
REMARK  Name = 
REMARK  7 active torsions:
REMARK  status: ('A' for Active; 'I' for Inactive)
REMARK    1  A    between atoms: C_2  and  C_3
REMARK    2  A    between atoms: C_3  and  C_4
REMARK    3  A    between atoms: C_9  and  C_10
REMARK    4  A    between atoms: C_10  and  C_11
REMARK    5  A    between atoms: C_14  and  C_15
REMARK    6  A    between atoms: C_15  and  S_16
REMARK    7  A    between atoms: S_16  and  C_17
REMARK                            x       y       z     vdW  Elec       q    Type
REMARK                         _______ _______ _______ _____ _____    ______ ____
ROOT
ATOM      4  C   UNL     1      -2.239   3.273  24.914  0.00  0.00    +0.012 C 
ATOM      5  C   UNL     1      -2.104   3.858  25.479  0.00  0.00    +0.019 C 
ATOM      6  C   UNL     1      -1.333   4.098  25.650  0.00  0.00    +0.089 C 
ATOM      7  N   UNL     1      -0.697   3.751  25.255  0.00  0.00    -0.218 NA
ATOM      8  C   UNL     1      -0.832   3.165  24.689  0.00  0.00    +0.089 C 
ATOM      9  C   UNL     1      -1.603   2.927  24.519  0.00  0.00    +0.024 C 
ENDROOT
BRANCH   4   3
ATOM      3  C   UNL     1      -3.010   3.034  24.744  0.00  0.00    +0.085 C 
BRANCH   3   2
ATOM      1  O   UNL     1      -3.571   4.241  25.264  0.00  0.00    -0.275 OA
ATOM      2  C   UNL     1      -3.649   3.444  25.065  0.00  0.00    +0.226 C 
ATOM     24  N   UNL     1      -4.369   3.058  25.187  0.00  0.00    -0.280 N 
ATOM     25  C   UNL     1      -5.008   3.469  25.508  0.00  0.00    +0.093 C 
ATOM     26  C   UNL     1      -5.727   3.083  25.630  0.00  0.00    +0.022 C 
ATOM     27  C   UNL     1      -5.807   2.286  25.431  0.00  0.00    +0.004 C 
ATOM     28  C   UNL     1      -5.167   1.875  25.110  0.00  0.00    +0.022 C 
ATOM     29  C   UNL     1      -4.448   2.261  24.988  0.00  0.00    +0.093 C 
ENDBRANCH   3   2
ENDBRANCH   4   3
BRANCH   9  10
ATOM     10  C   UNL     1      -1.738   2.340  23.954  0.00  0.00    +0.051 C 
BRANCH  10  11
ATOM     11  C   UNL     1      -1.395   1.595  24.041  0.00  0.00    +0.100 A 
ATOM     12  N   UNL     1      -0.586   1.434  24.063  0.00  0.00    -0.082 NA
ATOM     13  O   UNL     1      -0.491   0.620  24.158  0.00  0.00    -0.357 OA
ATOM     14  C   UNL     1      -1.242   0.279  24.195  0.00  0.00    +0.165 A 
ATOM     23  C   UNL     1      -1.800   0.882  24.123  0.00  0.00    +0.054 A 
BRANCH  14  15
ATOM     15  C   UNL     1      -1.405  -0.525  24.288  0.00  0.00    +0.129 C 
BRANCH  15  16
ATOM     16  S   UNL     1      -1.834  -0.786  24.942  0.00  0.00    -0.105 S 
BRANCH  16  17
ATOM     17  C   UNL     1      -2.287  -1.474  24.891  0.00  0.00    +0.026 A 
ATOM     18  C   UNL     1      -1.957  -2.162  24.577  0.00  0.00    +0.006 A 
ATOM     19  C   UNL     1      -2.411  -2.850  24.526  0.00  0.00    +0.001 A 
ATOM     20  C   UNL     1      -3.193  -2.849  24.789  0.00  0.00    +0.000 A 
ATOM     21  C   UNL     1      -3.522  -2.160  25.102  0.00  0.00    +0.001 A 
ATOM     22  C   UNL     1      -3.068  -1.473  25.153  0.00  0.00    +0.006 A 
ENDBRANCH  16  17
ENDBRANCH  15  16
ENDBRANCH  14  15
ENDBRANCH  10  11
ENDBRANCH   9  10
TORSDOF 7
ENDMDL
MODEL 4
REMARK VINA RESULT:     -10.1      2.224      5.592
REMARK  Name = 
REMARK  7 active torsions:
REMARK  status: ('A' for Active; 'I' for Inactive)
REMARK    1  A    between atoms: C_2  and  C_3
REMARK    2  A    between atoms: C_3  and  C_4
REMARK    3  A    between atoms: C_9  and  C_10
REMARK    4  A    between atoms: C_10  and  C_11
REMARK    5  A    between atoms: C_14  and  C_15
REMARK    6  A    between atoms: C_15  and  S_16
REMARK    7  A    between atoms: S_16  and  C_17
REMARK                            x       y       z     vdW  Elec       q    Type
REMARK                         _______ _______ _______ _____ _____    ______ ____
ROOT
ATOM      4  C   UNL     1      -0.614   0.027  24.449  0.00  0.00    +0.012 C 
ATOM      5  C   UNL     1      -0.251  -0.314  23.792  0.00  0.00    +0.019 C 
ATOM      6  C   UNL     1       0.324   0.104  23.374  0.00  0.00    +0.089 C 
ATOM      7  N   UNL     1       0.536   0.865  23.613  0.00  0.00    -0.218 NA
ATOM      8  C   UNL     1       0.173   1.207  24.271  0.00  0.00    +0.089 C 
ATOM      9  C   UNL     1      -0.402   0.788  24.689  0.00  0.00    +0.024 C 
ENDROOT
BRANCH   4   3
ATOM      3  C   UNL     1      -1.189  -0.391  24.868  0.00  0.00    +0.085 C 
BRANCH   3   2
ATOM      1  O   UNL     1      -0.612  -1.669  24.594  0.00  0.00    -0.275 OA
ATOM      2  C   UNL     1      -1.274  -1.203  24.752  0.00  0.00    +0.226 C 
ATOM     24  N   UNL     1      -2.022  -1.551  24.793  0.00  0.00    -0.280 N 
ATOM     25  C   UNL     1      -2.106  -2.363  24.677  0.00  0.00    +0.093 C 
ATOM     26  C   UNL     1      -2.853  -2.710  24.719  0.00  0.00    +0.022 C 
ATOM     27  C   UNL     1      -3.517  -2.245  24.877  0.00  0.00    +0.004 C 
ATOM     28  C   UNL     1      -3.432  -1.432  24.993  0.00  0.00    +0.022 C 
ATOM     29  C   UNL     1      -2.684  -1.085  24.951  0.00  0.00    +0.093 C 
ENDBRANCH   3   2
ENDBRANCH   4   3
BRANCH   9  10
ATOM     10  C   UNL     1      -0.765   1.130  25.346  0.00  0.00    +0.051 C 
BRANCH  10  11
ATOM     11  C   UNL     1      -1.145   1.859  25.276  0.00  0.00    +0.100 A 
ATOM     12  N   UNL     1      -0.782   2.579  25.098  0.00  0.00    -0.082 NA
ATOM     13  O   UNL     1      -1.366   3.161  25.083  0.00  0.00    -0.357 OA
ATOM     14  C   UNL     1      -2.089   2.801  25.250  0.00  0.00    +0.165 A 
ATOM     23  C   UNL     1      -1.952   1.997  25.370  0.00  0.00    +0.054 A 
BRANCH  14  15
ATOM     15  C   UNL     1      -2.821   3.180  25.292  0.00  0.00    +0.129 C 
BRANCH  15  16
ATOM     16  S   UNL     1      -3.427   2.965  24.776  0.00  0.00    -0.105 S 
BRANCH  16  17
ATOM     17  C   UNL     1      -4.215   3.030  25.013  0.00  0.00    +0.026 A 
ATOM     18  C   UNL     1      -4.484   3.727  25.362  0.00  0.00    +0.006 A 
ATOM     19  C   UNL     1      -5.272   3.791  25.600  0.00  0.00    +0.001 A 
ATOM     20  C   UNL     1      -5.790   3.159  25.488  0.00  0.00    +0.000 A 
ATOM     21  C   UNL     1      -5.520   2.462  25.138  0.00  0.00    +0.001 A 
ATOM     22  C   UNL     1      -4.732   2.398  24.901  0.00  0.00    +0.006 A 
ENDBRANCH  16  17
ENDBRANCH  15  16
ENDBRANCH  14  15
ENDBRANCH  10  11
ENDBRANCH   9  10
TORSDOF 7
ENDMDL
MODEL 5
REMARK VINA RESULT:      -9.8      2.887      4.544
REMARK  Name = 
REMARK  7 active torsions:
REMARK  status: ('A' for Active; 'I' for Inactive)
REMARK    1  A    between atoms: C_2  and  C_3
REMARK    2  A    between atoms: C_3  and  C_4
REMARK    3  A    between atoms: C_9  and  C_10
REMARK    4  A    between atoms: C_10  and  C_11
REMARK    5  A    between atoms: C_14  and  C_15
REMARK    6  A    between atoms: C_15  and  S_16
REMARK    7  A    between atoms: S_16  and  C_17
REMARK                            x       y       z     vdW  Elec       q    Type
REMARK                         _______ _______ _______ _____ _____    ______ ____
ROOT
ATOM      4  C   UNL     1      -3.725  -0.186  24.567  0.00  0.00    +0.012 C 
ATOM      5  C   UNL     1      -4.362  -0.625  24.282  0.00  0.00    +0.019 C 
ATOM      6  C   UNL     1      -4.285  -1.439  24.169  0.00  0.00    +0.089 C 
ATOM      7  N   UNL     1      -3.570  -1.813  24.340  0.00  0.00    -0.218 NA
ATOM      8  C   UNL     1      -2.932  -1.373  24.625  0.00  0.00    +0.089 C 
ATOM      9  C   UNL     1      -3.010  -0.560  24.738  0.00  0.00    +0.024 C 
ENDROOT
BRANCH   4   3
ATOM      3  C   UNL     1      -3.801   0.628  24.680  0.00  0.00    +0.085 C 
BRANCH   3   2
ATOM      1  O   UNL     1      -5.031   0.424  25.379  0.00  0.00    -0.275 OA
ATOM      2  C   UNL     1      -4.484   0.933  25.029  0.00  0.00    +0.226 C 
ATOM     24  N   UNL     1      -4.620   1.747  25.028  0.00  0.00    -0.280 N 
ATOM     25  C   UNL     1      -5.303   2.052  25.376  0.00  0.00    +0.093 C 
ATOM     26  C   UNL     1      -5.439   2.865  25.375  0.00  0.00    +0.022 C 
ATOM     27  C   UNL     1      -4.892   3.375  25.026  0.00  0.00    +0.004 C 
ATOM     28  C   UNL     1      -4.209   3.070  24.677  0.00  0.00    +0.022 C 
ATOM     29  C   UNL     1      -4.073   2.255  24.678  0.00  0.00    +0.093 C 
ENDBRANCH   3   2
ENDBRANCH   4   3
BRANCH   9  10
ATOM     10  C   UNL     1      -2.371  -0.121  25.024  0.00  0.00    +0.051 C 
BRANCH  10  11
ATOM     11  C   UNL     1      -1.600  -0.385  24.899  0.00  0.00    +0.100 A 
ATOM     12  N   UNL     1      -1.157  -0.849  25.419  0.00  0.00    -0.082 NA
ATOM     13  O   UNL     1      -0.420  -0.983  25.075  0.00  0.00    -0.357 OA
ATOM     14  C   UNL     1      -0.407  -0.602  24.343  0.00  0.00    +0.165 A 
ATOM     23  C   UNL     1      -1.136  -0.233  24.235  0.00  0.00    +0.054 A 
BRANCH  14  15
ATOM     15  C   UNL     1       0.225  -0.593  23.812  0.00  0.00    +0.129 C 
BRANCH  15  16
ATOM     16  S   UNL     1       0.512   0.125  23.525  0.00  0.00    -0.105 S 
BRANCH  16  17
ATOM     17  C   UNL     1       1.220   0.147  23.101  0.00  0.00    +0.026 A 
ATOM     18  C   UNL     1       1.859   0.580  23.388  0.00  0.00    +0.006 A 
ATOM     19  C   UNL     1       2.567   0.602  22.964  0.00  0.00    +0.001 A 
ATOM     20  C   UNL     1       2.634   0.190  22.252  0.00  0.00    +0.000 A 
ATOM     21  C   UNL     1       1.994  -0.243  21.965  0.00  0.00    +0.001 A 
ATOM     22  C   UNL     1       1.287  -0.265  22.389  0.00  0.00    +0.006 A 
ENDBRANCH  16  17
ENDBRANCH  15  16
ENDBRANCH  14  15
ENDBRANCH  10  11
ENDBRANCH   9  10
TORSDOF 7
ENDMDL
MODEL 6
REMARK VINA RESULT:      -9.8      2.683      6.328
REMARK  Name = 
REMARK  7 active torsions:
REMARK  status: ('A' for Active; 'I' for Inactive)
REMARK    1  A    between atoms: C_2  and  C_3
REMARK    2  A    between atoms: C_3  and  C_4
REMARK    3  A    between atoms: C_9  and  C_10
REMARK    4  A    between atoms: C_10  and  C_11
REMARK    5  A    between atoms: C_14  and  C_15
REMARK    6  A    between atoms: C_15  and  S_16
REMARK    7  A    between atoms: S_16  and  C_17
REMARK                            x       y       z     vdW  Elec       q    Type
REMARK                         _______ _______ _______ _____ _____    ______ ____
ROOT
ATOM      4  C   UNL     1      -1.137  -0.795  24.514  0.00  0.00    +0.012 C 
ATOM      5  C   UNL     1      -0.773  -1.159  23.870  0.00  0.00    +0.019 C 
ATOM      6  C   UNL     1      -0.041  -0.888  23.602  0.00  0.00    +0.089 C 
ATOM      7  N   UNL     1       0.326  -0.252  23.978  0.00  0.00    -0.218 NA
ATOM      8  C   UNL     1      -0.039   0.112  24.623  0.00  0.00    +0.089 C 
ATOM      9  C   UNL     1      -0.770  -0.160  24.891  0.00  0.00    +0.024 C 
ENDROOT
BRANCH   4   3
ATOM      3  C   UNL     1      -1.869  -1.067  24.783  0.00  0.00    +0.085 C 
BRANCH   3   2
ATOM      1  O   UNL     1      -1.575  -2.456  24.626  0.00  0.00    -0.275 OA
ATOM      2  C   UNL     1      -2.115  -1.833  24.603  0.00  0.00    +0.226 C 
ATOM     24  N   UNL     1      -2.903  -1.977  24.401  0.00  0.00    -0.280 N 
ATOM     25  C   UNL     1      -3.149  -2.743  24.221  0.00  0.00    +0.093 C 
ATOM     26  C   UNL     1      -3.935  -2.887  24.019  0.00  0.00    +0.022 C 
ATOM     27  C   UNL     1      -4.476  -2.264  23.997  0.00  0.00    +0.004 C 
ATOM     28  C   UNL     1      -4.230  -1.498  24.176  0.00  0.00    +0.022 C 
ATOM     29  C   UNL     1      -3.443  -1.354  24.379  0.00  0.00    +0.093 C 
ENDBRANCH   3   2
ENDBRANCH   4   3
BRANCH   9  10
ATOM     10  C   UNL     1      -1.134   0.205  25.536  0.00  0.00    +0.051 C 
BRANCH  10  11
ATOM     11  C   UNL     1      -0.960   0.990  25.719  0.00  0.00    +0.100 A 
ATOM     12  N   UNL     1      -0.307   1.255  26.149  0.00  0.00    -0.082 NA
ATOM     13  O   UNL     1      -0.352   2.076  26.200  0.00  0.00    -0.357 OA
ATOM     14  C   UNL     1      -1.031   2.320  25.801  0.00  0.00    +0.165 A 
ATOM     23  C   UNL     1      -1.407   1.649  25.503  0.00  0.00    +0.054 A 
BRANCH  14  15
ATOM     15  C   UNL     1      -1.290   3.099  25.714  0.00  0.00    +0.129 C 
BRANCH  15  16
ATOM     16  S   UNL     1      -0.972   3.576  25.121  0.00  0.00    -0.105 S 
BRANCH  16  17
ATOM     17  C   UNL     1      -1.189   4.371  25.070  0.00  0.00    +0.026 A 
ATOM     18  C   UNL     1      -0.653   4.925  24.777  0.00  0.00    +0.006 A 
ATOM     19  C   UNL     1      -0.870   5.720  24.726  0.00  0.00    +0.001 A 
ATOM     20  C   UNL     1      -1.622   5.960  24.967  0.00  0.00    +0.000 A 
ATOM     21  C   UNL     1      -2.157   5.404  25.259  0.00  0.00    +0.001 A 
ATOM     22  C   UNL     1      -1.940   4.610  25.311  0.00  0.00    +0.006 A 
ENDBRANCH  16  17
ENDBRANCH  15  16
ENDBRANCH  14  15
ENDBRANCH  10  11
ENDBRANCH   9  10
TORSDOF 7
ENDMDL
MODEL 7
REMARK VINA RESULT:      -9.6      1.919      5.196
REMARK  Name = 
REMARK  7 active torsions:
REMARK  status: ('A' for Active; 'I' for Inactive)
REMARK    1  A    between atoms: C_2  and  C_3
REMARK    2  A    between atoms: C_3  and  C_4
REMARK    3  A    between atoms: C_9  and  C_10
REMARK    4  A    between atoms: C_10  and  C_11
REMARK    5  A    between atoms: C_14  and  C_15
REMARK    6  A    between atoms: C_15  and  S_16
REMARK    7  A    between atoms: S_16  and  C_17
REMARK                            x       y       z     vdW  Elec       q    Type
REMARK                         _______ _______ _______ _____ _____    ______ ____
ROOT
ATOM      4  C   UNL     1      -3.312  -0.128  24.899  0.00  0.00    +0.012 C 
ATOM      5  C   UNL     1      -3.608  -0.639  25.475  0.00  0.00    +0.019 C 
ATOM      6  C   UNL     1      -3.152  -1.275  25.737  0.00  0.00    +0.089 C 
ATOM      7  N   UNL     1      -2.400  -1.400  25.422  0.00  0.00    -0.218 NA
ATOM      8  C   UNL     1      -2.103  -0.889  24.845  0.00  0.00    +0.089 C 
ATOM      9  C   UNL     1      -2.560  -0.253  24.584  0.00  0.00    +0.024 C 
ENDROOT
BRANCH   4   3
ATOM      3  C   UNL     1      -3.767   0.508  24.637  0.00  0.00    +0.085 C 
BRANCH   3   2
ATOM      1  O   UNL     1      -5.008  -0.197  24.714  0.00  0.00    -0.275 OA
ATOM      2  C   UNL     1      -4.583   0.508  24.760  0.00  0.00    +0.226 C 
ATOM     24  N   UNL     1      -4.975   1.215  24.928  0.00  0.00    -0.280 N 
ATOM     25  C   UNL     1      -5.791   1.216  25.051  0.00  0.00    +0.093 C 
ATOM     26  C   UNL     1      -6.182   1.922  25.219  0.00  0.00    +0.022 C 
ATOM     27  C   UNL     1      -5.758   2.628  25.266  0.00  0.00    +0.004 C 
ATOM     28  C   UNL     1      -4.942   2.628  25.143  0.00  0.00    +0.022 C 
ATOM     29  C   UNL     1      -4.550   1.921  24.974  0.00  0.00    +0.093 C 
ENDBRANCH   3   2
ENDBRANCH   4   3
BRANCH   9  10
ATOM     10  C   UNL     1      -2.263   0.258  24.008  0.00  0.00    +0.051 C 
BRANCH  10  11
ATOM     11  C   UNL     1      -1.604   0.727  24.171  0.00  0.00    +0.100 A 
ATOM     12  N   UNL     1      -0.839   0.454  24.318  0.00  0.00    -0.082 NA
ATOM     13  O   UNL     1      -0.358   1.109  24.455  0.00  0.00    -0.357 OA
ATOM     14  C   UNL     1      -0.824   1.787  24.392  0.00  0.00    +0.165 A 
ATOM     23  C   UNL     1      -1.595   1.550  24.217  0.00  0.00    +0.054 A 
BRANCH  14  15
ATOM     15  C   UNL     1      -0.566   2.565  24.488  0.00  0.00    +0.129 C 
BRANCH  15  16
ATOM     16  S   UNL     1      -0.761   2.983  25.170  0.00  0.00    -0.105 S 
BRANCH  16  17
ATOM     17  C   UNL     1      -0.947   3.786  25.124  0.00  0.00    +0.026 A 
ATOM     18  C   UNL     1      -1.647   4.067  25.457  0.00  0.00    +0.006 A 
ATOM     19  C   UNL     1      -1.833   4.869  25.410  0.00  0.00    +0.001 A 
ATOM     20  C   UNL     1      -1.319   5.391  25.030  0.00  0.00    +0.000 A 
ATOM     21  C   UNL     1      -0.618   5.109  24.697  0.00  0.00    +0.001 A 
ATOM     22  C   UNL     1      -0.433   4.307  24.744  0.00  0.00    +0.006 A 
ENDBRANCH  16  17
ENDBRANCH  15  16
ENDBRANCH  14  15
ENDBRANCH  10  11
ENDBRANCH   9  10
TORSDOF 7
ENDMDL
MODEL 8
REMARK VINA RESULT:      -9.6      2.762      4.430
REMARK  Name = 
REMARK  7 active torsions:
REMARK  status: ('A' for Active; 'I' for Inactive)
REMARK    1  A    between atoms: C_2  and  C_3
REMARK    2  A    between atoms: C_3  and  C_4
REMARK    3  A    between atoms: C_9  and  C_10
REMARK    4  A    between atoms: C_10  and  C_11
REMARK    5  A    between atoms: C_14  and  C_15
REMARK    6  A    between atoms: C_15  and  S_16
REMARK    7  A    between atoms: S_16  and  C_17
REMARK                            x       y       z     vdW  Elec       q    Type
REMARK                         _______ _______ _______ _____ _____    ______ ____
ROOT
ATOM      4  C   UNL     1      -2.326   3.743  25.278  0.00  0.00    +0.012 C 
ATOM      5  C   UNL     1      -2.495   4.544  25.183  0.00  0.00    +0.019 C 
ATOM      6  C   UNL     1      -1.883   5.097  25.166  0.00  0.00    +0.089 C 
ATOM      7  N   UNL     1      -1.100   4.847  25.245  0.00  0.00    -0.218 NA
ATOM      8  C   UNL     1      -0.930   4.045  25.340  0.00  0.00    +0.089 C 
ATOM      9  C   UNL     1      -1.544   3.493  25.357  0.00  0.00    +0.024 C 
ENDROOT
BRANCH   4   3
ATOM      3  C   UNL     1      -2.938   3.190  25.295  0.00  0.00    +0.085 C 
BRANCH   3   2
ATOM      1  O   UNL     1      -3.742   4.054  26.101  0.00  0.00    -0.275 OA
ATOM      2  C   UNL     1      -3.674   3.400  25.603  0.00  0.00    +0.226 C 
ATOM     24  N   UNL     1      -4.344   2.955  25.414  0.00  0.00    -0.280 N 
ATOM     25  C   UNL     1      -5.079   3.165  25.723  0.00  0.00    +0.093 C 
ATOM     26  C   UNL     1      -5.747   2.720  25.534  0.00  0.00    +0.022 C 
ATOM     27  C   UNL     1      -5.681   2.065  25.036  0.00  0.00    +0.004 C 
ATOM     28  C   UNL     1      -4.945   1.855  24.728  0.00  0.00    +0.022 C 
ATOM     29  C   UNL     1      -4.276   2.300  24.917  0.00  0.00    +0.093 C 
ENDBRANCH   3   2
ENDBRANCH   4   3
BRANCH   9  10
ATOM     10  C   UNL     1      -1.374   2.691  25.453  0.00  0.00    +0.051 C 
BRANCH  10  11
ATOM     11  C   UNL     1      -0.651   2.389  25.195  0.00  0.00    +0.100 A 
ATOM     12  N   UNL     1       0.041   2.339  25.642  0.00  0.00    -0.082 NA
ATOM     13  O   UNL     1       0.627   2.003  25.168  0.00  0.00    -0.357 OA
ATOM     14  C   UNL     1       0.297   1.844  24.429  0.00  0.00    +0.165 A 
ATOM     23  C   UNL     1      -0.492   2.083  24.445  0.00  0.00    +0.054 A 
BRANCH  14  15
ATOM     15  C   UNL     1       0.688   1.506  23.785  0.00  0.00    +0.129 C 
BRANCH  15  16
ATOM     16  S   UNL     1       0.987   0.740  23.840  0.00  0.00    -0.105 S 
BRANCH  16  17
ATOM     17  C   UNL     1       1.423   0.421  23.216  0.00  0.00    +0.026 A 
ATOM     18  C   UNL     1       1.050  -0.053  22.654  0.00  0.00    +0.006 A 
ATOM     19  C   UNL     1       1.486  -0.372  22.029  0.00  0.00    +0.001 A 
ATOM     20  C   UNL     1       2.294  -0.217  21.969  0.00  0.00    +0.000 A 
ATOM     21  C   UNL     1       2.666   0.257  22.532  0.00  0.00    +0.001 A 
ATOM     22  C   UNL     1       2.230   0.576  23.156  0.00  0.00    +0.006 A 
ENDBRANCH  16  17
ENDBRANCH  15  16
ENDBRANCH  14  15
ENDBRANCH  10  11
ENDBRANCH   9  10
TORSDOF 7
ENDMDL
MODEL 9
REMARK VINA RESULT:      -9.3      2.182      4.971
REMARK  Name = 
REMARK  7 active torsions:
REMARK  status: ('A' for Active; 'I' for Inactive)
REMARK    1  A    between atoms: C_2  and  C_3
REMARK    2  A    between atoms: C_3  and  C_4
REMARK    3  A    between atoms: C_9  and  C_10
REMARK    4  A    between atoms: C_10  and  C_11
REMARK    5  A    between atoms: C_14  and  C_15
REMARK    6  A    between atoms: C_15  and  S_16
REMARK    7  A    between atoms: S_16  and  C_17
REMARK                            x       y       z     vdW  Elec       q    Type
REMARK                         _______ _______ _______ _____ _____    ______ ____
ROOT
ATOM      4  C   UNL     1      -2.724  -0.452  24.920  0.00  0.00    +0.012 C 
ATOM      5  C   UNL     1      -2.623  -1.073  25.453  0.00  0.00    +0.019 C 
ATOM      6  C   UNL     1      -3.252  -1.315  25.929  0.00  0.00    +0.089 C 
ATOM      7  N   UNL     1      -3.983  -0.936  25.872  0.00  0.00    -0.218 NA
ATOM      8  C   UNL     1      -4.084  -0.315  25.338  0.00  0.00    +0.089 C 
ATOM      9  C   UNL     1      -3.455  -0.073  24.862  0.00  0.00    +0.024 C 
ENDROOT
BRANCH   4   3
ATOM      3  C   UNL     1      -2.096  -0.210  24.444  0.00  0.00    +0.085 C 
BRANCH   3   2
ATOM      1  O   UNL     1      -1.509  -1.512  24.501  0.00  0.00    -0.275 OA
ATOM      2  C   UNL     1      -1.446  -0.707  24.335  0.00  0.00    +0.226 C 
ATOM     24  N   UNL     1      -0.731  -0.398  24.060  0.00  0.00    -0.280 N 
ATOM     25  C   UNL     1      -0.081  -0.894  23.952  0.00  0.00    +0.093 C 
ATOM     26  C   UNL     1       0.632  -0.585  23.678  0.00  0.00    +0.022 C 
ATOM     27  C   UNL     1       0.697   0.220  23.511  0.00  0.00    +0.004 C 
ATOM     28  C   UNL     1       0.047   0.717  23.620  0.00  0.00    +0.022 C 
ATOM     29  C   UNL     1      -0.668   0.408  23.894  0.00  0.00    +0.093 C 
ENDBRANCH   3   2
ENDBRANCH   4   3
BRANCH   9  10
ATOM     10  C   UNL     1      -3.557   0.548  24.328  0.00  0.00    +0.051 C 
BRANCH  10  11
ATOM     11  C   UNL     1      -3.714   1.309  24.606  0.00  0.00    +0.100 A 
ATOM     12  N   UNL     1      -4.415   1.560  24.963  0.00  0.00    -0.082 NA
ATOM     13  O   UNL     1      -4.332   2.358  25.152  0.00  0.00    -0.357 OA
ATOM     14  C   UNL     1      -3.581   2.601  24.913  0.00  0.00    +0.165 A 
ATOM     23  C   UNL     1      -3.199   1.953  24.575  0.00  0.00    +0.054 A 
BRANCH  14  15
ATOM     15  C   UNL     1      -3.267   3.359  24.996  0.00  0.00    +0.129 C 
BRANCH  15  16
ATOM     16  S   UNL     1      -2.613   3.484  25.482  0.00  0.00    -0.105 S 
BRANCH  16  17
ATOM     17  C   UNL     1      -2.086   4.098  25.317  0.00  0.00    +0.026 A 
ATOM     18  C   UNL     1      -2.349   4.880  25.327  0.00  0.00    +0.006 A 
ATOM     19  C   UNL     1      -1.822   5.493  25.162  0.00  0.00    +0.001 A 
ATOM     20  C   UNL     1      -1.033   5.325  24.987  0.00  0.00    +0.000 A 
ATOM     21  C   UNL     1      -0.772   4.542  24.977  0.00  0.00    +0.001 A 
ATOM     22  C   UNL     1      -1.299   3.929  25.142  0.00  0.00    +0.006 A 
ENDBRANCH  16  17
ENDBRANCH  15  16
ENDBRANCH  14  15
ENDBRANCH  10  11
ENDBRANCH   9  10
TORSDOF 7
ENDMDL
