MODEL 1
REMARK VINA RESULT:      -9.4      0.000      0.000
REMARK  Name = 
REMARK  3 active torsions:
REMARK  status: ('A' for Active; 'I' for Inactive)
REMARK    1  A    between atoms: N_3  and  C_4
REMARK    2  A    between atoms: C_8  and  N_12
REMARK    3  A    between atoms: C_15  and  C_19
REMARK                            x       y       z     vdW  Elec       q    Type
REMARK                         _______ _______ _______ _____ _____    ______ ____
ROOT
ATOM      4  C   UNL     1       0.292   0.706  23.957  0.00  0.00    +0.156 C 
ATOM      5  C   UNL     1      -0.149   0.010  23.991  0.00  0.00    +0.166 C 
ATOM      6  O   UNL     1      -0.885   0.190  24.314  0.00  0.00    -0.350 OA
ATOM      7  C   UNL     1      -0.900   0.997  24.481  0.00  0.00    +0.166 C 
ATOM      8  C   UNL     1      -1.364   1.609  24.784  0.00  0.00    +0.154 C 
ATOM      9  C   UNL     1      -0.923   2.305  24.750  0.00  0.00    +0.166 C 
ATOM     10  O   UNL     1      -0.186   2.124  24.427  0.00  0.00    -0.350 OA
ATOM     11  C   UNL     1      -0.172   1.316  24.260  0.00  0.00    +0.166 C 
ENDROOT
BRANCH   4   3
ATOM      1  O   UNL     1       0.804  -0.248  22.711  0.00  0.00    -0.251 OA
ATOM      2  C   UNL     1       1.318   0.302  23.048  0.00  0.00    +0.323 C 
ATOM      3  N   UNL     1       1.063   0.778  23.671  0.00  0.00    -0.185 NA
ATOM     24  N   UNL     1       2.089   0.375  22.762  0.00  0.00    -0.258 N 
ATOM     25  C   UNL     1       2.344  -0.102  22.139  0.00  0.00    +0.127 C 
ATOM     26  C   UNL     1       3.114  -0.029  21.853  0.00  0.00    +0.164 C 
ATOM     27  O   UNL     1       3.630   0.520  22.190  0.00  0.00    -0.350 OA
ATOM     28  C   UNL     1       3.374   0.997  22.813  0.00  0.00    +0.164 C 
ATOM     29  C   UNL     1       2.604   0.924  23.099  0.00  0.00    +0.127 C 
ENDBRANCH   4   3
BRANCH   8  12
ATOM     12  N   UNL     1      -2.135   1.536  25.070  0.00  0.00    -0.200 NA
ATOM     13  C   UNL     1      -2.739   1.997  24.749  0.00  0.00    +0.237 A 
ATOM     14  N   UNL     1      -3.509   1.924  25.035  0.00  0.00    -0.212 NA
ATOM     15  C   UNL     1      -4.114   2.385  24.714  0.00  0.00    +0.092 A 
ATOM     16  C   UNL     1      -3.948   2.918  24.107  0.00  0.00    +0.040 A 
ATOM     17  C   UNL     1      -3.177   2.991  23.820  0.00  0.00    +0.103 A 
ATOM     18  N   UNL     1      -2.573   2.530  24.142  0.00  0.00    -0.211 NA
BRANCH  15  19
ATOM     19  C   UNL     1      -4.884   2.312  24.999  0.00  0.00    +0.047 A 
ATOM     20  C   UNL     1      -5.426   1.725  24.792  0.00  0.00    +0.009 A 
ATOM     21  C   UNL     1      -6.124   1.864  25.207  0.00  0.00    +0.008 A 
ATOM     22  C   UNL     1      -6.015   2.537  25.671  0.00  0.00    +0.035 A 
ATOM     23  S   UNL     1      -5.249   2.814  25.543  0.00  0.00    -0.085 S 
ENDBRANCH  15  19
ENDBRANCH   8  12
TORSDOF 3
ENDMDL
MODEL 2
REMARK VINA RESULT:      -8.4      2.252      6.528
REMARK  Name = 
REMARK  3 active torsions:
REMARK  status: ('A' for Active; 'I' for Inactive)
REMARK    1  A    between atoms: N_3  and  C_4
REMARK    2  A    between atoms: C_8  and  N_12
REMARK    3  A    between atoms: C_15  and  C_19
REMARK                            x       y       z     vdW  Elec       q    Type
REMARK                         _______ _______ _______ _____ _____    ______ ____
ROOT
ATOM      4  C   UNL     1      -2.108   2.180  24.478  0.00  0.00    +0.156 C 
ATOM      5  C   UNL     1      -1.711   2.885  24.316  0.00  0.00    +0.166 C 
ATOM      6  O   UNL     1      -0.910   2.711  24.226  0.00  0.00    -0.350 OA
ATOM      7  C   UNL     1      -0.811   1.900  24.333  0.00  0.00    +0.166 C 
ATOM      8  C   UNL     1      -0.255   1.290  24.344  0.00  0.00    +0.154 C 
ATOM      9  C   UNL     1      -0.652   0.585  24.506  0.00  0.00    +0.166 C 
ATOM     10  O   UNL     1      -1.453   0.759  24.595  0.00  0.00    -0.350 OA
ATOM     11  C   UNL     1      -1.551   1.571  24.488  0.00  0.00    +0.166 C 
ENDROOT
BRANCH   4   3
ATOM      1  O   UNL     1      -2.935   3.348  25.300  0.00  0.00    -0.251 OA
ATOM      2  C   UNL     1      -3.332   2.682  25.017  0.00  0.00    +0.323 C 
ATOM      3  N   UNL     1      -2.919   2.098  24.606  0.00  0.00    -0.185 NA
ATOM     24  N   UNL     1      -4.143   2.600  25.146  0.00  0.00    -0.258 N 
ATOM     25  C   UNL     1      -4.556   3.184  25.557  0.00  0.00    +0.127 C 
ATOM     26  C   UNL     1      -5.367   3.102  25.685  0.00  0.00    +0.164 C 
ATOM     27  O   UNL     1      -5.765   2.437  25.403  0.00  0.00    -0.350 OA
ATOM     28  C   UNL     1      -5.351   1.853  24.992  0.00  0.00    +0.164 C 
ATOM     29  C   UNL     1      -4.540   1.935  24.863  0.00  0.00    +0.127 C 
ENDBRANCH   4   3
BRANCH   8  12
ATOM     12  N   UNL     1       0.556   1.372  24.215  0.00  0.00    -0.200 NA
ATOM     13  C   UNL     1       0.941   0.874  23.681  0.00  0.00    +0.237 A 
ATOM     14  N   UNL     1       1.752   0.956  23.552  0.00  0.00    -0.212 NA
ATOM     15  C   UNL     1       2.137   0.459  23.018  0.00  0.00    +0.092 A 
ATOM     16  C   UNL     1       1.711  -0.120  22.613  0.00  0.00    +0.040 A 
ATOM     17  C   UNL     1       0.900  -0.202  22.742  0.00  0.00    +0.103 A 
ATOM     18  N   UNL     1       0.516   0.296  23.276  0.00  0.00    -0.211 NA
BRANCH  15  19
ATOM     19  C   UNL     1       2.947   0.540  22.890  0.00  0.00    +0.047 A 
ATOM     20  C   UNL     1       3.344   1.244  22.722  0.00  0.00    +0.009 A 
ATOM     21  C   UNL     1       4.145   1.071  22.634  0.00  0.00    +0.008 A 
ATOM     22  C   UNL     1       4.245   0.261  22.748  0.00  0.00    +0.035 A 
ATOM     23  S   UNL     1       3.504  -0.068  22.906  0.00  0.00    -0.085 S 
ENDBRANCH  15  19
ENDBRANCH   8  12
TORSDOF 3
ENDMDL
MODEL 3
REMARK VINA RESULT:      -7.2      1.856      2.583
REMARK  Name = 
REMARK  3 active torsions:
REMARK  status: ('A' for Active; 'I' for Inactive)
REMARK    1  A    between atoms: N_3  and  C_4
REMARK    2  A    between atoms: C_8  and  N_12
REMARK    3  A    between atoms: C_15  and  C_19
REMARK                            x       y       z     vdW  Elec       q    Type
REMARK                         _______ _______ _______ _____ _____    ______ ____
ROOT
ATOM      4  C   UNL     1       2.054   0.320  22.985  0.00  0.00    +0.156 C 
ATOM      5  C   UNL     1       1.683  -0.216  22.480  0.00  0.00    +0.166 C 
ATOM      6  O   UNL     1       0.869  -0.148  22.590  0.00  0.00    -0.350 OA
ATOM      7  C   UNL     1       0.736   0.430  23.162  0.00  0.00    +0.166 C 
ATOM      8  C   UNL     1       0.151   0.830  23.585  0.00  0.00    +0.154 C 
ATOM      9  C   UNL     1       0.522   1.367  24.090  0.00  0.00    +0.166 C 
ATOM     10  O   UNL     1       1.336   1.298  23.980  0.00  0.00    -0.350 OA
ATOM     11  C   UNL     1       1.469   0.720  23.406  0.00  0.00    +0.166 C 
ENDROOT
BRANCH   4   3
ATOM      1  O   UNL     1       3.040  -0.948  23.362  0.00  0.00    -0.251 OA
ATOM      2  C   UNL     1       3.360  -0.197  23.244  0.00  0.00    +0.323 C 
ATOM      3  N   UNL     1       2.868   0.437  23.055  0.00  0.00    -0.185 NA
ATOM     24  N   UNL     1       4.174  -0.081  23.315  0.00  0.00    -0.258 N 
ATOM     25  C   UNL     1       4.667  -0.715  23.504  0.00  0.00    +0.127 C 
ATOM     26  C   UNL     1       5.480  -0.599  23.574  0.00  0.00    +0.164 C 
ATOM     27  O   UNL     1       5.802   0.152  23.456  0.00  0.00    -0.350 OA
ATOM     28  C   UNL     1       5.309   0.786  23.267  0.00  0.00    +0.164 C 
ATOM     29  C   UNL     1       4.495   0.670  23.197  0.00  0.00    +0.127 C 
ENDBRANCH   4   3
BRANCH   8  12
ATOM     12  N   UNL     1      -0.663   0.714  23.514  0.00  0.00    -0.200 NA
ATOM     13  C   UNL     1      -1.102   0.462  24.166  0.00  0.00    +0.237 A 
ATOM     14  N   UNL     1      -1.916   0.346  24.095  0.00  0.00    -0.212 NA
ATOM     15  C   UNL     1      -2.355   0.094  24.747  0.00  0.00    +0.092 A 
ATOM     16  C   UNL     1      -1.980  -0.041  25.469  0.00  0.00    +0.040 A 
ATOM     17  C   UNL     1      -1.166   0.075  25.540  0.00  0.00    +0.103 A 
ATOM     18  N   UNL     1      -0.728   0.327  24.888  0.00  0.00    -0.211 NA
BRANCH  15  19
ATOM     19  C   UNL     1      -3.168  -0.022  24.676  0.00  0.00    +0.047 A 
ATOM     20  C   UNL     1      -3.542  -0.734  24.490  0.00  0.00    +0.009 A 
ATOM     21  C   UNL     1      -4.355  -0.599  24.479  0.00  0.00    +0.008 A 
ATOM     22  C   UNL     1      -4.484   0.195  24.657  0.00  0.00    +0.035 A 
ATOM     23  S   UNL     1      -3.751   0.552  24.780  0.00  0.00    -0.085 S 
ENDBRANCH  15  19
ENDBRANCH   8  12
TORSDOF 3
ENDMDL
MODEL 4
REMARK VINA RESULT:      -6.9     15.262     16.188
REMARK  Name = 
REMARK  3 active torsions:
REMARK  status: ('A' for Active; 'I' for Inactive)
REMARK    1  A    between atoms: N_3  and  C_4
REMARK    2  A    between atoms: C_8  and  N_12
REMARK    3  A    between atoms: C_15  and  C_19
REMARK                            x       y       z     vdW  Elec       q    Type
REMARK                         _______ _______ _______ _____ _____    ______ ____
ROOT
ATOM      4  C   UNL     1      -5.424  -9.600  12.450  0.00  0.00    +0.156 C 
ATOM      5  C   UNL     1      -6.165  -9.293  12.643  0.00  0.00    +0.166 C 
ATOM      6  O   UNL     1      -6.340  -9.520  13.416  0.00  0.00    -0.350 OA
ATOM      7  C   UNL     1      -5.709  -9.967  13.701  0.00  0.00    +0.166 C 
ATOM      8  C   UNL     1      -5.426 -10.384  14.354  0.00  0.00    +0.154 C 
ATOM      9  C   UNL     1      -4.685 -10.691  14.161  0.00  0.00    +0.166 C 
ATOM     10  O   UNL     1      -4.510 -10.464  13.388  0.00  0.00    -0.350 OA
ATOM     11  C   UNL     1      -5.142 -10.016  13.103  0.00  0.00    +0.166 C 
ENDROOT
BRANCH   4   3
ATOM      1  O   UNL     1      -6.283  -9.255  11.084  0.00  0.00    -0.251 OA
ATOM      2  C   UNL     1      -5.463  -9.334  11.046  0.00  0.00    +0.323 C 
ATOM      3  N   UNL     1      -5.033  -9.506  11.729  0.00  0.00    -0.185 NA
ATOM     24  N   UNL     1      -5.072  -9.240  10.325  0.00  0.00    -0.258 N 
ATOM     25  C   UNL     1      -5.502  -9.068   9.643  0.00  0.00    +0.127 C 
ATOM     26  C   UNL     1      -5.112  -8.975   8.922  0.00  0.00    +0.164 C 
ATOM     27  O   UNL     1      -4.291  -9.053   8.884  0.00  0.00    -0.350 OA
ATOM     28  C   UNL     1      -3.862  -9.226   9.567  0.00  0.00    +0.164 C 
ATOM     29  C   UNL     1      -4.252  -9.319  10.288  0.00  0.00    +0.127 C 
ENDBRANCH   4   3
BRANCH   8  12
ATOM     12  N   UNL     1      -5.817 -10.477  15.075  0.00  0.00    -0.200 NA
ATOM     13  C   UNL     1      -5.395 -10.426  15.783  0.00  0.00    +0.237 A 
ATOM     14  N   UNL     1      -5.785 -10.520  16.503  0.00  0.00    -0.212 NA
ATOM     15  C   UNL     1      -5.364 -10.469  17.211  0.00  0.00    +0.092 A 
ATOM     16  C   UNL     1      -4.552 -10.324  17.197  0.00  0.00    +0.040 A 
ATOM     17  C   UNL     1      -4.161 -10.231  16.476  0.00  0.00    +0.103 A 
ATOM     18  N   UNL     1      -4.583 -10.282  15.769  0.00  0.00    -0.211 NA
BRANCH  15  19
ATOM     19  C   UNL     1      -5.754 -10.562  17.931  0.00  0.00    +0.047 A 
ATOM     20  C   UNL     1      -5.399 -10.738  18.655  0.00  0.00    +0.009 A 
ATOM     21  C   UNL     1      -5.993 -10.781  19.226  0.00  0.00    +0.008 A 
ATOM     22  C   UNL     1      -6.714 -10.631  18.855  0.00  0.00    +0.035 A 
ATOM     23  S   UNL     1      -6.566 -10.496  18.055  0.00  0.00    -0.085 S 
ENDBRANCH  15  19
ENDBRANCH   8  12
TORSDOF 3
ENDMDL
MODEL 5
REMARK VINA RESULT:      -6.4      2.354      6.431
REMARK  Name = 
REMARK  3 active torsions:
REMARK  status: ('A' for Active; 'I' for Inactive)
REMARK    1  A    between atoms: N_3  and  C_4
REMARK    2  A    between atoms: C_8  and  N_12
REMARK    3  A    between atoms: C_15  and  C_19
REMARK                            x       y       z     vdW  Elec       q    Type
REMARK                         _______ _______ _______ _____ _____    ______ ____
ROOT
ATOM      4  C   UNL     1      -1.510   1.380  24.914  0.00  0.00    +0.156 C 
ATOM      5  C   UNL     1      -1.075   1.166  25.581  0.00  0.00    +0.166 C 
ATOM      6  O   UNL     1      -0.276   1.172  25.377  0.00  0.00    -0.350 OA
ATOM      7  C   UNL     1      -0.217   1.391  24.584  0.00  0.00    +0.166 C 
ATOM      8  C   UNL     1       0.313   1.530  23.967  0.00  0.00    +0.154 C 
ATOM      9  C   UNL     1      -0.122   1.745  23.300  0.00  0.00    +0.166 C 
ATOM     10  O   UNL     1      -0.921   1.738  23.505  0.00  0.00    -0.350 OA
ATOM     11  C   UNL     1      -0.980   1.519  24.298  0.00  0.00    +0.166 C 
ENDROOT
BRANCH   4   3
ATOM      1  O   UNL     1      -2.459   0.070  25.239  0.00  0.00    -0.251 OA
ATOM      2  C   UNL     1      -2.806   0.789  25.034  0.00  0.00    +0.323 C 
ATOM      3  N   UNL     1      -2.332   1.445  24.871  0.00  0.00    -0.185 NA
ATOM     24  N   UNL     1      -3.628   0.854  24.991  0.00  0.00    -0.258 N 
ATOM     25  C   UNL     1      -4.102   0.198  25.153  0.00  0.00    +0.127 C 
ATOM     26  C   UNL     1      -4.922   0.263  25.110  0.00  0.00    +0.164 C 
ATOM     27  O   UNL     1      -5.270   0.982  24.904  0.00  0.00    -0.350 OA
ATOM     28  C   UNL     1      -4.796   1.638  24.742  0.00  0.00    +0.164 C 
ATOM     29  C   UNL     1      -3.974   1.573  24.785  0.00  0.00    +0.127 C 
ENDBRANCH   4   3
BRANCH   8  12
ATOM     12  N   UNL     1       1.134   1.466  24.010  0.00  0.00    -0.200 NA
ATOM     13  C   UNL     1       1.537   0.963  23.494  0.00  0.00    +0.237 A 
ATOM     14  N   UNL     1       2.358   0.899  23.537  0.00  0.00    -0.212 NA
ATOM     15  C   UNL     1       2.760   0.397  23.021  0.00  0.00    +0.092 A 
ATOM     16  C   UNL     1       2.341  -0.042  22.462  0.00  0.00    +0.040 A 
ATOM     17  C   UNL     1       1.519   0.023  22.419  0.00  0.00    +0.103 A 
ATOM     18  N   UNL     1       1.118   0.525  22.935  0.00  0.00    -0.211 NA
BRANCH  15  19
ATOM     19  C   UNL     1       3.581   0.332  23.064  0.00  0.00    +0.047 A 
ATOM     20  C   UNL     1       4.001  -0.256  23.462  0.00  0.00    +0.009 A 
ATOM     21  C   UNL     1       4.806  -0.107  23.360  0.00  0.00    +0.008 A 
ATOM     22  C   UNL     1       4.884   0.572  22.900  0.00  0.00    +0.035 A 
ATOM     23  S   UNL     1       4.126   0.844  22.717  0.00  0.00    -0.085 S 
ENDBRANCH  15  19
ENDBRANCH   8  12
TORSDOF 3
ENDMDL
MODEL 6
REMARK VINA RESULT:      -6.1     15.370     16.016
REMARK  Name = 
REMARK  3 active torsions:
REMARK  status: ('A' for Active; 'I' for Inactive)
REMARK    1  A    between atoms: N_3  and  C_4
REMARK    2  A    between atoms: C_8  and  N_12
REMARK    3  A    between atoms: C_15  and  C_19
REMARK                            x       y       z     vdW  Elec       q    Type
REMARK                         _______ _______ _______ _____ _____    ______ ____
ROOT
ATOM      4  C   UNL     1      -6.614  -9.747  12.874  0.00  0.00    +0.156 C 
ATOM      5  C   UNL     1      -7.381  -9.539  12.653  0.00  0.00    +0.166 C 
ATOM      6  O   UNL     1      -7.875  -9.662  13.302  0.00  0.00    -0.350 OA
ATOM      7  C   UNL     1      -7.415  -9.945  13.924  0.00  0.00    +0.166 C 
ATOM      8  C   UNL     1      -7.434 -10.197  14.709  0.00  0.00    +0.154 C 
ATOM      9  C   UNL     1      -6.667 -10.405  14.931  0.00  0.00    +0.166 C 
ATOM     10  O   UNL     1      -6.173 -10.282  14.282  0.00  0.00    -0.350 OA
ATOM     11  C   UNL     1      -6.635  -9.998  13.659  0.00  0.00    +0.166 C 
ENDROOT
BRANCH   4   3
ATOM      1  O   UNL     1      -6.516  -8.615  11.678  0.00  0.00    -0.251 OA
ATOM      2  C   UNL     1      -5.895  -9.145  11.796  0.00  0.00    +0.323 C 
ATOM      3  N   UNL     1      -5.944  -9.711  12.394  0.00  0.00    -0.185 NA
ATOM     24  N   UNL     1      -5.225  -9.108  11.316  0.00  0.00    -0.258 N 
ATOM     25  C   UNL     1      -5.177  -8.542  10.718  0.00  0.00    +0.127 C 
ATOM     26  C   UNL     1      -4.507  -8.505  10.238  0.00  0.00    +0.164 C 
ATOM     27  O   UNL     1      -3.885  -9.035  10.356  0.00  0.00    -0.350 OA
ATOM     28  C   UNL     1      -3.934  -9.601  10.954  0.00  0.00    +0.164 C 
ATOM     29  C   UNL     1      -4.604  -9.638  11.434  0.00  0.00    +0.127 C 
ENDBRANCH   4   3
BRANCH   8  12
ATOM     12  N   UNL     1      -8.104 -10.233  15.190  0.00  0.00    -0.200 NA
ATOM     13  C   UNL     1      -8.086  -9.913  15.950  0.00  0.00    +0.237 A 
ATOM     14  N   UNL     1      -8.755  -9.950  16.430  0.00  0.00    -0.212 NA
ATOM     15  C   UNL     1      -8.736  -9.630  17.190  0.00  0.00    +0.092 A 
ATOM     16  C   UNL     1      -8.047  -9.274  17.470  0.00  0.00    +0.040 A 
ATOM     17  C   UNL     1      -7.377  -9.237  16.990  0.00  0.00    +0.103 A 
ATOM     18  N   UNL     1      -7.396  -9.557  16.230  0.00  0.00    -0.211 NA
BRANCH  15  19
ATOM     19  C   UNL     1      -9.405  -9.667  17.670  0.00  0.00    +0.047 A 
ATOM     20  C   UNL     1     -10.040  -9.139  17.658  0.00  0.00    +0.009 A 
ATOM     21  C   UNL     1     -10.585  -9.383  18.227  0.00  0.00    +0.008 A 
ATOM     22  C   UNL     1     -10.288 -10.061  18.591  0.00  0.00    +0.035 A 
ATOM     23  S   UNL     1      -9.559 -10.236  18.246  0.00  0.00    -0.085 S 
ENDBRANCH  15  19
ENDBRANCH   8  12
TORSDOF 3
ENDMDL
MODEL 7
REMARK VINA RESULT:      -6.1     16.177     17.120
REMARK  Name = 
REMARK  3 active torsions:
REMARK  status: ('A' for Active; 'I' for Inactive)
REMARK    1  A    between atoms: N_3  and  C_4
REMARK    2  A    between atoms: C_8  and  N_12
REMARK    3  A    between atoms: C_15  and  C_19
REMARK                            x       y       z     vdW  Elec       q    Type
REMARK                         _______ _______ _______ _____ _____    ______ ____
ROOT
ATOM      4  C   UNL     1      -6.645  -9.086  11.463  0.00  0.00    +0.156 C 
ATOM      5  C   UNL     1      -5.849  -8.870  11.469  0.00  0.00    +0.166 C 
ATOM      6  O   UNL     1      -5.505  -9.190  12.147  0.00  0.00    -0.350 OA
ATOM      7  C   UNL     1      -6.086  -9.603  12.560  0.00  0.00    +0.166 C 
ATOM      8  C   UNL     1      -6.234 -10.056  13.233  0.00  0.00    +0.154 C 
ATOM      9  C   UNL     1      -7.030 -10.272  13.227  0.00  0.00    +0.166 C 
ATOM     10  O   UNL     1      -7.375  -9.953  12.549  0.00  0.00    -0.350 OA
ATOM     11  C   UNL     1      -6.792  -9.539  12.137  0.00  0.00    +0.166 C 
ENDROOT
BRANCH   4   3
ATOM      1  O   UNL     1      -6.137  -8.570   9.980  0.00  0.00    -0.251 OA
ATOM      2  C   UNL     1      -6.944  -8.627  10.143  0.00  0.00    +0.323 C 
ATOM      3  N   UNL     1      -7.198  -8.885  10.885  0.00  0.00    -0.185 NA
ATOM     24  N   UNL     1      -7.497  -8.425   9.565  0.00  0.00    -0.258 N 
ATOM     25  C   UNL     1      -7.242  -8.167   8.824  0.00  0.00    +0.127 C 
ATOM     26  C   UNL     1      -7.795  -7.965   8.246  0.00  0.00    +0.164 C 
ATOM     27  O   UNL     1      -8.602  -8.022   8.408  0.00  0.00    -0.350 OA
ATOM     28  C   UNL     1      -8.856  -8.280   9.149  0.00  0.00    +0.164 C 
ATOM     29  C   UNL     1      -8.303  -8.482   9.728  0.00  0.00    +0.127 C 
ENDBRANCH   4   3
BRANCH   8  12
ATOM     12  N   UNL     1      -5.681 -10.258  13.812  0.00  0.00    -0.200 NA
ATOM     13  C   UNL     1      -5.866 -10.162  14.610  0.00  0.00    +0.237 A 
ATOM     14  N   UNL     1      -5.314 -10.363  15.189  0.00  0.00    -0.212 NA
ATOM     15  C   UNL     1      -5.499 -10.267  15.987  0.00  0.00    +0.092 A 
ATOM     16  C   UNL     1      -6.236  -9.970  16.207  0.00  0.00    +0.040 A 
ATOM     17  C   UNL     1      -6.789  -9.768  15.628  0.00  0.00    +0.103 A 
ATOM     18  N   UNL     1      -6.603  -9.864  14.830  0.00  0.00    -0.211 NA
BRANCH  15  19
ATOM     19  C   UNL     1      -4.947 -10.469  16.566  0.00  0.00    +0.047 A 
ATOM     20  C   UNL     1      -5.104 -10.584  17.368  0.00  0.00    +0.009 A 
ATOM     21  C   UNL     1      -4.395 -10.777  17.742  0.00  0.00    +0.008 A 
ATOM     22  C   UNL     1      -3.799 -10.781  17.172  0.00  0.00    +0.035 A 
ATOM     23  S   UNL     1      -4.140 -10.590  16.445  0.00  0.00    -0.085 S 
ENDBRANCH  15  19
ENDBRANCH   8  12
TORSDOF 3
ENDMDL
MODEL 8
REMARK VINA RESULT:      -5.9     16.315     17.683
REMARK  Name = 
REMARK  3 active torsions:
REMARK  status: ('A' for Active; 'I' for Inactive)
REMARK    1  A    between atoms: N_3  and  C_4
REMARK    2  A    between atoms: C_8  and  N_12
REMARK    3  A    between atoms: C_15  and  C_19
REMARK                            x       y       z     vdW  Elec       q    Type
REMARK                         _______ _______ _______ _____ _____    ______ ____
ROOT
ATOM      4  C   UNL     1      -6.444  -9.449  11.364  0.00  0.00    +0.156 C 
ATOM      5  C   UNL     1      -5.812  -8.976  11.124  0.00  0.00    +0.166 C 
ATOM      6  O   UNL     1      -5.150  -9.193  11.566  0.00  0.00    -0.350 OA
ATOM      7  C   UNL     1      -5.373  -9.798  12.079  0.00  0.00    +0.166 C 
ATOM      8  C   UNL     1      -5.102 -10.307  12.670  0.00  0.00    +0.154 C 
ATOM      9  C   UNL     1      -5.734 -10.780  12.909  0.00  0.00    +0.166 C 
ATOM     10  O   UNL     1      -6.396 -10.563  12.467  0.00  0.00    -0.350 OA
ATOM     11  C   UNL     1      -6.172  -9.957  11.954  0.00  0.00    +0.166 C 
ENDROOT
BRANCH   4   3
ATOM      1  O   UNL     1      -6.705  -8.985   9.802  0.00  0.00    -0.251 OA
ATOM      2  C   UNL     1      -7.343  -9.186  10.285  0.00  0.00    +0.323 C 
ATOM      3  N   UNL     1      -7.213  -9.418  11.065  0.00  0.00    -0.185 NA
ATOM     24  N   UNL     1      -8.112  -9.156   9.986  0.00  0.00    -0.258 N 
ATOM     25  C   UNL     1      -8.242  -8.924   9.205  0.00  0.00    +0.127 C 
ATOM     26  C   UNL     1      -9.011  -8.894   8.907  0.00  0.00    +0.164 C 
ATOM     27  O   UNL     1      -9.649  -9.095   9.390  0.00  0.00    -0.350 OA
ATOM     28  C   UNL     1      -9.519  -9.327  10.171  0.00  0.00    +0.164 C 
ATOM     29  C   UNL     1      -8.750  -9.357  10.469  0.00  0.00    +0.127 C 
ENDBRANCH   4   3
BRANCH   8  12
ATOM     12  N   UNL     1      -4.333 -10.338  12.968  0.00  0.00    -0.200 NA
ATOM     13  C   UNL     1      -4.208 -10.462  13.774  0.00  0.00    +0.237 A 
ATOM     14  N   UNL     1      -3.440 -10.493  14.072  0.00  0.00    -0.212 NA
ATOM     15  C   UNL     1      -3.315 -10.617  14.878  0.00  0.00    +0.092 A 
ATOM     16  C   UNL     1      -3.958 -10.711  15.386  0.00  0.00    +0.040 A 
ATOM     17  C   UNL     1      -4.727 -10.680  15.088  0.00  0.00    +0.103 A 
ATOM     18  N   UNL     1      -4.851 -10.556  14.282  0.00  0.00    -0.211 NA
BRANCH  15  19
ATOM     19  C   UNL     1      -2.547 -10.648  15.177  0.00  0.00    +0.047 A 
ATOM     20  C   UNL     1      -2.337 -10.776  15.965  0.00  0.00    +0.009 A 
ATOM     21  C   UNL     1      -1.514 -10.763  16.015  0.00  0.00    +0.008 A 
ATOM     22  C   UNL     1      -1.215 -10.626  15.259  0.00  0.00    +0.035 A 
ATOM     23  S   UNL     1      -1.853 -10.555  14.741  0.00  0.00    -0.085 S 
ENDBRANCH  15  19
ENDBRANCH   8  12
TORSDOF 3
ENDMDL
MODEL 9
REMARK VINA RESULT:      -5.8     17.534     18.942
REMARK  Name = 
REMARK  3 active torsions:
REMARK  status: ('A' for Active; 'I' for Inactive)
REMARK    1  A    between atoms: N_3  and  C_4
REMARK    2  A    between atoms: C_8  and  N_12
REMARK    3  A    between atoms: C_15  and  C_19
REMARK                            x       y       z     vdW  Elec       q    Type
REMARK                         _______ _______ _______ _____ _____    ______ ____
ROOT
ATOM      4  C   UNL     1      -7.419  -7.954   9.021  0.00  0.00    +0.156 C 
ATOM      5  C   UNL     1      -6.740  -7.613   8.702  0.00  0.00    +0.166 C 
ATOM      6  O   UNL     1      -6.088  -8.034   8.983  0.00  0.00    -0.350 OA
ATOM      7  C   UNL     1      -6.365  -8.635   9.474  0.00  0.00    +0.166 C 
ATOM      8  C   UNL     1      -6.134  -9.267   9.952  0.00  0.00    +0.154 C 
ATOM      9  C   UNL     1      -6.814  -9.609  10.270  0.00  0.00    +0.166 C 
ATOM     10  O   UNL     1      -7.465  -9.188   9.990  0.00  0.00    -0.350 OA
ATOM     11  C   UNL     1      -7.188  -8.586   9.498  0.00  0.00    +0.166 C 
ENDROOT
BRANCH   4   3
ATOM      1  O   UNL     1      -7.719  -6.408   8.529  0.00  0.00    -0.251 OA
ATOM      2  C   UNL     1      -8.345  -6.934   8.640  0.00  0.00    +0.323 C 
ATOM      3  N   UNL     1      -8.195  -7.707   8.886  0.00  0.00    -0.185 NA
ATOM     24  N   UNL     1      -9.120  -6.687   8.505  0.00  0.00    -0.258 N 
ATOM     25  C   UNL     1      -9.270  -5.914   8.259  0.00  0.00    +0.127 C 
ATOM     26  C   UNL     1     -10.045  -5.667   8.124  0.00  0.00    +0.164 C 
ATOM     27  O   UNL     1     -10.671  -6.193   8.235  0.00  0.00    -0.350 OA
ATOM     28  C   UNL     1     -10.522  -6.966   8.481  0.00  0.00    +0.164 C 
ATOM     29  C   UNL     1      -9.746  -7.213   8.616  0.00  0.00    +0.127 C 
ENDBRANCH   4   3
BRANCH   8  12
ATOM     12  N   UNL     1      -5.359  -9.515  10.087  0.00  0.00    -0.200 NA
ATOM     13  C   UNL     1      -5.108  -9.687  10.854  0.00  0.00    +0.237 A 
ATOM     14  N   UNL     1      -4.333  -9.934  10.989  0.00  0.00    -0.212 NA
ATOM     15  C   UNL     1      -4.082 -10.107  11.756  0.00  0.00    +0.092 A 
ATOM     16  C   UNL     1      -4.607 -10.032  12.387  0.00  0.00    +0.040 A 
ATOM     17  C   UNL     1      -5.383  -9.785  12.252  0.00  0.00    +0.103 A 
ATOM     18  N   UNL     1      -5.633  -9.613  11.485  0.00  0.00    -0.211 NA
BRANCH  15  19
ATOM     19  C   UNL     1      -3.307 -10.354  11.891  0.00  0.00    +0.047 A 
ATOM     20  C   UNL     1      -2.761 -10.575  11.313  0.00  0.00    +0.009 A 
ATOM     21  C   UNL     1      -2.058 -10.781  11.693  0.00  0.00    +0.008 A 
ATOM     22  C   UNL     1      -2.170 -10.688  12.504  0.00  0.00    +0.035 A 
ATOM     23  S   UNL     1      -2.942 -10.425  12.627  0.00  0.00    -0.085 S 
ENDBRANCH  15  19
ENDBRANCH   8  12
TORSDOF 3
ENDMDL
MODEL 10
REMARK VINA RESULT:      -5.6      3.210      5.009
REMARK  Name = 
REMARK  3 active torsions:
REMARK  status: ('A' for Active; 'I' for Inactive)
REMARK    1  A    between atoms: N_3  and  C_4
REMARK    2  A    between atoms: C_8  and  N_12
REMARK    3  A    between atoms: C_15  and  C_19
REMARK                            x       y       z     vdW  Elec       q    Type
REMARK                         _______ _______ _______ _____ _____    ______ ____
ROOT
ATOM      4  C   UNL     1      -3.927  -0.022  24.393  0.00  0.00    +0.156 C 
ATOM      5  C   UNL     1      -4.244   0.366  25.049  0.00  0.00    +0.166 C 
ATOM      6  O   UNL     1      -4.020   1.158  25.008  0.00  0.00    -0.350 OA
ATOM      7  C   UNL     1      -3.566   1.261  24.329  0.00  0.00    +0.166 C 
ATOM      8  C   UNL     1      -3.146   1.814  23.882  0.00  0.00    +0.154 C 
ATOM      9  C   UNL     1      -2.830   1.427  23.227  0.00  0.00    +0.166 C 
ATOM     10  O   UNL     1      -3.053   0.634  23.267  0.00  0.00    -0.350 OA
ATOM     11  C   UNL     1      -3.508   0.532  23.948  0.00  0.00    +0.166 C 
ENDROOT
BRANCH   4   3
ATOM      1  O   UNL     1      -3.239  -1.165  25.364  0.00  0.00    -0.251 OA
ATOM      2  C   UNL     1      -3.670  -1.394  24.699  0.00  0.00    +0.323 C 
ATOM      3  N   UNL     1      -4.015  -0.823  24.214  0.00  0.00    -0.185 NA
ATOM     24  N   UNL     1      -3.758  -2.195  24.520  0.00  0.00    -0.258 N 
ATOM     25  C   UNL     1      -3.413  -2.766  25.006  0.00  0.00    +0.127 C 
ATOM     26  C   UNL     1      -3.501  -3.566  24.827  0.00  0.00    +0.164 C 
ATOM     27  O   UNL     1      -3.933  -3.796  24.162  0.00  0.00    -0.350 OA
ATOM     28  C   UNL     1      -4.277  -3.225  23.677  0.00  0.00    +0.164 C 
ATOM     29  C   UNL     1      -4.190  -2.424  23.856  0.00  0.00    +0.127 C 
ENDBRANCH   4   3
BRANCH   8  12
ATOM     12  N   UNL     1      -3.059   2.615  24.061  0.00  0.00    -0.200 NA
ATOM     13  C   UNL     1      -2.320   2.912  24.278  0.00  0.00    +0.237 A 
ATOM     14  N   UNL     1      -2.232   3.712  24.457  0.00  0.00    -0.212 NA
ATOM     15  C   UNL     1      -1.493   4.008  24.673  0.00  0.00    +0.092 A 
ATOM     16  C   UNL     1      -0.842   3.504  24.710  0.00  0.00    +0.040 A 
ATOM     17  C   UNL     1      -0.929   2.703  24.531  0.00  0.00    +0.103 A 
ATOM     18  N   UNL     1      -1.668   2.407  24.315  0.00  0.00    -0.211 NA
BRANCH  15  19
ATOM     19  C   UNL     1      -1.406   4.808  24.852  0.00  0.00    +0.047 A 
ATOM     20  C   UNL     1      -1.957   5.281  25.244  0.00  0.00    +0.009 A 
ATOM     21  C   UNL     1      -1.644   6.041  25.305  0.00  0.00    +0.008 A 
ATOM     22  C   UNL     1      -0.899   6.039  24.951  0.00  0.00    +0.035 A 
ATOM     23  S   UNL     1      -0.752   5.277  24.671  0.00  0.00    -0.085 S 
ENDBRANCH  15  19
ENDBRANCH   8  12
TORSDOF 3
ENDMDL
