MODEL 1
REMARK VINA RESULT:      -9.5      0.000      0.000
REMARK  Name = 
REMARK  8 active torsions:
REMARK  status: ('A' for Active; 'I' for Inactive)
REMARK    1  A    between atoms: C_2  and  C_3
REMARK    2  A    between atoms: C_2  and  C_27
REMARK    3  A    between atoms: C_10  and  N_11
REMARK    4  A    between atoms: C_12  and  C_14
REMARK    5  A    between atoms: C_17  and  C_20
REMARK    6  A    between atoms: N_29  and  C_30
REMARK    7  A    between atoms: C_30  and  C_31
REMARK    8  A    between atoms: C_31  and  N_32
REMARK                            x       y       z     vdW  Elec       q    Type
REMARK                         _______ _______ _______ _____ _____    ______ ____
ROOT
ATOM      3  C   UNL     1      -1.696  -1.316  24.786  0.00  0.00    +0.039 C 
ATOM      4  C   UNL     1      -2.173  -1.902  24.452  0.00  0.00    +0.003 C 
ATOM      5  C   UNL     1      -2.981  -1.770  24.353  0.00  0.00    +0.000 C 
ATOM      6  C   UNL     1      -3.313  -1.054  24.589  0.00  0.00    +0.002 C 
ATOM      7  C   UNL     1      -3.788  -1.638  24.255  0.00  0.00    +0.000 C 
ATOM      8  C   UNL     1      -4.122  -0.921  24.490  0.00  0.00    +0.002 C 
ATOM      9  C   UNL     1      -4.455  -0.204  24.726  0.00  0.00    +0.022 C 
ATOM     10  C   UNL     1      -3.979   0.382  25.060  0.00  0.00    +0.096 C 
ATOM     22  C   UNL     1      -3.170   0.250  25.158  0.00  0.00    +0.022 C 
ATOM     23  C   UNL     1      -2.694   0.835  25.492  0.00  0.00    +0.002 C 
ATOM     24  C   UNL     1      -2.837  -0.468  24.923  0.00  0.00    +0.032 C 
ATOM     25  C   UNL     1      -2.029  -0.599  25.021  0.00  0.00    +0.152 C 
ATOM     26  O   UNL     1      -1.553  -0.014  25.355  0.00  0.00    -0.223 OA
ENDROOT
BRANCH  10  11
ATOM     11  N   UNL     1      -4.311   1.099  25.296  0.00  0.00    -0.203 NA
ATOM     12  C   UNL     1      -4.641   1.605  24.734  0.00  0.00    +0.265 C 
ATOM     13  O   UNL     1      -4.637   1.394  23.936  0.00  0.00    -0.268 OA
BRANCH  12  14
ATOM     14  C   UNL     1      -4.974   2.322  24.969  0.00  0.00    +0.055 A 
ATOM     15  C   UNL     1      -5.668   2.329  25.414  0.00  0.00    +0.005 A 
ATOM     16  C   UNL     1      -6.001   3.047  25.649  0.00  0.00    +0.010 A 
ATOM     17  C   UNL     1      -5.639   3.758  25.439  0.00  0.00    +0.068 A 
ATOM     18  C   UNL     1      -4.944   3.751  24.993  0.00  0.00    +0.010 A 
ATOM     19  C   UNL     1      -4.612   3.033  24.759  0.00  0.00    +0.005 A 
BRANCH  17  20
ATOM     20  C   UNL     1      -5.971   4.475  25.673  0.00  0.00    +0.100 C 
ATOM     21  N   UNL     1      -6.303   5.194  25.906  0.00  0.00    -0.191 NA
ENDBRANCH  17  20
ENDBRANCH  12  14
ENDBRANCH  10  11
BRANCH   3   2
ATOM      1  C   UNL     1      -0.589  -1.637  25.630  0.00  0.00    +0.010 C 
ATOM      2  C   UNL     1      -0.888  -1.449  24.884  0.00  0.00    +0.081 C 
BRANCH   2  27
ATOM     27  C   UNL     1      -0.379  -1.393  24.238  0.00  0.00    +0.241 C 
ATOM     28  O   UNL     1      -0.335  -2.012  23.693  0.00  0.00    -0.273 OA
ATOM     29  N   UNL     1       0.087  -0.720  24.135  0.00  0.00    -0.204 NA
BRANCH  29  30
ATOM     30  C   UNL     1       0.596  -0.664  23.489  0.00  0.00    +0.132 C 
BRANCH  30  31
ATOM     31  C   UNL     1       0.900   0.069  23.264  0.00  0.00    +0.096 C 
BRANCH  31  32
ATOM     32  N   UNL     1       1.607   0.111  22.842  0.00  0.00    -0.267 NA
ATOM     33  C   UNL     1       1.658  -0.219  22.087  0.00  0.00    +0.105 C 
ATOM     34  C   UNL     1       2.365  -0.177  21.665  0.00  0.00    +0.159 C 
ATOM     35  O   UNL     1       3.023   0.196  21.998  0.00  0.00    -0.351 OA
ATOM     36  C   UNL     1       2.972   0.526  22.752  0.00  0.00    +0.159 C 
ATOM     37  C   UNL     1       2.265   0.484  23.175  0.00  0.00    +0.105 C 
ENDBRANCH  31  32
ENDBRANCH  30  31
ENDBRANCH  29  30
ENDBRANCH   2  27
ENDBRANCH   3   2
TORSDOF 8
ENDMDL
MODEL 2
REMARK VINA RESULT:      -9.5      1.561      2.479
REMARK  Name = 
REMARK  8 active torsions:
REMARK  status: ('A' for Active; 'I' for Inactive)
REMARK    1  A    between atoms: C_2  and  C_3
REMARK    2  A    between atoms: C_2  and  C_27
REMARK    3  A    between atoms: C_10  and  N_11
REMARK    4  A    between atoms: C_12  and  C_14
REMARK    5  A    between atoms: C_17  and  C_20
REMARK    6  A    between atoms: N_29  and  C_30
REMARK    7  A    between atoms: C_30  and  C_31
REMARK    8  A    between atoms: C_31  and  N_32
REMARK                            x       y       z     vdW  Elec       q    Type
REMARK                         _______ _______ _______ _____ _____    ______ ____
ROOT
ATOM      3  C   UNL     1       0.212  -0.063  23.478  0.00  0.00    +0.039 C 
ATOM      4  C   UNL     1       0.203  -0.735  23.957  0.00  0.00    +0.003 C 
ATOM      5  C   UNL     1      -0.369  -0.813  24.546  0.00  0.00    +0.000 C 
ATOM      6  C   UNL     1      -0.931  -0.221  24.656  0.00  0.00    +0.002 C 
ATOM      7  C   UNL     1      -0.940  -0.892  25.135  0.00  0.00    +0.000 C 
ATOM      8  C   UNL     1      -1.504  -0.299  25.245  0.00  0.00    +0.002 C 
ATOM      9  C   UNL     1      -2.067   0.293  25.356  0.00  0.00    +0.022 C 
ATOM     10  C   UNL     1      -2.059   0.966  24.876  0.00  0.00    +0.096 C 
ATOM     22  C   UNL     1      -1.486   1.044  24.287  0.00  0.00    +0.022 C 
ATOM     23  C   UNL     1      -1.477   1.715  23.807  0.00  0.00    +0.002 C 
ATOM     24  C   UNL     1      -0.923   0.451  24.176  0.00  0.00    +0.032 C 
ATOM     25  C   UNL     1      -0.351   0.529  23.588  0.00  0.00    +0.152 C 
ATOM     26  O   UNL     1      -0.342   1.201  23.108  0.00  0.00    -0.223 OA
ENDROOT
BRANCH  10  11
ATOM     11  N   UNL     1      -2.621   1.558  24.986  0.00  0.00    -0.203 NA
ATOM     12  C   UNL     1      -3.418   1.361  25.064  0.00  0.00    +0.265 C 
ATOM     13  O   UNL     1      -3.652   0.569  25.033  0.00  0.00    -0.268 OA
BRANCH  12  14
ATOM     14  C   UNL     1      -3.982   1.953  25.174  0.00  0.00    +0.055 A 
ATOM     15  C   UNL     1      -4.777   1.800  25.023  0.00  0.00    +0.005 A 
ATOM     16  C   UNL     1      -5.341   2.392  25.133  0.00  0.00    +0.010 A 
ATOM     17  C   UNL     1      -5.108   3.139  25.395  0.00  0.00    +0.068 A 
ATOM     18  C   UNL     1      -4.311   3.293  25.547  0.00  0.00    +0.010 A 
ATOM     19  C   UNL     1      -3.748   2.700  25.437  0.00  0.00    +0.005 A 
BRANCH  17  20
ATOM     20  C   UNL     1      -5.670   3.732  25.506  0.00  0.00    +0.100 C 
ATOM     21  N   UNL     1      -6.232   4.326  25.616  0.00  0.00    -0.191 NA
ENDBRANCH  17  20
ENDBRANCH  12  14
ENDBRANCH  10  11
BRANCH   3   2
ATOM      1  C   UNL     1       0.601  -0.179  22.108  0.00  0.00    +0.010 C 
ATOM      2  C   UNL     1       0.784   0.015  22.888  0.00  0.00    +0.081 C 
BRANCH   2  27
ATOM     27  C   UNL     1       1.539   0.287  23.079  0.00  0.00    +0.241 C 
ATOM     28  O   UNL     1       1.630   0.993  23.498  0.00  0.00    -0.273 OA
ATOM     29  N   UNL     1       2.204  -0.146  22.852  0.00  0.00    -0.204 NA
BRANCH  29  30
ATOM     30  C   UNL     1       2.958   0.125  23.043  0.00  0.00    +0.132 C 
BRANCH  30  31
ATOM     31  C   UNL     1       3.624  -0.295  22.795  0.00  0.00    +0.096 C 
BRANCH  31  32
ATOM     32  N   UNL     1       4.333  -0.228  23.210  0.00  0.00    -0.267 NA
ATOM     33  C   UNL     1       4.796   0.450  23.130  0.00  0.00    +0.105 C 
ATOM     34  C   UNL     1       5.505   0.516  23.545  0.00  0.00    +0.159 C 
ATOM     35  O   UNL     1       5.752  -0.096  24.042  0.00  0.00    -0.351 OA
ATOM     36  C   UNL     1       5.289  -0.773  24.122  0.00  0.00    +0.159 C 
ATOM     37  C   UNL     1       4.579  -0.840  23.706  0.00  0.00    +0.105 C 
ENDBRANCH  31  32
ENDBRANCH  30  31
ENDBRANCH  29  30
ENDBRANCH   2  27
ENDBRANCH   3   2
TORSDOF 8
ENDMDL
MODEL 3
REMARK VINA RESULT:      -9.0      2.555      5.130
REMARK  Name = 
REMARK  8 active torsions:
REMARK  status: ('A' for Active; 'I' for Inactive)
REMARK    1  A    between atoms: C_2  and  C_3
REMARK    2  A    between atoms: C_2  and  C_27
REMARK    3  A    between atoms: C_10  and  N_11
REMARK    4  A    between atoms: C_12  and  C_14
REMARK    5  A    between atoms: C_17  and  C_20
REMARK    6  A    between atoms: N_29  and  C_30
REMARK    7  A    between atoms: C_30  and  C_31
REMARK    8  A    between atoms: C_31  and  N_32
REMARK                            x       y       z     vdW  Elec       q    Type
REMARK                         _______ _______ _______ _____ _____    ______ ____
ROOT
ATOM      3  C   UNL     1      -4.011   3.598  24.887  0.00  0.00    +0.039 C 
ATOM      4  C   UNL     1      -4.661   3.714  25.383  0.00  0.00    +0.003 C 
ATOM      5  C   UNL     1      -5.136   3.075  25.595  0.00  0.00    +0.000 C 
ATOM      6  C   UNL     1      -4.963   2.320  25.312  0.00  0.00    +0.002 C 
ATOM      7  C   UNL     1      -5.612   2.436  25.807  0.00  0.00    +0.000 C 
ATOM      8  C   UNL     1      -5.439   1.680  25.524  0.00  0.00    +0.002 C 
ATOM      9  C   UNL     1      -5.266   0.924  25.242  0.00  0.00    +0.022 C 
ATOM     10  C   UNL     1      -4.616   0.808  24.746  0.00  0.00    +0.096 C 
ATOM     22  C   UNL     1      -4.140   1.448  24.533  0.00  0.00    +0.022 C 
ATOM     23  C   UNL     1      -3.491   1.332  24.038  0.00  0.00    +0.002 C 
ATOM     24  C   UNL     1      -4.313   2.204  24.816  0.00  0.00    +0.032 C 
ATOM     25  C   UNL     1      -3.838   2.843  24.604  0.00  0.00    +0.152 C 
ATOM     26  O   UNL     1      -3.188   2.727  24.108  0.00  0.00    -0.223 OA
ENDROOT
BRANCH  10  11
ATOM     11  N   UNL     1      -4.443   0.053  24.463  0.00  0.00    -0.203 NA
ATOM     12  C   UNL     1      -4.234  -0.546  24.989  0.00  0.00    +0.265 C 
ATOM     13  O   UNL     1      -4.198  -0.390  25.799  0.00  0.00    -0.268 OA
BRANCH  12  14
ATOM     14  C   UNL     1      -4.061  -1.302  24.706  0.00  0.00    +0.055 A 
ATOM     15  C   UNL     1      -4.420  -1.578  24.017  0.00  0.00    +0.005 A 
ATOM     16  C   UNL     1      -4.246  -2.333  23.735  0.00  0.00    +0.010 A 
ATOM     17  C   UNL     1      -3.713  -2.813  24.142  0.00  0.00    +0.068 A 
ATOM     18  C   UNL     1      -3.353  -2.537  24.833  0.00  0.00    +0.010 A 
ATOM     19  C   UNL     1      -3.528  -1.782  25.114  0.00  0.00    +0.005 A 
BRANCH  17  20
ATOM     20  C   UNL     1      -3.539  -3.569  23.861  0.00  0.00    +0.100 C 
ATOM     21  N   UNL     1      -3.364  -4.324  23.579  0.00  0.00    -0.191 NA
ENDBRANCH  17  20
ENDBRANCH  12  14
ENDBRANCH  10  11
BRANCH   3   2
ATOM      1  C   UNL     1      -3.732   4.698  24.019  0.00  0.00    +0.010 C 
ATOM      2  C   UNL     1      -3.535   4.238  24.674  0.00  0.00    +0.081 C 
BRANCH   2  27
ATOM     27  C   UNL     1      -2.863   4.418  25.117  0.00  0.00    +0.241 C 
ATOM     28  O   UNL     1      -2.939   4.799  25.846  0.00  0.00    -0.273 OA
ATOM     29  N   UNL     1      -2.115   4.216  24.833  0.00  0.00    -0.204 NA
BRANCH  29  30
ATOM     30  C   UNL     1      -1.443   4.396  25.276  0.00  0.00    +0.132 C 
BRANCH  30  31
ATOM     31  C   UNL     1      -0.693   4.242  24.970  0.00  0.00    +0.096 C 
BRANCH  31  32
ATOM     32  N   UNL     1      -0.322   3.523  25.128  0.00  0.00    -0.267 NA
ATOM     33  C   UNL     1      -0.213   3.277  25.908  0.00  0.00    +0.105 C 
ATOM     34  C   UNL     1       0.158   2.558  26.066  0.00  0.00    +0.159 C 
ATOM     35  O   UNL     1       0.421   2.083  25.443  0.00  0.00    -0.351 OA
ATOM     36  C   UNL     1       0.312   2.329  24.664  0.00  0.00    +0.159 C 
ATOM     37  C   UNL     1      -0.059   3.048  24.505  0.00  0.00    +0.105 C 
ENDBRANCH  31  32
ENDBRANCH  30  31
ENDBRANCH  29  30
ENDBRANCH   2  27
ENDBRANCH   3   2
TORSDOF 8
ENDMDL
MODEL 4
REMARK VINA RESULT:      -7.8      1.452      5.912
REMARK  Name = 
REMARK  8 active torsions:
REMARK  status: ('A' for Active; 'I' for Inactive)
REMARK    1  A    between atoms: C_2  and  C_3
REMARK    2  A    between atoms: C_2  and  C_27
REMARK    3  A    between atoms: C_10  and  N_11
REMARK    4  A    between atoms: C_12  and  C_14
REMARK    5  A    between atoms: C_17  and  C_20
REMARK    6  A    between atoms: N_29  and  C_30
REMARK    7  A    between atoms: C_30  and  C_31
REMARK    8  A    between atoms: C_31  and  N_32
REMARK                            x       y       z     vdW  Elec       q    Type
REMARK                         _______ _______ _______ _____ _____    ______ ____
ROOT
ATOM      3  C   UNL     1      -4.461   0.519  24.932  0.00  0.00    +0.039 C 
ATOM      4  C   UNL     1      -4.506  -0.085  25.494  0.00  0.00    +0.003 C 
ATOM      5  C   UNL     1      -3.864  -0.588  25.611  0.00  0.00    +0.000 C 
ATOM      6  C   UNL     1      -3.176  -0.488  25.168  0.00  0.00    +0.002 C 
ATOM      7  C   UNL     1      -3.221  -1.091  25.729  0.00  0.00    +0.000 C 
ATOM      8  C   UNL     1      -2.532  -0.992  25.285  0.00  0.00    +0.002 C 
ATOM      9  C   UNL     1      -1.843  -0.893  24.842  0.00  0.00    +0.022 C 
ATOM     10  C   UNL     1      -1.798  -0.289  24.280  0.00  0.00    +0.096 C 
ATOM     22  C   UNL     1      -2.441   0.214  24.163  0.00  0.00    +0.022 C 
ATOM     23  C   UNL     1      -2.395   0.818  23.602  0.00  0.00    +0.002 C 
ATOM     24  C   UNL     1      -3.130   0.115  24.607  0.00  0.00    +0.032 C 
ATOM     25  C   UNL     1      -3.772   0.618  24.489  0.00  0.00    +0.152 C 
ATOM     26  O   UNL     1      -3.727   1.222  23.928  0.00  0.00    -0.223 OA
ENDROOT
BRANCH  10  11
ATOM     11  N   UNL     1      -1.110  -0.190  23.837  0.00  0.00    -0.203 NA
ATOM     12  C   UNL     1      -0.377  -0.156  24.214  0.00  0.00    +0.265 C 
ATOM     13  O   UNL     1      -0.333  -0.222  25.037  0.00  0.00    -0.268 OA
BRANCH  12  14
ATOM     14  C   UNL     1       0.312  -0.057  23.771  0.00  0.00    +0.055 A 
ATOM     15  C   UNL     1       0.539  -0.633  23.227  0.00  0.00    +0.005 A 
ATOM     16  C   UNL     1       1.228  -0.533  22.784  0.00  0.00    +0.010 A 
ATOM     17  C   UNL     1       1.689   0.143  22.886  0.00  0.00    +0.068 A 
ATOM     18  C   UNL     1       1.462   0.720  23.431  0.00  0.00    +0.010 A 
ATOM     19  C   UNL     1       0.773   0.620  23.873  0.00  0.00    +0.005 A 
BRANCH  17  20
ATOM     20  C   UNL     1       2.378   0.244  22.444  0.00  0.00    +0.100 C 
ATOM     21  N   UNL     1       3.068   0.343  22.001  0.00  0.00    -0.191 NA
ENDBRANCH  17  20
ENDBRANCH  12  14
ENDBRANCH  10  11
BRANCH   3   2
ATOM      1  C   UNL     1      -5.639   0.872  24.206  0.00  0.00    +0.010 C 
ATOM      2  C   UNL     1      -5.104   1.023  24.815  0.00  0.00    +0.081 C 
BRANCH   2  27
ATOM     27  C   UNL     1      -5.212   1.676  25.306  0.00  0.00    +0.241 C 
ATOM     28  O   UNL     1      -5.658   1.603  25.998  0.00  0.00    -0.273 OA
ATOM     29  N   UNL     1      -4.875   2.402  25.108  0.00  0.00    -0.204 NA
BRANCH  29  30
ATOM     30  C   UNL     1      -4.983   3.055  25.599  0.00  0.00    +0.132 C 
BRANCH  30  31
ATOM     31  C   UNL     1      -4.707   3.798  25.367  0.00  0.00    +0.096 C 
BRANCH  31  32
ATOM     32  N   UNL     1      -3.932   4.022  25.536  0.00  0.00    -0.267 NA
ATOM     33  C   UNL     1      -3.670   4.047  26.318  0.00  0.00    +0.105 C 
ATOM     34  C   UNL     1      -2.896   4.272  26.488  0.00  0.00    +0.159 C 
ATOM     35  O   UNL     1      -2.380   4.471  25.874  0.00  0.00    -0.351 OA
ATOM     36  C   UNL     1      -2.641   4.446  25.092  0.00  0.00    +0.159 C 
ATOM     37  C   UNL     1      -3.416   4.221  24.922  0.00  0.00    +0.105 C 
ENDBRANCH  31  32
ENDBRANCH  30  31
ENDBRANCH  29  30
ENDBRANCH   2  27
ENDBRANCH   3   2
TORSDOF 8
ENDMDL
MODEL 5
REMARK VINA RESULT:      -7.6      1.387      6.066
REMARK  Name = 
REMARK  8 active torsions:
REMARK  status: ('A' for Active; 'I' for Inactive)
REMARK    1  A    between atoms: C_2  and  C_3
REMARK    2  A    between atoms: C_2  and  C_27
REMARK    3  A    between atoms: C_10  and  N_11
REMARK    4  A    between atoms: C_12  and  C_14
REMARK    5  A    between atoms: C_17  and  C_20
REMARK    6  A    between atoms: N_29  and  C_30
REMARK    7  A    between atoms: C_30  and  C_31
REMARK    8  A    between atoms: C_31  and  N_32
REMARK                            x       y       z     vdW  Elec       q    Type
REMARK                         _______ _______ _______ _____ _____    ______ ____
ROOT
ATOM      3  C   UNL     1      -3.673   0.149  24.806  0.00  0.00    +0.039 C 
ATOM      4  C   UNL     1      -3.653  -0.445  25.380  0.00  0.00    +0.003 C 
ATOM      5  C   UNL     1      -2.936  -0.797  25.584  0.00  0.00    +0.000 C 
ATOM      6  C   UNL     1      -2.239  -0.556  25.216  0.00  0.00    +0.002 C 
ATOM      7  C   UNL     1      -2.219  -1.149  25.788  0.00  0.00    +0.000 C 
ATOM      8  C   UNL     1      -1.521  -0.908  25.420  0.00  0.00    +0.002 C 
ATOM      9  C   UNL     1      -0.823  -0.667  25.051  0.00  0.00    +0.022 C 
ATOM     10  C   UNL     1      -0.843  -0.073  24.478  0.00  0.00    +0.096 C 
ATOM     22  C   UNL     1      -1.561   0.279  24.274  0.00  0.00    +0.022 C 
ATOM     23  C   UNL     1      -1.581   0.872  23.701  0.00  0.00    +0.002 C 
ATOM     24  C   UNL     1      -2.259   0.038  24.642  0.00  0.00    +0.032 C 
ATOM     25  C   UNL     1      -2.976   0.390  24.438  0.00  0.00    +0.152 C 
ATOM     26  O   UNL     1      -2.996   0.983  23.865  0.00  0.00    -0.223 OA
ENDROOT
BRANCH  10  11
ATOM     11  N   UNL     1      -0.146   0.168  24.109  0.00  0.00    -0.203 NA
ATOM     12  C   UNL     1       0.343  -0.389  23.747  0.00  0.00    +0.265 C 
ATOM     13  O   UNL     1       0.134  -1.188  23.753  0.00  0.00    -0.268 OA
BRANCH  12  14
ATOM     14  C   UNL     1       1.041  -0.148  23.378  0.00  0.00    +0.055 A 
ATOM     15  C   UNL     1       1.482   0.472  23.695  0.00  0.00    +0.005 A 
ATOM     16  C   UNL     1       2.180   0.713  23.326  0.00  0.00    +0.010 A 
ATOM     17  C   UNL     1       2.436   0.332  22.640  0.00  0.00    +0.068 A 
ATOM     18  C   UNL     1       1.994  -0.289  22.323  0.00  0.00    +0.010 A 
ATOM     19  C   UNL     1       1.297  -0.529  22.693  0.00  0.00    +0.005 A 
BRANCH  17  20
ATOM     20  C   UNL     1       3.134   0.572  22.271  0.00  0.00    +0.100 C 
ATOM     21  N   UNL     1       3.832   0.810  21.900  0.00  0.00    -0.191 NA
ENDBRANCH  17  20
ENDBRANCH  12  14
ENDBRANCH  10  11
BRANCH   3   2
ATOM      1  C   UNL     1      -4.801   0.243  23.934  0.00  0.00    +0.010 C 
ATOM      2  C   UNL     1      -4.391   0.500  24.603  0.00  0.00    +0.081 C 
BRANCH   2  27
ATOM     27  C   UNL     1      -4.699   1.109  25.066  0.00  0.00    +0.241 C 
ATOM     28  O   UNL     1      -5.160   0.930  25.728  0.00  0.00    -0.273 OA
ATOM     29  N   UNL     1      -4.548   1.896  24.869  0.00  0.00    -0.204 NA
BRANCH  29  30
ATOM     30  C   UNL     1      -4.856   2.504  25.333  0.00  0.00    +0.132 C 
BRANCH  30  31
ATOM     31  C   UNL     1      -4.737   3.291  25.115  0.00  0.00    +0.096 C 
BRANCH  31  32
ATOM     32  N   UNL     1      -4.079   3.701  25.395  0.00  0.00    -0.267 NA
ATOM     33  C   UNL     1      -3.510   3.980  24.867  0.00  0.00    +0.105 C 
ATOM     34  C   UNL     1      -2.853   4.391  25.147  0.00  0.00    +0.159 C 
ATOM     35  O   UNL     1      -2.763   4.523  25.957  0.00  0.00    -0.351 OA
ATOM     36  C   UNL     1      -3.332   4.245  26.485  0.00  0.00    +0.159 C 
ATOM     37  C   UNL     1      -3.990   3.834  26.205  0.00  0.00    +0.105 C 
ENDBRANCH  31  32
ENDBRANCH  30  31
ENDBRANCH  29  30
ENDBRANCH   2  27
ENDBRANCH   3   2
TORSDOF 8
ENDMDL
MODEL 6
REMARK VINA RESULT:      -7.5      2.086      7.253
REMARK  Name = 
REMARK  8 active torsions:
REMARK  status: ('A' for Active; 'I' for Inactive)
REMARK    1  A    between atoms: C_2  and  C_3
REMARK    2  A    between atoms: C_2  and  C_27
REMARK    3  A    between atoms: C_10  and  N_11
REMARK    4  A    between atoms: C_12  and  C_14
REMARK    5  A    between atoms: C_17  and  C_20
REMARK    6  A    between atoms: N_29  and  C_30
REMARK    7  A    between atoms: C_30  and  C_31
REMARK    8  A    between atoms: C_31  and  N_32
REMARK                            x       y       z     vdW  Elec       q    Type
REMARK                         _______ _______ _______ _____ _____    ______ ____
ROOT
ATOM      3  C   UNL     1      -1.523   2.488  24.310  0.00  0.00    +0.039 C 
ATOM      4  C   UNL     1      -2.007   1.891  24.006  0.00  0.00    +0.003 C 
ATOM      5  C   UNL     1      -1.670   1.201  23.706  0.00  0.00    +0.000 C 
ATOM      6  C   UNL     1      -0.852   1.106  23.708  0.00  0.00    +0.002 C 
ATOM      7  C   UNL     1      -1.334   0.511  23.405  0.00  0.00    +0.000 C 
ATOM      8  C   UNL     1      -0.515   0.415  23.407  0.00  0.00    +0.002 C 
ATOM      9  C   UNL     1       0.305   0.320  23.409  0.00  0.00    +0.022 C 
ATOM     10  C   UNL     1       0.789   0.917  23.712  0.00  0.00    +0.096 C 
ATOM     22  C   UNL     1       0.452   1.607  24.013  0.00  0.00    +0.022 C 
ATOM     23  C   UNL     1       0.935   2.203  24.316  0.00  0.00    +0.002 C 
ATOM     24  C   UNL     1      -0.368   1.703  24.011  0.00  0.00    +0.032 C 
ATOM     25  C   UNL     1      -0.704   2.393  24.312  0.00  0.00    +0.152 C 
ATOM     26  O   UNL     1      -0.220   2.989  24.615  0.00  0.00    -0.223 OA
ENDROOT
BRANCH  10  11
ATOM     11  N   UNL     1       1.608   0.822  23.714  0.00  0.00    -0.203 NA
ATOM     12  C   UNL     1       1.981   0.445  23.083  0.00  0.00    +0.265 C 
ATOM     13  O   UNL     1       1.534   0.162  22.448  0.00  0.00    -0.268 OA
BRANCH  12  14
ATOM     14  C   UNL     1       2.801   0.350  23.085  0.00  0.00    +0.055 A 
ATOM     15  C   UNL     1       3.286   0.945  22.785  0.00  0.00    +0.005 A 
ATOM     16  C   UNL     1       4.106   0.850  22.787  0.00  0.00    +0.010 A 
ATOM     17  C   UNL     1       4.440   0.158  23.088  0.00  0.00    +0.068 A 
ATOM     18  C   UNL     1       3.954  -0.438  23.388  0.00  0.00    +0.010 A 
ATOM     19  C   UNL     1       3.135  -0.342  23.386  0.00  0.00    +0.005 A 
BRANCH  17  20
ATOM     20  C   UNL     1       5.259   0.062  23.090  0.00  0.00    +0.100 C 
ATOM     21  N   UNL     1       6.078  -0.034  23.094  0.00  0.00    -0.191 NA
ENDBRANCH  17  20
ENDBRANCH  12  14
ENDBRANCH  10  11
BRANCH   3   2
ATOM      1  C   UNL     1      -1.571   3.914  24.375  0.00  0.00    +0.010 C 
ATOM      2  C   UNL     1      -1.860   3.178  24.611  0.00  0.00    +0.081 C 
BRANCH   2  27
ATOM     27  C   UNL     1      -2.484   3.133  25.146  0.00  0.00    +0.241 C 
ATOM     28  O   UNL     1      -2.335   2.974  25.943  0.00  0.00    -0.273 OA
ATOM     29  N   UNL     1      -3.260   3.247  24.888  0.00  0.00    -0.204 NA
BRANCH  29  30
ATOM     30  C   UNL     1      -3.885   3.202  25.423  0.00  0.00    +0.132 C 
BRANCH  30  31
ATOM     31  C   UNL     1      -4.658   3.335  25.168  0.00  0.00    +0.096 C 
BRANCH  31  32
ATOM     32  N   UNL     1      -5.250   2.789  25.345  0.00  0.00    -0.267 NA
ATOM     33  C   UNL     1      -5.512   2.261  24.768  0.00  0.00    +0.105 C 
ATOM     34  C   UNL     1      -6.105   1.716  24.945  0.00  0.00    +0.159 C 
ATOM     35  O   UNL     1      -6.437   1.698  25.701  0.00  0.00    -0.351 OA
ATOM     36  C   UNL     1      -6.175   2.226  26.278  0.00  0.00    +0.159 C 
ATOM     37  C   UNL     1      -5.583   2.772  26.102  0.00  0.00    +0.105 C 
ENDBRANCH  31  32
ENDBRANCH  30  31
ENDBRANCH  29  30
ENDBRANCH   2  27
ENDBRANCH   3   2
TORSDOF 8
ENDMDL
MODEL 7
REMARK VINA RESULT:      -6.3     16.736     18.630
REMARK  Name = 
REMARK  8 active torsions:
REMARK  status: ('A' for Active; 'I' for Inactive)
REMARK    1  A    between atoms: C_2  and  C_3
REMARK    2  A    between atoms: C_2  and  C_27
REMARK    3  A    between atoms: C_10  and  N_11
REMARK    4  A    between atoms: C_12  and  C_14
REMARK    5  A    between atoms: C_17  and  C_20
REMARK    6  A    between atoms: N_29  and  C_30
REMARK    7  A    between atoms: C_30  and  C_31
REMARK    8  A    between atoms: C_31  and  N_32
REMARK                            x       y       z     vdW  Elec       q    Type
REMARK                         _______ _______ _______ _____ _____    ______ ____
ROOT
ATOM      3  C   UNL     1      -7.536  -9.722   9.614  0.00  0.00    +0.039 C 
ATOM      4  C   UNL     1      -7.816 -10.173  10.247  0.00  0.00    +0.003 C 
ATOM      5  C   UNL     1      -7.298 -10.420  10.839  0.00  0.00    +0.000 C 
ATOM      6  C   UNL     1      -6.500 -10.217  10.799  0.00  0.00    +0.002 C 
ATOM      7  C   UNL     1      -6.780 -10.667  11.430  0.00  0.00    +0.000 C 
ATOM      8  C   UNL     1      -5.981 -10.464  11.391  0.00  0.00    +0.002 C 
ATOM      9  C   UNL     1      -5.182 -10.261  11.352  0.00  0.00    +0.022 C 
ATOM     10  C   UNL     1      -4.901  -9.811  10.719  0.00  0.00    +0.096 C 
ATOM     22  C   UNL     1      -5.421  -9.564  10.127  0.00  0.00    +0.022 C 
ATOM     23  C   UNL     1      -5.141  -9.114   9.495  0.00  0.00    +0.002 C 
ATOM     24  C   UNL     1      -6.220  -9.766  10.166  0.00  0.00    +0.032 C 
ATOM     25  C   UNL     1      -6.738  -9.519   9.575  0.00  0.00    +0.152 C 
ATOM     26  O   UNL     1      -6.458  -9.069   8.942  0.00  0.00    -0.223 OA
ENDROOT
BRANCH  10  11
ATOM     11  N   UNL     1      -4.103  -9.608  10.679  0.00  0.00    -0.203 NA
ATOM     12  C   UNL     1      -3.576  -9.897  11.243  0.00  0.00    +0.265 C 
ATOM     13  O   UNL     1      -3.847 -10.390  11.848  0.00  0.00    -0.268 OA
BRANCH  12  14
ATOM     14  C   UNL     1      -2.777  -9.694  11.203  0.00  0.00    +0.055 A 
ATOM     15  C   UNL     1      -2.223 -10.112  11.648  0.00  0.00    +0.005 A 
ATOM     16  C   UNL     1      -1.424  -9.909  11.608  0.00  0.00    +0.010 A 
ATOM     17  C   UNL     1      -1.180  -9.288  11.123  0.00  0.00    +0.068 A 
ATOM     18  C   UNL     1      -1.735  -8.870  10.678  0.00  0.00    +0.010 A 
ATOM     19  C   UNL     1      -2.533  -9.073  10.718  0.00  0.00    +0.005 A 
BRANCH  17  20
ATOM     20  C   UNL     1      -0.381  -9.085  11.083  0.00  0.00    +0.100 C 
ATOM     21  N   UNL     1       0.418  -8.882  11.044  0.00  0.00    -0.191 NA
ENDBRANCH  17  20
ENDBRANCH  12  14
ENDBRANCH  10  11
BRANCH   3   2
ATOM      1  C   UNL     1      -8.008  -9.807   8.269  0.00  0.00    +0.010 C 
ATOM      2  C   UNL     1      -8.055  -9.475   9.023  0.00  0.00    +0.081 C 
BRANCH   2  27
ATOM     27  C   UNL     1      -8.621  -8.898   9.184  0.00  0.00    +0.241 C 
ATOM     28  O   UNL     1      -9.193  -9.031   9.765  0.00  0.00    -0.273 OA
ATOM     29  N   UNL     1      -8.616  -8.186   8.766  0.00  0.00    -0.204 NA
BRANCH  29  30
ATOM     30  C   UNL     1      -9.182  -7.609   8.927  0.00  0.00    +0.132 C 
BRANCH  30  31
ATOM     31  C   UNL     1      -9.388  -7.058   8.348  0.00  0.00    +0.096 C 
BRANCH  31  32
ATOM     32  N   UNL     1      -9.673  -6.316   8.566  0.00  0.00    -0.267 NA
ATOM     33  C   UNL     1      -9.199  -5.647   8.469  0.00  0.00    +0.105 C 
ATOM     34  C   UNL     1      -9.483  -4.905   8.687  0.00  0.00    +0.159 C 
ATOM     35  O   UNL     1     -10.243  -4.830   9.003  0.00  0.00    -0.351 OA
ATOM     36  C   UNL     1     -10.716  -5.498   9.100  0.00  0.00    +0.159 C 
ATOM     37  C   UNL     1     -10.432  -6.241   8.881  0.00  0.00    +0.105 C 
ENDBRANCH  31  32
ENDBRANCH  30  31
ENDBRANCH  29  30
ENDBRANCH   2  27
ENDBRANCH   3   2
TORSDOF 8
ENDMDL
MODEL 8
REMARK VINA RESULT:      -6.0     15.044     16.808
REMARK  Name = 
REMARK  8 active torsions:
REMARK  status: ('A' for Active; 'I' for Inactive)
REMARK    1  A    between atoms: C_2  and  C_3
REMARK    2  A    between atoms: C_2  and  C_27
REMARK    3  A    between atoms: C_10  and  N_11
REMARK    4  A    between atoms: C_12  and  C_14
REMARK    5  A    between atoms: C_17  and  C_20
REMARK    6  A    between atoms: N_29  and  C_30
REMARK    7  A    between atoms: C_30  and  C_31
REMARK    8  A    between atoms: C_31  and  N_32
REMARK                            x       y       z     vdW  Elec       q    Type
REMARK                         _______ _______ _______ _____ _____    ______ ____
ROOT
ATOM      3  C   UNL     1      -8.672  -9.916  11.810  0.00  0.00    +0.039 C 
ATOM      4  C   UNL     1      -9.463  -9.679  11.807  0.00  0.00    +0.003 C 
ATOM      5  C   UNL     1      -9.869  -9.588  12.519  0.00  0.00    +0.000 C 
ATOM      6  C   UNL     1      -9.484  -9.734  13.234  0.00  0.00    +0.002 C 
ATOM      7  C   UNL     1     -10.274  -9.498  13.231  0.00  0.00    +0.000 C 
ATOM      8  C   UNL     1      -9.890  -9.644  13.947  0.00  0.00    +0.002 C 
ATOM      9  C   UNL     1      -9.505  -9.790  14.663  0.00  0.00    +0.022 C 
ATOM     10  C   UNL     1      -8.714 -10.026  14.665  0.00  0.00    +0.096 C 
ATOM     22  C   UNL     1      -8.309 -10.117  13.952  0.00  0.00    +0.022 C 
ATOM     23  C   UNL     1      -7.519 -10.353  13.955  0.00  0.00    +0.002 C 
ATOM     24  C   UNL     1      -8.693  -9.971  13.236  0.00  0.00    +0.032 C 
ATOM     25  C   UNL     1      -8.288 -10.061  12.524  0.00  0.00    +0.152 C 
ATOM     26  O   UNL     1      -7.497 -10.298  12.527  0.00  0.00    -0.223 OA
ENDROOT
BRANCH  10  11
ATOM     11  N   UNL     1      -8.330 -10.172  15.380  0.00  0.00    -0.203 NA
ATOM     12  C   UNL     1      -8.578  -9.790  16.067  0.00  0.00    +0.265 C 
ATOM     13  O   UNL     1      -9.211  -9.261  16.039  0.00  0.00    -0.268 OA
BRANCH  12  14
ATOM     14  C   UNL     1      -8.194  -9.936  16.782  0.00  0.00    +0.055 A 
ATOM     15  C   UNL     1      -8.361 -10.621  17.209  0.00  0.00    +0.005 A 
ATOM     16  C   UNL     1      -7.977 -10.767  17.925  0.00  0.00    +0.010 A 
ATOM     17  C   UNL     1      -7.425 -10.226  18.213  0.00  0.00    +0.068 A 
ATOM     18  C   UNL     1      -7.257  -9.539  17.786  0.00  0.00    +0.010 A 
ATOM     19  C   UNL     1      -7.642  -9.395  17.071  0.00  0.00    +0.005 A 
BRANCH  17  20
ATOM     20  C   UNL     1      -7.040 -10.370  18.928  0.00  0.00    +0.100 C 
ATOM     21  N   UNL     1      -6.654 -10.514  19.643  0.00  0.00    -0.191 NA
ENDBRANCH  17  20
ENDBRANCH  12  14
ENDBRANCH  10  11
BRANCH   3   2
ATOM      1  C   UNL     1      -8.136 -10.761  10.790  0.00  0.00    +0.010 C 
ATOM      2  C   UNL     1      -8.267 -10.006  11.097  0.00  0.00    +0.081 C 
BRANCH   2  27
ATOM     27  C   UNL     1      -7.993  -9.343  10.690  0.00  0.00    +0.241 C 
ATOM     28  O   UNL     1      -7.289  -8.978  10.922  0.00  0.00    -0.273 OA
ATOM     29  N   UNL     1      -8.421  -9.044  10.052  0.00  0.00    -0.204 NA
BRANCH  29  30
ATOM     30  C   UNL     1      -8.147  -8.381   9.645  0.00  0.00    +0.132 C 
BRANCH  30  31
ATOM     31  C   UNL     1      -8.437  -8.209   8.892  0.00  0.00    +0.096 C 
BRANCH  31  32
ATOM     32  N   UNL     1      -8.560  -7.425   8.666  0.00  0.00    -0.267 NA
ATOM     33  C   UNL     1      -7.938  -6.984   8.350  0.00  0.00    +0.105 C 
ATOM     34  C   UNL     1      -8.060  -6.201   8.124  0.00  0.00    +0.159 C 
ATOM     35  O   UNL     1      -8.806  -5.857   8.213  0.00  0.00    -0.351 OA
ATOM     36  C   UNL     1      -9.428  -6.298   8.527  0.00  0.00    +0.159 C 
ATOM     37  C   UNL     1      -9.306  -7.082   8.754  0.00  0.00    +0.105 C 
ENDBRANCH  31  32
ENDBRANCH  30  31
ENDBRANCH  29  30
ENDBRANCH   2  27
ENDBRANCH   3   2
TORSDOF 8
ENDMDL
MODEL 9
REMARK VINA RESULT:      -5.9     16.030     18.408
REMARK  Name = 
REMARK  8 active torsions:
REMARK  status: ('A' for Active; 'I' for Inactive)
REMARK    1  A    between atoms: C_2  and  C_3
REMARK    2  A    between atoms: C_2  and  C_27
REMARK    3  A    between atoms: C_10  and  N_11
REMARK    4  A    between atoms: C_12  and  C_14
REMARK    5  A    between atoms: C_17  and  C_20
REMARK    6  A    between atoms: N_29  and  C_30
REMARK    7  A    between atoms: C_30  and  C_31
REMARK    8  A    between atoms: C_31  and  N_32
REMARK                            x       y       z     vdW  Elec       q    Type
REMARK                         _______ _______ _______ _____ _____    ______ ____
ROOT
ATOM      3  C   UNL     1      -4.777  -9.954   9.512  0.00  0.00    +0.039 C 
ATOM      4  C   UNL     1      -4.968 -10.512  10.090  0.00  0.00    +0.003 C 
ATOM      5  C   UNL     1      -4.453 -10.646  10.720  0.00  0.00    +0.000 C 
ATOM      6  C   UNL     1      -3.747 -10.223  10.772  0.00  0.00    +0.002 C 
ATOM      7  C   UNL     1      -3.938 -10.780  11.349  0.00  0.00    +0.000 C 
ATOM      8  C   UNL     1      -3.231 -10.357  11.402  0.00  0.00    +0.002 C 
ATOM      9  C   UNL     1      -2.525  -9.933  11.456  0.00  0.00    +0.022 C 
ATOM     10  C   UNL     1      -2.334  -9.375  10.878  0.00  0.00    +0.096 C 
ATOM     22  C   UNL     1      -2.850  -9.241  10.248  0.00  0.00    +0.022 C 
ATOM     23  C   UNL     1      -2.660  -8.683   9.670  0.00  0.00    +0.002 C 
ATOM     24  C   UNL     1      -3.557  -9.665  10.194  0.00  0.00    +0.032 C 
ATOM     25  C   UNL     1      -4.072  -9.531   9.565  0.00  0.00    +0.152 C 
ATOM     26  O   UNL     1      -3.882  -8.973   8.988  0.00  0.00    -0.223 OA
ENDROOT
BRANCH  10  11
ATOM     11  N   UNL     1      -1.629  -8.952  10.930  0.00  0.00    -0.203 NA
ATOM     12  C   UNL     1      -1.061  -9.164  11.489  0.00  0.00    +0.265 C 
ATOM     13  O   UNL     1      -1.199  -9.802  11.995  0.00  0.00    -0.268 OA
BRANCH  12  14
ATOM     14  C   UNL     1      -0.355  -8.741  11.542  0.00  0.00    +0.055 A 
ATOM     15  C   UNL     1      -0.242  -8.201  12.154  0.00  0.00    +0.005 A 
ATOM     16  C   UNL     1       0.464  -7.778  12.207  0.00  0.00    +0.010 A 
ATOM     17  C   UNL     1       1.058  -7.895  11.647  0.00  0.00    +0.068 A 
ATOM     18  C   UNL     1       0.946  -8.436  11.033  0.00  0.00    +0.010 A 
ATOM     19  C   UNL     1       0.239  -8.859  10.981  0.00  0.00    +0.005 A 
BRANCH  17  20
ATOM     20  C   UNL     1       1.765  -7.473  11.699  0.00  0.00    +0.100 C 
ATOM     21  N   UNL     1       2.471  -7.049  11.752  0.00  0.00    -0.191 NA
ENDBRANCH  17  20
ENDBRANCH  12  14
ENDBRANCH  10  11
BRANCH   3   2
ATOM      1  C   UNL     1      -5.092 -10.073   8.124  0.00  0.00    +0.010 C 
ATOM      2  C   UNL     1      -5.294  -9.820   8.882  0.00  0.00    +0.081 C 
BRANCH   2  27
ATOM     27  C   UNL     1      -6.011  -9.434   9.011  0.00  0.00    +0.241 C 
ATOM     28  O   UNL     1      -6.024  -8.616   9.123  0.00  0.00    -0.273 OA
ATOM     29  N   UNL     1      -6.715  -9.864   9.027  0.00  0.00    -0.204 NA
BRANCH  29  30
ATOM     30  C   UNL     1      -7.431  -9.478   9.156  0.00  0.00    +0.132 C 
BRANCH  30  31
ATOM     31  C   UNL     1      -8.143  -9.867   9.003  0.00  0.00    +0.096 C 
BRANCH  31  32
ATOM     32  N   UNL     1      -8.859  -9.470   9.099  0.00  0.00    -0.267 NA
ATOM     33  C   UNL     1      -9.341  -9.322   8.445  0.00  0.00    +0.105 C 
ATOM     34  C   UNL     1     -10.057  -8.925   8.541  0.00  0.00    +0.159 C 
ATOM     35  O   UNL     1     -10.293  -8.674   9.292  0.00  0.00    -0.351 OA
ATOM     36  C   UNL     1      -9.812  -8.822   9.945  0.00  0.00    +0.159 C 
ATOM     37  C   UNL     1      -9.095  -9.219   9.850  0.00  0.00    +0.105 C 
ENDBRANCH  31  32
ENDBRANCH  30  31
ENDBRANCH  29  30
ENDBRANCH   2  27
ENDBRANCH   3   2
TORSDOF 8
ENDMDL
MODEL 10
REMARK VINA RESULT:      -5.6     15.936     17.949
REMARK  Name = 
REMARK  8 active torsions:
REMARK  status: ('A' for Active; 'I' for Inactive)
REMARK    1  A    between atoms: C_2  and  C_3
REMARK    2  A    between atoms: C_2  and  C_27
REMARK    3  A    between atoms: C_10  and  N_11
REMARK    4  A    between atoms: C_12  and  C_14
REMARK    5  A    between atoms: C_17  and  C_20
REMARK    6  A    between atoms: N_29  and  C_30
REMARK    7  A    between atoms: C_30  and  C_31
REMARK    8  A    between atoms: C_31  and  N_32
REMARK                            x       y       z     vdW  Elec       q    Type
REMARK                         _______ _______ _______ _____ _____    ______ ____
ROOT
ATOM      3  C   UNL     1      -8.003  -9.506  10.238  0.00  0.00    +0.039 C 
ATOM      4  C   UNL     1      -8.632  -9.612  10.763  0.00  0.00    +0.003 C 
ATOM      5  C   UNL     1      -8.484  -9.799  11.552  0.00  0.00    +0.000 C 
ATOM      6  C   UNL     1      -7.708  -9.881  11.817  0.00  0.00    +0.002 C 
ATOM      7  C   UNL     1      -8.336  -9.986  12.341  0.00  0.00    +0.000 C 
ATOM      8  C   UNL     1      -7.559 -10.068  12.607  0.00  0.00    +0.002 C 
ATOM      9  C   UNL     1      -6.782 -10.150  12.874  0.00  0.00    +0.022 C 
ATOM     10  C   UNL     1      -6.153 -10.044  12.349  0.00  0.00    +0.096 C 
ATOM     22  C   UNL     1      -6.302  -9.856  11.560  0.00  0.00    +0.022 C 
ATOM     23  C   UNL     1      -5.673  -9.751  11.036  0.00  0.00    +0.002 C 
ATOM     24  C   UNL     1      -7.079  -9.775  11.293  0.00  0.00    +0.032 C 
ATOM     25  C   UNL     1      -7.227  -9.588  10.504  0.00  0.00    +0.152 C 
ATOM     26  O   UNL     1      -6.598  -9.482   9.980  0.00  0.00    -0.223 OA
ENDROOT
BRANCH  10  11
ATOM     11  N   UNL     1      -5.377 -10.125  12.615  0.00  0.00    -0.203 NA
ATOM     12  C   UNL     1      -5.229 -10.359  13.392  0.00  0.00    +0.265 C 
ATOM     13  O   UNL     1      -5.859 -10.513  13.903  0.00  0.00    -0.268 OA
BRANCH  12  14
ATOM     14  C   UNL     1      -4.453 -10.441  13.658  0.00  0.00    +0.055 A 
ATOM     15  C   UNL     1      -3.823 -10.329  13.137  0.00  0.00    +0.005 A 
ATOM     16  C   UNL     1      -3.047 -10.411  13.404  0.00  0.00    +0.010 A 
ATOM     17  C   UNL     1      -2.900 -10.605  14.192  0.00  0.00    +0.068 A 
ATOM     18  C   UNL     1      -3.530 -10.717  14.714  0.00  0.00    +0.010 A 
ATOM     19  C   UNL     1      -4.306 -10.635  14.446  0.00  0.00    +0.005 A 
BRANCH  17  20
ATOM     20  C   UNL     1      -2.124 -10.687  14.460  0.00  0.00    +0.100 C 
ATOM     21  N   UNL     1      -1.348 -10.767  14.728  0.00  0.00    -0.191 NA
ENDBRANCH  17  20
ENDBRANCH  12  14
ENDBRANCH  10  11
BRANCH   3   2
ATOM      1  C   UNL     1      -7.726  -9.693   8.849  0.00  0.00    +0.010 C 
ATOM      2  C   UNL     1      -8.152  -9.319   9.448  0.00  0.00    +0.081 C 
BRANCH   2  27
ATOM     27  C   UNL     1      -8.726  -8.759   9.258  0.00  0.00    +0.241 C 
ATOM     28  O   UNL     1      -9.527  -8.946   9.335  0.00  0.00    -0.273 OA
ATOM     29  N   UNL     1      -8.502  -8.011   8.990  0.00  0.00    -0.204 NA
BRANCH  29  30
ATOM     30  C   UNL     1      -9.076  -7.451   8.800  0.00  0.00    +0.132 C 
BRANCH  30  31
ATOM     31  C   UNL     1      -8.893  -6.829   8.289  0.00  0.00    +0.096 C 
BRANCH  31  32
ATOM     32  N   UNL     1      -9.274  -6.103   8.371  0.00  0.00    -0.267 NA
ATOM     33  C   UNL     1      -8.833  -5.417   8.499  0.00  0.00    +0.105 C 
ATOM     34  C   UNL     1      -9.213  -4.690   8.581  0.00  0.00    +0.159 C 
ATOM     35  O   UNL     1     -10.037  -4.648   8.535  0.00  0.00    -0.351 OA
ATOM     36  C   UNL     1     -10.478  -5.333   8.407  0.00  0.00    +0.159 C 
ATOM     37  C   UNL     1     -10.098  -6.060   8.325  0.00  0.00    +0.105 C 
ENDBRANCH  31  32
ENDBRANCH  30  31
ENDBRANCH  29  30
ENDBRANCH   2  27
ENDBRANCH   3   2
TORSDOF 8
ENDMDL
