MODEL 1
REMARK VINA RESULT:     -10.0      0.000      0.000
REMARK  Name = 
REMARK  8 active torsions:
REMARK  status: ('A' for Active; 'I' for Inactive)
REMARK    1  A    between atoms: S_2  and  C_5
REMARK    2  A    between atoms: C_8  and  C_9
REMARK    3  A    between atoms: C_9  and  N_10
REMARK    4  A    between atoms: N_10  and  C_11
REMARK    5  A    between atoms: C_14  and  C_15
REMARK    6  A    between atoms: C_15  and  N_16
REMARK    7  A    between atoms: N_16  and  S_17
REMARK    8  A    between atoms: S_17  and  C_20
REMARK                            x       y       z     vdW  Elec       q    Type
REMARK                         _______ _______ _______ _____ _____    ______ ____
ROOT
ATOM     11  C   UNL     1      -4.561   1.396  24.788  0.00  0.00    +0.135 C 
ATOM     12  C   UNL     1      -4.996   1.759  25.387  0.00  0.00    +0.162 C 
ATOM     13  O   UNL     1      -4.731   2.536  25.460  0.00  0.00    -0.350 OA
ATOM     14  C   UNL     1      -4.131   2.654  24.906  0.00  0.00    +0.166 C 
ATOM     26  C   UNL     1      -4.026   1.949  24.490  0.00  0.00    +0.199 C 
ATOM     27  O   UNL     1      -3.482   1.820  23.884  0.00  0.00    -0.219 OA
ENDROOT
BRANCH  11  10
ATOM     10  N   UNL     1      -4.646   0.616  24.531  0.00  0.00    -0.209 NA
BRANCH  10   9
ATOM      9  C   UNL     1      -4.641  -0.001  25.078  0.00  0.00    +0.115 C 
BRANCH   9   8
ATOM      5  C   UNL     1      -3.486  -2.122  24.540  0.00  0.00    +0.106 A 
ATOM      6  C   UNL     1      -3.350  -1.751  25.264  0.00  0.00    +0.018 A 
ATOM      7  C   UNL     1      -3.735  -1.044  25.444  0.00  0.00    -0.002 A 
ATOM      8  C   UNL     1      -4.256  -0.708  24.899  0.00  0.00    -0.005 A 
ATOM     28  C   UNL     1      -4.392  -1.080  24.175  0.00  0.00    -0.002 A 
ATOM     29  C   UNL     1      -4.007  -1.787  23.996  0.00  0.00    +0.018 A 
BRANCH   5   2
ATOM      1  C   UNL     1      -2.716  -3.537  24.181  0.00  0.00    +0.182 C 
ATOM      2  S   UNL     1      -3.101  -2.831  24.360  0.00  0.00    +0.010 S 
ATOM      3  O   UNL     1      -3.813  -3.239  24.441  0.00  0.00    -0.169 OA
ATOM      4  O   UNL     1      -2.389  -2.422  24.280  0.00  0.00    -0.169 OA
ENDBRANCH   5   2
ENDBRANCH   9   8
ENDBRANCH  10   9
ENDBRANCH  11  10
BRANCH  14  15
ATOM     15  C   UNL     1      -3.710   3.354  24.788  0.00  0.00    +0.148 C 
BRANCH  15  16
ATOM     16  N   UNL     1      -3.309   3.705  25.418  0.00  0.00    -0.075 NA
BRANCH  16  17
ATOM     17  S   UNL     1      -2.611   4.123  25.280  0.00  0.00    +0.077 S 
ATOM     18  O   UNL     1      -2.272   3.775  25.946  0.00  0.00    -0.152 OA
ATOM     19  O   UNL     1      -2.951   4.471  24.613  0.00  0.00    -0.152 OA
BRANCH  17  20
ATOM     20  C   UNL     1      -1.913   4.540  25.142  0.00  0.00    +0.124 A 
ATOM     21  C   UNL     1      -1.206   4.132  25.024  0.00  0.00    +0.020 A 
ATOM     22  C   UNL     1      -0.507   4.549  24.886  0.00  0.00    +0.001 A 
ATOM     23  C   UNL     1      -0.517   5.374  24.867  0.00  0.00    +0.000 A 
ATOM     24  C   UNL     1      -1.223   5.781  24.985  0.00  0.00    +0.001 A 
ATOM     25  C   UNL     1      -1.922   5.364  25.123  0.00  0.00    +0.020 A 
ENDBRANCH  17  20
ENDBRANCH  16  17
ENDBRANCH  15  16
ENDBRANCH  14  15
TORSDOF 8
ENDMDL
MODEL 2
REMARK VINA RESULT:      -9.6      4.387      5.646
REMARK  Name = 
REMARK  8 active torsions:
REMARK  status: ('A' for Active; 'I' for Inactive)
REMARK    1  A    between atoms: S_2  and  C_5
REMARK    2  A    between atoms: C_8  and  C_9
REMARK    3  A    between atoms: C_9  and  N_10
REMARK    4  A    between atoms: N_10  and  C_11
REMARK    5  A    between atoms: C_14  and  C_15
REMARK    6  A    between atoms: C_15  and  N_16
REMARK    7  A    between atoms: N_16  and  S_17
REMARK    8  A    between atoms: S_17  and  C_20
REMARK                            x       y       z     vdW  Elec       q    Type
REMARK                         _______ _______ _______ _____ _____    ______ ____
ROOT
ATOM     11  C   UNL     1      -0.759   0.910  23.848  0.00  0.00    +0.135 C 
ATOM     12  C   UNL     1      -0.712   0.258  23.346  0.00  0.00    +0.162 C 
ATOM     13  O   UNL     1       0.084   0.117  23.184  0.00  0.00    -0.350 OA
ATOM     14  C   UNL     1       0.530   0.682  23.587  0.00  0.00    +0.166 C 
ATOM     26  C   UNL     1       0.009   1.172  23.998  0.00  0.00    +0.199 C 
ATOM     27  O   UNL     1       0.219   1.812  24.474  0.00  0.00    -0.219 OA
ENDROOT
BRANCH  11  10
ATOM     10  N   UNL     1      -1.452   1.241  24.150  0.00  0.00    -0.209 NA
BRANCH  10   9
ATOM      9  C   UNL     1      -2.182   1.040  23.823  0.00  0.00    +0.115 C 
BRANCH   9   8
ATOM      5  C   UNL     1      -4.262   2.011  24.747  0.00  0.00    +0.106 A 
ATOM      6  C   UNL     1      -4.020   1.258  24.981  0.00  0.00    +0.018 A 
ATOM      7  C   UNL     1      -3.326   0.934  24.673  0.00  0.00    -0.002 A 
ATOM      8  C   UNL     1      -2.875   1.363  24.131  0.00  0.00    -0.005 A 
ATOM     28  C   UNL     1      -3.118   2.117  23.898  0.00  0.00    -0.002 A 
ATOM     29  C   UNL     1      -3.811   2.440  24.206  0.00  0.00    +0.018 A 
BRANCH   5   2
ATOM      1  C   UNL     1      -5.648   2.659  25.363  0.00  0.00    +0.182 C 
ATOM      2  S   UNL     1      -4.956   2.335  25.055  0.00  0.00    +0.010 S 
ATOM      3  O   UNL     1      -4.509   2.863  25.506  0.00  0.00    -0.169 OA
ATOM      4  O   UNL     1      -5.402   1.808  24.605  0.00  0.00    -0.169 OA
ENDBRANCH   5   2
ENDBRANCH   9   8
ENDBRANCH  10   9
ENDBRANCH  11  10
BRANCH  14  15
ATOM     15  C   UNL     1       1.353   0.745  23.580  0.00  0.00    +0.148 C 
BRANCH  15  16
ATOM     16  N   UNL     1       1.787   0.419  22.959  0.00  0.00    -0.075 NA
BRANCH  16  17
ATOM     17  S   UNL     1       2.608   0.372  23.010  0.00  0.00    +0.077 S 
ATOM     18  O   UNL     1       2.576  -0.427  22.806  0.00  0.00    -0.152 OA
ATOM     19  O   UNL     1       2.641   1.171  23.214  0.00  0.00    -0.152 OA
BRANCH  17  20
ATOM     20  C   UNL     1       3.430   0.325  23.061  0.00  0.00    +0.124 A 
ATOM     21  C   UNL     1       3.897   0.949  22.788  0.00  0.00    +0.020 A 
ATOM     22  C   UNL     1       4.719   0.902  22.839  0.00  0.00    +0.001 A 
ATOM     23  C   UNL     1       5.075   0.232  23.164  0.00  0.00    +0.000 A 
ATOM     24  C   UNL     1       4.608  -0.391  23.437  0.00  0.00    +0.001 A 
ATOM     25  C   UNL     1       3.786  -0.345  23.386  0.00  0.00    +0.020 A 
ENDBRANCH  17  20
ENDBRANCH  16  17
ENDBRANCH  15  16
ENDBRANCH  14  15
TORSDOF 8
ENDMDL
MODEL 3
REMARK VINA RESULT:      -9.5      4.887      6.253
REMARK  Name = 
REMARK  8 active torsions:
REMARK  status: ('A' for Active; 'I' for Inactive)
REMARK    1  A    between atoms: S_2  and  C_5
REMARK    2  A    between atoms: C_8  and  C_9
REMARK    3  A    between atoms: C_9  and  N_10
REMARK    4  A    between atoms: N_10  and  C_11
REMARK    5  A    between atoms: C_14  and  C_15
REMARK    6  A    between atoms: C_15  and  N_16
REMARK    7  A    between atoms: N_16  and  S_17
REMARK    8  A    between atoms: S_17  and  C_20
REMARK                            x       y       z     vdW  Elec       q    Type
REMARK                         _______ _______ _______ _____ _____    ______ ____
ROOT
ATOM     11  C   UNL     1       0.651   0.567  23.514  0.00  0.00    +0.135 C 
ATOM     12  C   UNL     1       0.276  -0.132  23.287  0.00  0.00    +0.162 C 
ATOM     13  O   UNL     1      -0.524  -0.064  23.473  0.00  0.00    -0.350 OA
ATOM     14  C   UNL     1      -0.645   0.677  23.816  0.00  0.00    +0.166 C 
ATOM     26  C   UNL     1       0.081   1.067  23.841  0.00  0.00    +0.199 C 
ATOM     27  O   UNL     1       0.215   1.823  24.141  0.00  0.00    -0.219 OA
ENDROOT
BRANCH  11  10
ATOM     10  N   UNL     1       1.454   0.736  23.430  0.00  0.00    -0.209 NA
BRANCH  10   9
ATOM      9  C   UNL     1       1.921   0.282  22.924  0.00  0.00    +0.115 C 
BRANCH   9   8
ATOM      5  C   UNL     1       4.379   0.251  23.202  0.00  0.00    +0.106 A 
ATOM      6  C   UNL     1       4.006   0.926  22.907  0.00  0.00    +0.018 A 
ATOM      7  C   UNL     1       3.186   0.936  22.814  0.00  0.00    -0.002 A 
ATOM      8  C   UNL     1       2.740   0.272  23.017  0.00  0.00    -0.005 A 
ATOM     28  C   UNL     1       3.113  -0.402  23.311  0.00  0.00    -0.002 A 
ATOM     29  C   UNL     1       3.933  -0.412  23.404  0.00  0.00    +0.018 A 
BRANCH   5   2
ATOM      1  C   UNL     1       6.018   0.231  23.387  0.00  0.00    +0.182 C 
ATOM      2  S   UNL     1       5.200   0.241  23.295  0.00  0.00    +0.010 S 
ATOM      3  O   UNL     1       5.284  -0.020  22.517  0.00  0.00    -0.169 OA
ATOM      4  O   UNL     1       5.115   0.502  24.073  0.00  0.00    -0.169 OA
ENDBRANCH   5   2
ENDBRANCH   9   8
ENDBRANCH  10   9
ENDBRANCH  11  10
BRANCH  14  15
ATOM     15  C   UNL     1      -1.366   0.975  24.085  0.00  0.00    +0.148 C 
BRANCH  15  16
ATOM     16  N   UNL     1      -2.058   0.539  23.978  0.00  0.00    -0.075 NA
BRANCH  16  17
ATOM     17  S   UNL     1      -2.785   0.857  24.205  0.00  0.00    +0.077 S 
ATOM     18  O   UNL     1      -2.606   0.702  24.995  0.00  0.00    -0.152 OA
ATOM     19  O   UNL     1      -2.962   1.013  23.414  0.00  0.00    -0.152 OA
BRANCH  17  20
ATOM     20  C   UNL     1      -3.511   1.176  24.431  0.00  0.00    +0.124 A 
ATOM     21  C   UNL     1      -3.676   1.971  24.283  0.00  0.00    +0.020 A 
ATOM     22  C   UNL     1      -4.403   2.290  24.509  0.00  0.00    +0.001 A 
ATOM     23  C   UNL     1      -4.964   1.814  24.884  0.00  0.00    +0.000 A 
ATOM     24  C   UNL     1      -4.798   1.021  25.032  0.00  0.00    +0.001 A 
ATOM     25  C   UNL     1      -4.071   0.701  24.805  0.00  0.00    +0.020 A 
ENDBRANCH  17  20
ENDBRANCH  16  17
ENDBRANCH  15  16
ENDBRANCH  14  15
TORSDOF 8
ENDMDL
MODEL 4
REMARK VINA RESULT:      -9.1      1.152      5.939
REMARK  Name = 
REMARK  8 active torsions:
REMARK  status: ('A' for Active; 'I' for Inactive)
REMARK    1  A    between atoms: S_2  and  C_5
REMARK    2  A    between atoms: C_8  and  C_9
REMARK    3  A    between atoms: C_9  and  N_10
REMARK    4  A    between atoms: N_10  and  C_11
REMARK    5  A    between atoms: C_14  and  C_15
REMARK    6  A    between atoms: C_15  and  N_16
REMARK    7  A    between atoms: N_16  and  S_17
REMARK    8  A    between atoms: S_17  and  C_20
REMARK                            x       y       z     vdW  Elec       q    Type
REMARK                         _______ _______ _______ _____ _____    ______ ____
ROOT
ATOM     11  C   UNL     1      -4.484   2.111  24.905  0.00  0.00    +0.135 C 
ATOM     12  C   UNL     1      -5.027   1.853  25.470  0.00  0.00    +0.162 C 
ATOM     13  O   UNL     1      -5.085   1.033  25.412  0.00  0.00    -0.350 OA
ATOM     14  C   UNL     1      -4.577   0.783  24.812  0.00  0.00    +0.166 C 
ATOM     26  C   UNL     1      -4.205   1.449  24.498  0.00  0.00    +0.199 C 
ATOM     27  O   UNL     1      -3.653   1.454  23.886  0.00  0.00    -0.219 OA
ENDROOT
BRANCH  11  10
ATOM     10  N   UNL     1      -4.258   2.893  24.771  0.00  0.00    -0.209 NA
BRANCH  10   9
ATOM      9  C   UNL     1      -3.966   3.351  25.392  0.00  0.00    +0.115 C 
BRANCH   9   8
ATOM      5  C   UNL     1      -1.878   4.645  25.099  0.00  0.00    +0.106 A 
ATOM      6  C   UNL     1      -1.980   4.174  25.768  0.00  0.00    +0.018 A 
ATOM      7  C   UNL     1      -2.676   3.743  25.866  0.00  0.00    -0.002 A 
ATOM      8  C   UNL     1      -3.270   3.782  25.294  0.00  0.00    -0.005 A 
ATOM     28  C   UNL     1      -3.167   4.254  24.625  0.00  0.00    -0.002 A 
ATOM     29  C   UNL     1      -2.471   4.685  24.527  0.00  0.00    +0.018 A 
BRANCH   5   2
ATOM      1  C   UNL     1      -0.485   5.509  24.903  0.00  0.00    +0.182 C 
ATOM      2  S   UNL     1      -1.181   5.078  25.001  0.00  0.00    +0.010 S 
ATOM      3  O   UNL     1      -1.589   5.775  25.169  0.00  0.00    -0.169 OA
ATOM      4  O   UNL     1      -0.772   4.381  24.833  0.00  0.00    -0.169 OA
ENDBRANCH   5   2
ENDBRANCH   9   8
ENDBRANCH  10   9
ENDBRANCH  11  10
BRANCH  14  15
ATOM     15  C   UNL     1      -4.461   0.003  24.567  0.00  0.00    +0.148 C 
BRANCH  15  16
ATOM     16  N   UNL     1      -4.315  -0.587  25.126  0.00  0.00    -0.075 NA
BRANCH  16  17
ATOM     17  S   UNL     1      -3.895  -1.263  24.911  0.00  0.00    +0.077 S 
ATOM     18  O   UNL     1      -4.361  -1.338  24.235  0.00  0.00    -0.152 OA
ATOM     19  O   UNL     1      -3.428  -1.187  25.587  0.00  0.00    -0.152 OA
BRANCH  17  20
ATOM     20  C   UNL     1      -3.474  -1.939  24.696  0.00  0.00    +0.124 A 
ATOM     21  C   UNL     1      -2.649  -1.941  24.734  0.00  0.00    +0.020 A 
ATOM     22  C   UNL     1      -2.228  -2.617  24.518  0.00  0.00    +0.001 A 
ATOM     23  C   UNL     1      -2.632  -3.291  24.265  0.00  0.00    +0.000 A 
ATOM     24  C   UNL     1      -3.455  -3.289  24.228  0.00  0.00    +0.001 A 
ATOM     25  C   UNL     1      -3.877  -2.612  24.443  0.00  0.00    +0.020 A 
ENDBRANCH  17  20
ENDBRANCH  16  17
ENDBRANCH  15  16
ENDBRANCH  14  15
TORSDOF 8
ENDMDL
MODEL 5
REMARK VINA RESULT:      -8.9      2.051      6.519
REMARK  Name = 
REMARK  8 active torsions:
REMARK  status: ('A' for Active; 'I' for Inactive)
REMARK    1  A    between atoms: S_2  and  C_5
REMARK    2  A    between atoms: C_8  and  C_9
REMARK    3  A    between atoms: C_9  and  N_10
REMARK    4  A    between atoms: N_10  and  C_11
REMARK    5  A    between atoms: C_14  and  C_15
REMARK    6  A    between atoms: C_15  and  N_16
REMARK    7  A    between atoms: N_16  and  S_17
REMARK    8  A    between atoms: S_17  and  C_20
REMARK                            x       y       z     vdW  Elec       q    Type
REMARK                         _______ _______ _______ _____ _____    ______ ____
ROOT
ATOM     11  C   UNL     1      -0.685   0.913  25.282  0.00  0.00    +0.135 C 
ATOM     12  C   UNL     1      -0.660   0.527  26.010  0.00  0.00    +0.162 C 
ATOM     13  O   UNL     1      -0.980  -0.227  25.910  0.00  0.00    -0.350 OA
ATOM     14  C   UNL     1      -1.202  -0.307  25.120  0.00  0.00    +0.166 C 
ATOM     26  C   UNL     1      -1.020   0.397  24.731  0.00  0.00    +0.199 C 
ATOM     27  O   UNL     1      -1.150   0.558  23.933  0.00  0.00    -0.219 OA
ENDROOT
BRANCH  11  10
ATOM     10  N   UNL     1      -0.421   1.679  25.130  0.00  0.00    -0.209 NA
BRANCH  10   9
ATOM      9  C   UNL     1      -0.455   2.253  25.722  0.00  0.00    +0.115 C 
BRANCH   9   8
ATOM      5  C   UNL     1      -1.243   4.537  25.190  0.00  0.00    +0.106 A 
ATOM      6  C   UNL     1      -1.653   4.077  25.738  0.00  0.00    +0.018 A 
ATOM      7  C   UNL     1      -1.391   3.315  25.916  0.00  0.00    -0.002 A 
ATOM      8  C   UNL     1      -0.717   3.014  25.545  0.00  0.00    -0.005 A 
ATOM     28  C   UNL     1      -0.308   3.475  24.997  0.00  0.00    -0.002 A 
ATOM     29  C   UNL     1      -0.571   4.236  24.819  0.00  0.00    +0.018 A 
BRANCH   5   2
ATOM      1  C   UNL     1      -1.769   6.060  24.836  0.00  0.00    +0.182 C 
ATOM      2  S   UNL     1      -1.506   5.300  25.013  0.00  0.00    +0.010 S 
ATOM      3  O   UNL     1      -2.288   5.049  25.094  0.00  0.00    -0.169 OA
ATOM      4  O   UNL     1      -0.724   5.550  24.931  0.00  0.00    -0.169 OA
ENDBRANCH   5   2
ENDBRANCH   9   8
ENDBRANCH  10   9
ENDBRANCH  11  10
BRANCH  14  15
ATOM     15  C   UNL     1      -1.546  -0.975  24.778  0.00  0.00    +0.148 C 
BRANCH  15  16
ATOM     16  N   UNL     1      -2.070  -1.439  25.216  0.00  0.00    -0.075 NA
BRANCH  16  17
ATOM     17  S   UNL     1      -2.687  -1.833  24.837  0.00  0.00    +0.077 S 
ATOM     18  O   UNL     1      -2.145  -2.197  24.333  0.00  0.00    -0.152 OA
ATOM     19  O   UNL     1      -3.230  -1.468  25.341  0.00  0.00    -0.152 OA
BRANCH  17  20
ATOM     20  C   UNL     1      -3.305  -2.227  24.457  0.00  0.00    +0.124 A 
ATOM     21  C   UNL     1      -3.878  -1.797  24.047  0.00  0.00    +0.020 A 
ATOM     22  C   UNL     1      -4.496  -2.191  23.667  0.00  0.00    +0.001 A 
ATOM     23  C   UNL     1      -4.540  -3.015  23.698  0.00  0.00    +0.000 A 
ATOM     24  C   UNL     1      -3.967  -3.443  24.107  0.00  0.00    +0.001 A 
ATOM     25  C   UNL     1      -3.349  -3.050  24.487  0.00  0.00    +0.020 A 
ENDBRANCH  17  20
ENDBRANCH  16  17
ENDBRANCH  15  16
ENDBRANCH  14  15
TORSDOF 8
ENDMDL
MODEL 6
REMARK VINA RESULT:      -8.8      1.988      2.495
REMARK  Name = 
REMARK  8 active torsions:
REMARK  status: ('A' for Active; 'I' for Inactive)
REMARK    1  A    between atoms: S_2  and  C_5
REMARK    2  A    between atoms: C_8  and  C_9
REMARK    3  A    between atoms: C_9  and  N_10
REMARK    4  A    between atoms: N_10  and  C_11
REMARK    5  A    between atoms: C_14  and  C_15
REMARK    6  A    between atoms: C_15  and  N_16
REMARK    7  A    between atoms: N_16  and  S_17
REMARK    8  A    between atoms: S_17  and  C_20
REMARK                            x       y       z     vdW  Elec       q    Type
REMARK                         _______ _______ _______ _____ _____    ______ ____
ROOT
ATOM     11  C   UNL     1      -0.933   0.131  25.216  0.00  0.00    +0.135 C 
ATOM     12  C   UNL     1      -0.719   0.292  25.996  0.00  0.00    +0.162 C 
ATOM     13  O   UNL     1      -0.546   1.096  26.053  0.00  0.00    -0.350 OA
ATOM     14  C   UNL     1      -0.654   1.433  25.307  0.00  0.00    +0.166 C 
ATOM     26  C   UNL     1      -0.893   0.837  24.790  0.00  0.00    +0.199 C 
ATOM     27  O   UNL     1      -1.062   0.930  23.989  0.00  0.00    -0.219 OA
ENDROOT
BRANCH  11  10
ATOM     10  N   UNL     1      -1.149  -0.605  24.915  0.00  0.00    -0.209 NA
BRANCH  10   9
ATOM      9  C   UNL     1      -1.597  -1.124  25.373  0.00  0.00    +0.115 C 
BRANCH   9   8
ATOM      5  C   UNL     1      -3.447  -2.406  24.345  0.00  0.00    +0.106 A 
ATOM      6  C   UNL     1      -2.665  -2.576  24.143  0.00  0.00    +0.018 A 
ATOM      7  C   UNL     1      -2.048  -2.149  24.486  0.00  0.00    -0.002 A 
ATOM      8  C   UNL     1      -2.213  -1.551  25.031  0.00  0.00    -0.005 A 
ATOM     28  C   UNL     1      -2.995  -1.382  25.233  0.00  0.00    -0.002 A 
ATOM     29  C   UNL     1      -3.612  -1.810  24.890  0.00  0.00    +0.018 A 
BRANCH   5   2
ATOM      1  C   UNL     1      -4.680  -3.261  23.660  0.00  0.00    +0.182 C 
ATOM      2  S   UNL     1      -4.064  -2.834  24.002  0.00  0.00    +0.010 S 
ATOM      3  O   UNL     1      -4.364  -2.139  23.674  0.00  0.00    -0.169 OA
ATOM      4  O   UNL     1      -3.764  -3.530  24.330  0.00  0.00    -0.169 OA
ENDBRANCH   5   2
ENDBRANCH   9   8
ENDBRANCH  10   9
ENDBRANCH  11  10
BRANCH  14  15
ATOM     15  C   UNL     1      -0.541   2.228  25.114  0.00  0.00    +0.148 C 
BRANCH  15  16
ATOM     16  N   UNL     1      -0.623   2.809  25.694  0.00  0.00    -0.075 NA
BRANCH  16  17
ATOM     17  S   UNL     1      -0.870   3.568  25.484  0.00  0.00    +0.077 S 
ATOM     18  O   UNL     1      -0.247   3.623  24.947  0.00  0.00    -0.152 OA
ATOM     19  O   UNL     1      -1.494   3.512  26.022  0.00  0.00    -0.152 OA
BRANCH  17  20
ATOM     20  C   UNL     1      -1.118   4.326  25.275  0.00  0.00    +0.124 A 
ATOM     21  C   UNL     1      -1.884   4.574  25.456  0.00  0.00    +0.020 A 
ATOM     22  C   UNL     1      -2.132   5.333  25.247  0.00  0.00    +0.001 A 
ATOM     23  C   UNL     1      -1.613   5.843  24.857  0.00  0.00    +0.000 A 
ATOM     24  C   UNL     1      -0.849   5.595  24.676  0.00  0.00    +0.001 A 
ATOM     25  C   UNL     1      -0.600   4.836  24.886  0.00  0.00    +0.020 A 
ENDBRANCH  17  20
ENDBRANCH  16  17
ENDBRANCH  15  16
ENDBRANCH  14  15
TORSDOF 8
ENDMDL
MODEL 7
REMARK VINA RESULT:      -8.5     17.878     19.007
REMARK  Name = 
REMARK  8 active torsions:
REMARK  status: ('A' for Active; 'I' for Inactive)
REMARK    1  A    between atoms: S_2  and  C_5
REMARK    2  A    between atoms: C_8  and  C_9
REMARK    3  A    between atoms: C_9  and  N_10
REMARK    4  A    between atoms: N_10  and  C_11
REMARK    5  A    between atoms: C_14  and  C_15
REMARK    6  A    between atoms: C_15  and  N_16
REMARK    7  A    between atoms: N_16  and  S_17
REMARK    8  A    between atoms: S_17  and  C_20
REMARK                            x       y       z     vdW  Elec       q    Type
REMARK                         _______ _______ _______ _____ _____    ______ ____
ROOT
ATOM     11  C   UNL     1      -6.654  -8.485   9.267  0.00  0.00    +0.135 C 
ATOM     12  C   UNL     1      -6.351  -8.930   8.643  0.00  0.00    +0.162 C 
ATOM     13  O   UNL     1      -5.650  -9.281   8.897  0.00  0.00    -0.350 OA
ATOM     14  C   UNL     1      -5.520  -9.054   9.680  0.00  0.00    +0.166 C 
ATOM     26  C   UNL     1      -6.140  -8.561   9.908  0.00  0.00    +0.199 C 
ATOM     27  O   UNL     1      -6.232  -8.208  10.648  0.00  0.00    -0.219 OA
ENDROOT
BRANCH  11  10
ATOM     10  N   UNL     1      -7.349  -8.041   9.253  0.00  0.00    -0.209 NA
BRANCH  10   9
ATOM      9  C   UNL     1      -7.681  -7.815   8.533  0.00  0.00    +0.115 C 
BRANCH   9   8
ATOM      5  C   UNL     1      -9.450  -6.087   8.470  0.00  0.00    +0.106 A 
ATOM      6  C   UNL     1      -8.714  -5.935   8.129  0.00  0.00    +0.018 A 
ATOM      7  C   UNL     1      -8.124  -6.512   8.150  0.00  0.00    -0.002 A 
ATOM      8  C   UNL     1      -8.270  -7.239   8.512  0.00  0.00    -0.005 A 
ATOM     28  C   UNL     1      -9.007  -7.389   8.852  0.00  0.00    -0.002 A 
ATOM     29  C   UNL     1      -9.596  -6.813   8.832  0.00  0.00    +0.018 A 
BRANCH   5   2
ATOM      1  C   UNL     1     -10.630  -4.934   8.429  0.00  0.00    +0.182 C 
ATOM      2  S   UNL     1     -10.041  -5.509   8.450  0.00  0.00    +0.010 S 
ATOM      3  O   UNL     1     -10.565  -6.058   8.126  0.00  0.00    -0.169 OA
ATOM      4  O   UNL     1      -9.516  -4.961   8.773  0.00  0.00    -0.169 OA
ENDBRANCH   5   2
ENDBRANCH   9   8
ENDBRANCH  10   9
ENDBRANCH  11  10
BRANCH  14  15
ATOM     15  C   UNL     1      -4.880  -9.279  10.151  0.00  0.00    +0.148 C 
BRANCH  15  16
ATOM     16  N   UNL     1      -4.165  -9.495   9.800  0.00  0.00    -0.075 NA
BRANCH  16  17
ATOM     17  S   UNL     1      -3.506  -9.650  10.270  0.00  0.00    +0.077 S 
ATOM     18  O   UNL     1      -3.246  -8.875  10.162  0.00  0.00    -0.152 OA
ATOM     19  O   UNL     1      -3.766 -10.426  10.378  0.00  0.00    -0.152 OA
BRANCH  17  20
ATOM     20  C   UNL     1      -2.846  -9.805  10.740  0.00  0.00    +0.124 A 
ATOM     21  C   UNL     1      -2.212  -9.277  10.747  0.00  0.00    +0.020 A 
ATOM     22  C   UNL     1      -1.551  -9.431  11.218  0.00  0.00    +0.001 A 
ATOM     23  C   UNL     1      -1.526 -10.114  11.681  0.00  0.00    +0.000 A 
ATOM     24  C   UNL     1      -2.160 -10.641  11.674  0.00  0.00    +0.001 A 
ATOM     25  C   UNL     1      -2.820 -10.486  11.204  0.00  0.00    +0.020 A 
ENDBRANCH  17  20
ENDBRANCH  16  17
ENDBRANCH  15  16
ENDBRANCH  14  15
TORSDOF 8
ENDMDL
MODEL 8
REMARK VINA RESULT:      -8.1     14.240     16.837
REMARK  Name = 
REMARK  8 active torsions:
REMARK  status: ('A' for Active; 'I' for Inactive)
REMARK    1  A    between atoms: S_2  and  C_5
REMARK    2  A    between atoms: C_8  and  C_9
REMARK    3  A    between atoms: C_9  and  N_10
REMARK    4  A    between atoms: N_10  and  C_11
REMARK    5  A    between atoms: C_14  and  C_15
REMARK    6  A    between atoms: C_15  and  N_16
REMARK    7  A    between atoms: N_16  and  S_17
REMARK    8  A    between atoms: S_17  and  C_20
REMARK                            x       y       z     vdW  Elec       q    Type
REMARK                         _______ _______ _______ _____ _____    ______ ____
ROOT
ATOM     11  C   UNL     1      -4.622 -10.416  13.485  0.00  0.00    +0.135 C 
ATOM     12  C   UNL     1      -3.881 -10.465  13.843  0.00  0.00    +0.162 C 
ATOM     13  O   UNL     1      -3.996 -10.558  14.654  0.00  0.00    -0.350 OA
ATOM     14  C   UNL     1      -4.808 -10.567  14.798  0.00  0.00    +0.166 C 
ATOM     26  C   UNL     1      -5.196 -10.478  14.075  0.00  0.00    +0.199 C 
ATOM     27  O   UNL     1      -6.012 -10.457  13.962  0.00  0.00    -0.219 OA
ENDROOT
BRANCH  11  10
ATOM     10  N   UNL     1      -4.765 -10.320  12.678  0.00  0.00    -0.209 NA
BRANCH  10   9
ATOM      9  C   UNL     1      -4.187  -9.986  12.193  0.00  0.00    +0.115 C 
BRANCH   9   8
ATOM      5  C   UNL     1      -4.592  -9.758   9.763  0.00  0.00    +0.106 A 
ATOM      6  C   UNL     1      -4.211 -10.429  10.056  0.00  0.00    +0.018 A 
ATOM      7  C   UNL     1      -4.077 -10.505  10.866  0.00  0.00    -0.002 A 
ATOM      8  C   UNL     1      -4.322  -9.910  11.383  0.00  0.00    -0.005 A 
ATOM     28  C   UNL     1      -4.702  -9.240  11.089  0.00  0.00    -0.002 A 
ATOM     29  C   UNL     1      -4.837  -9.164  10.279  0.00  0.00    +0.018 A 
BRANCH   5   2
ATOM      1  C   UNL     1      -4.861  -9.605   8.142  0.00  0.00    +0.182 C 
ATOM      2  S   UNL     1      -4.727  -9.681   8.951  0.00  0.00    +0.010 S 
ATOM      3  O   UNL     1      -5.518  -9.888   9.064  0.00  0.00    -0.169 OA
ATOM      4  O   UNL     1      -3.936  -9.475   8.839  0.00  0.00    -0.169 OA
ENDBRANCH   5   2
ENDBRANCH   9   8
ENDBRANCH  10   9
ENDBRANCH  11  10
BRANCH  14  15
ATOM     15  C   UNL     1      -5.170 -10.649  15.535  0.00  0.00    +0.148 C 
BRANCH  15  16
ATOM     16  N   UNL     1      -4.929 -10.177  16.168  0.00  0.00    -0.075 NA
BRANCH  16  17
ATOM     17  S   UNL     1      -5.263 -10.286  16.914  0.00  0.00    +0.077 S 
ATOM     18  O   UNL     1      -4.605 -10.728  17.144  0.00  0.00    -0.152 OA
ATOM     19  O   UNL     1      -5.921  -9.845  16.683  0.00  0.00    -0.152 OA
BRANCH  17  20
ATOM     20  C   UNL     1      -5.597 -10.396  17.660  0.00  0.00    +0.124 A 
ATOM     21  C   UNL     1      -6.396 -10.229  17.782  0.00  0.00    +0.020 A 
ATOM     22  C   UNL     1      -6.731 -10.338  18.529  0.00  0.00    +0.001 A 
ATOM     23  C   UNL     1      -6.266 -10.615  19.152  0.00  0.00    +0.000 A 
ATOM     24  C   UNL     1      -5.469 -10.781  19.030  0.00  0.00    +0.001 A 
ATOM     25  C   UNL     1      -5.134 -10.672  18.283  0.00  0.00    +0.020 A 
ENDBRANCH  17  20
ENDBRANCH  16  17
ENDBRANCH  15  16
ENDBRANCH  14  15
TORSDOF 8
ENDMDL
MODEL 9
REMARK VINA RESULT:      -8.0     14.092     16.601
REMARK  Name = 
REMARK  8 active torsions:
REMARK  status: ('A' for Active; 'I' for Inactive)
REMARK    1  A    between atoms: S_2  and  C_5
REMARK    2  A    between atoms: C_8  and  C_9
REMARK    3  A    between atoms: C_9  and  N_10
REMARK    4  A    between atoms: N_10  and  C_11
REMARK    5  A    between atoms: C_14  and  C_15
REMARK    6  A    between atoms: C_15  and  N_16
REMARK    7  A    between atoms: N_16  and  S_17
REMARK    8  A    between atoms: S_17  and  C_20
REMARK                            x       y       z     vdW  Elec       q    Type
REMARK                         _______ _______ _______ _____ _____    ______ ____
ROOT
ATOM     11  C   UNL     1      -5.932 -10.005  13.583  0.00  0.00    +0.135 C 
ATOM     12  C   UNL     1      -6.697  -9.786  13.800  0.00  0.00    +0.162 C 
ATOM     13  O   UNL     1      -6.773  -9.896  14.614  0.00  0.00    -0.350 OA
ATOM     14  C   UNL     1      -6.054 -10.184  14.900  0.00  0.00    +0.166 C 
ATOM     26  C   UNL     1      -5.535 -10.251  14.264  0.00  0.00    +0.199 C 
ATOM     27  O   UNL     1      -4.755 -10.518  14.300  0.00  0.00    -0.219 OA
ENDROOT
BRANCH  11  10
ATOM     10  N   UNL     1      -5.619  -9.983  12.820  0.00  0.00    -0.209 NA
BRANCH  10   9
ATOM      9  C   UNL     1      -5.989  -9.535  12.235  0.00  0.00    +0.115 C 
BRANCH   9   8
ATOM      5  C   UNL     1      -4.978  -9.359   9.984  0.00  0.00    +0.106 A 
ATOM      6  C   UNL     1      -5.027  -8.692  10.467  0.00  0.00    +0.018 A 
ATOM      7  C   UNL     1      -5.364  -8.751  11.218  0.00  0.00    -0.002 A 
ATOM      8  C   UNL     1      -5.652  -9.476  11.485  0.00  0.00    -0.005 A 
ATOM     28  C   UNL     1      -5.603 -10.143  11.001  0.00  0.00    -0.002 A 
ATOM     29  C   UNL     1      -5.266 -10.084  10.251  0.00  0.00    +0.018 A 
BRANCH   5   2
ATOM      1  C   UNL     1      -4.303  -9.242   8.483  0.00  0.00    +0.182 C 
ATOM      2  S   UNL     1      -4.640  -9.301   9.232  0.00  0.00    +0.010 S 
ATOM      3  O   UNL     1      -5.391  -9.339   8.892  0.00  0.00    -0.169 OA
ATOM      4  O   UNL     1      -3.890  -9.262   9.573  0.00  0.00    -0.169 OA
ENDBRANCH   5   2
ENDBRANCH   9   8
ENDBRANCH  10   9
ENDBRANCH  11  10
BRANCH  14  15
ATOM     15  C   UNL     1      -5.885 -10.371  15.686  0.00  0.00    +0.148 C 
BRANCH  15  16
ATOM     16  N   UNL     1      -6.232  -9.937  16.297  0.00  0.00    -0.075 NA
BRANCH  16  17
ATOM     17  S   UNL     1      -6.093 -10.148  17.082  0.00  0.00    +0.077 S 
ATOM     18  O   UNL     1      -6.785 -10.597  17.085  0.00  0.00    -0.152 OA
ATOM     19  O   UNL     1      -5.400  -9.700  17.079  0.00  0.00    -0.152 OA
BRANCH  17  20
ATOM     20  C   UNL     1      -5.954 -10.359  17.867  0.00  0.00    +0.124 A 
ATOM     21  C   UNL     1      -6.576 -10.365  18.409  0.00  0.00    +0.020 A 
ATOM     22  C   UNL     1      -6.437 -10.576  19.195  0.00  0.00    +0.001 A 
ATOM     23  C   UNL     1      -5.675 -10.781  19.438  0.00  0.00    +0.000 A 
ATOM     24  C   UNL     1      -5.054 -10.776  18.897  0.00  0.00    +0.001 A 
ATOM     25  C   UNL     1      -5.193 -10.565  18.111  0.00  0.00    +0.020 A 
ENDBRANCH  17  20
ENDBRANCH  16  17
ENDBRANCH  15  16
ENDBRANCH  14  15
TORSDOF 8
ENDMDL
MODEL 10
REMARK VINA RESULT:      -7.3     14.684     16.772
REMARK  Name = 
REMARK  8 active torsions:
REMARK  status: ('A' for Active; 'I' for Inactive)
REMARK    1  A    between atoms: S_2  and  C_5
REMARK    2  A    between atoms: C_8  and  C_9
REMARK    3  A    between atoms: C_9  and  N_10
REMARK    4  A    between atoms: N_10  and  C_11
REMARK    5  A    between atoms: C_14  and  C_15
REMARK    6  A    between atoms: C_15  and  N_16
REMARK    7  A    between atoms: N_16  and  S_17
REMARK    8  A    between atoms: S_17  and  C_20
REMARK                            x       y       z     vdW  Elec       q    Type
REMARK                         _______ _______ _______ _____ _____    ______ ____
ROOT
ATOM     11  C   UNL     1      -6.269 -10.001  13.684  0.00  0.00    +0.135 C 
ATOM     12  C   UNL     1      -5.748 -10.033  14.322  0.00  0.00    +0.162 C 
ATOM     13  O   UNL     1      -6.194 -10.045  15.015  0.00  0.00    -0.350 OA
ATOM     14  C   UNL     1      -6.992 -10.021  14.806  0.00  0.00    +0.166 C 
ATOM     26  C   UNL     1      -7.039  -9.994  13.983  0.00  0.00    +0.199 C 
ATOM     27  O   UNL     1      -7.732  -9.965  13.538  0.00  0.00    -0.219 OA
ENDROOT
BRANCH  11  10
ATOM     10  N   UNL     1      -6.059  -9.981  12.887  0.00  0.00    -0.209 NA
BRANCH  10   9
ATOM      9  C   UNL     1      -5.293  -9.769  12.667  0.00  0.00    +0.115 C 
BRANCH   9   8
ATOM      5  C   UNL     1      -4.726  -9.477  10.276  0.00  0.00    +0.106 A 
ATOM      6  C   UNL     1      -5.045  -8.847  10.704  0.00  0.00    +0.018 A 
ATOM      7  C   UNL     1      -5.234  -8.945  11.501  0.00  0.00    -0.002 A 
ATOM      8  C   UNL     1      -5.104  -9.672  11.870  0.00  0.00    -0.005 A 
ATOM     28  C   UNL     1      -4.786 -10.301  11.442  0.00  0.00    -0.002 A 
ATOM     29  C   UNL     1      -4.597 -10.203  10.644  0.00  0.00    +0.018 A 
BRANCH   5   2
ATOM      1  C   UNL     1      -4.348  -9.282   8.682  0.00  0.00    +0.182 C 
ATOM      2  S   UNL     1      -4.537  -9.379   9.478  0.00  0.00    +0.010 S 
ATOM      3  O   UNL     1      -3.774  -9.146   9.687  0.00  0.00    -0.169 OA
ATOM      4  O   UNL     1      -5.300  -9.612   9.269  0.00  0.00    -0.169 OA
ENDBRANCH   5   2
ENDBRANCH   9   8
ENDBRANCH  10   9
ENDBRANCH  11  10
BRANCH  14  15
ATOM     15  C   UNL     1      -7.631 -10.023  15.329  0.00  0.00    +0.148 C 
BRANCH  15  16
ATOM     16  N   UNL     1      -7.515  -9.832  16.123  0.00  0.00    -0.075 NA
BRANCH  16  17
ATOM     17  S   UNL     1      -8.164  -9.719  16.619  0.00  0.00    +0.077 S 
ATOM     18  O   UNL     1      -8.311 -10.531  16.612  0.00  0.00    -0.152 OA
ATOM     19  O   UNL     1      -8.017  -8.907  16.625  0.00  0.00    -0.152 OA
BRANCH  17  20
ATOM     20  C   UNL     1      -8.814  -9.606  17.114  0.00  0.00    +0.124 A 
ATOM     21  C   UNL     1      -8.970 -10.145  17.719  0.00  0.00    +0.020 A 
ATOM     22  C   UNL     1      -9.620 -10.032  18.215  0.00  0.00    +0.001 A 
ATOM     23  C   UNL     1     -10.113  -9.380  18.105  0.00  0.00    +0.000 A 
ATOM     24  C   UNL     1      -9.957  -8.842  17.501  0.00  0.00    +0.001 A 
ATOM     25  C   UNL     1      -9.307  -8.954  17.005  0.00  0.00    +0.020 A 
ENDBRANCH  17  20
ENDBRANCH  16  17
ENDBRANCH  15  16
ENDBRANCH  14  15
TORSDOF 8
ENDMDL
