MODEL 1
REMARK VINA RESULT:     -11.7      0.000      0.000
REMARK  Name = 
REMARK  8 active torsions:
REMARK  status: ('A' for Active; 'I' for Inactive)
REMARK    1  A    between atoms: C_2  and  C_3
REMARK    2  A    between atoms: C_3  and  C_4
REMARK    3  A    between atoms: C_9  and  C_10
REMARK    4  A    between atoms: C_10  and  C_11
REMARK    5  A    between atoms: C_14  and  C_15
REMARK    6  A    between atoms: C_15  and  S_16
REMARK    7  A    between atoms: S_16  and  C_17
REMARK    8  A    between atoms: N_24  and  C_25
REMARK                            x       y       z     vdW  Elec       q    Type
REMARK                         _______ _______ _______ _____ _____    ______ ____
ROOT
ATOM      4  C   UNL     1      -0.569  -0.024  24.623  0.00  0.00    +0.012 C 
ATOM      5  C   UNL     1      -0.258  -0.401  23.958  0.00  0.00    +0.019 C 
ATOM      6  C   UNL     1       0.231   0.015  23.440  0.00  0.00    +0.089 C 
ATOM      7  N   UNL     1       0.410   0.806  23.586  0.00  0.00    -0.218 NA
ATOM      8  C   UNL     1       0.099   1.183  24.250  0.00  0.00    +0.089 C 
ATOM      9  C   UNL     1      -0.390   0.767  24.769  0.00  0.00    +0.024 C 
ENDROOT
BRANCH   4   3
ATOM      3  C   UNL     1      -1.058  -0.439  25.141  0.00  0.00    +0.087 C 
BRANCH   3   2
ATOM      1  O   UNL     1      -1.363  -1.560  24.310  0.00  0.00    -0.273 OA
ATOM      2  C   UNL     1      -1.604  -0.983  24.847  0.00  0.00    +0.246 C 
ATOM     24  N   UNL     1      -2.391  -0.949  25.090  0.00  0.00    -0.179 NA
BRANCH  24  25
ATOM     25  C   UNL     1      -2.938  -1.493  24.795  0.00  0.00    +0.073 A 
ATOM     26  C   UNL     1      -3.506  -1.251  24.248  0.00  0.00    +0.017 A 
ATOM     27  C   UNL     1      -4.052  -1.795  23.954  0.00  0.00    +0.001 A 
ATOM     28  C   UNL     1      -4.031  -2.581  24.207  0.00  0.00    +0.000 A 
ATOM     29  C   UNL     1      -3.462  -2.821  24.754  0.00  0.00    +0.001 A 
ATOM     30  C   UNL     1      -2.916  -2.278  25.048  0.00  0.00    +0.017 A 
ENDBRANCH  24  25
ENDBRANCH   3   2
ENDBRANCH   4   3
BRANCH   9  10
ATOM     10  C   UNL     1      -0.701   1.145  25.434  0.00  0.00    +0.051 C 
BRANCH  10  11
ATOM     11  C   UNL     1      -1.088   1.869  25.354  0.00  0.00    +0.100 A 
ATOM     12  N   UNL     1      -0.734   2.592  25.179  0.00  0.00    -0.082 NA
ATOM     13  O   UNL     1      -1.325   3.167  25.153  0.00  0.00    -0.357 OA
ATOM     14  C   UNL     1      -2.046   2.798  25.312  0.00  0.00    +0.165 A 
ATOM     23  C   UNL     1      -1.900   1.996  25.437  0.00  0.00    +0.054 A 
BRANCH  14  15
ATOM     15  C   UNL     1      -2.783   3.167  25.342  0.00  0.00    +0.129 C 
BRANCH  15  16
ATOM     16  S   UNL     1      -3.371   2.957  24.802  0.00  0.00    -0.105 S 
BRANCH  16  17
ATOM     17  C   UNL     1      -4.165   3.005  25.018  0.00  0.00    +0.026 A 
ATOM     18  C   UNL     1      -4.672   2.371  24.868  0.00  0.00    +0.006 A 
ATOM     19  C   UNL     1      -5.467   2.419  25.084  0.00  0.00    +0.001 A 
ATOM     20  C   UNL     1      -5.755   3.101  25.451  0.00  0.00    +0.000 A 
ATOM     21  C   UNL     1      -5.247   3.734  25.600  0.00  0.00    +0.001 A 
ATOM     22  C   UNL     1      -4.453   3.686  25.384  0.00  0.00    +0.006 A 
ENDBRANCH  16  17
ENDBRANCH  15  16
ENDBRANCH  14  15
ENDBRANCH  10  11
ENDBRANCH   9  10
TORSDOF 8
ENDMDL
MODEL 2
REMARK VINA RESULT:     -11.6      1.198      4.374
REMARK  Name = 
REMARK  8 active torsions:
REMARK  status: ('A' for Active; 'I' for Inactive)
REMARK    1  A    between atoms: C_2  and  C_3
REMARK    2  A    between atoms: C_3  and  C_4
REMARK    3  A    between atoms: C_9  and  C_10
REMARK    4  A    between atoms: C_10  and  C_11
REMARK    5  A    between atoms: C_14  and  C_15
REMARK    6  A    between atoms: C_15  and  S_16
REMARK    7  A    between atoms: S_16  and  C_17
REMARK    8  A    between atoms: N_24  and  C_25
REMARK                            x       y       z     vdW  Elec       q    Type
REMARK                         _______ _______ _______ _____ _____    ______ ____
ROOT
ATOM      4  C   UNL     1      -1.125   2.781  25.081  0.00  0.00    +0.012 C 
ATOM      5  C   UNL     1      -0.977   3.234  25.755  0.00  0.00    +0.019 C 
ATOM      6  C   UNL     1      -0.321   3.068  26.227  0.00  0.00    +0.089 C 
ATOM      7  N   UNL     1       0.187   2.452  26.025  0.00  0.00    -0.218 NA
ATOM      8  C   UNL     1       0.040   1.999  25.351  0.00  0.00    +0.089 C 
ATOM      9  C   UNL     1      -0.617   2.164  24.879  0.00  0.00    +0.024 C 
ENDROOT
BRANCH   4   3
ATOM      3  C   UNL     1      -1.781   2.946  24.609  0.00  0.00    +0.087 C 
BRANCH   3   2
ATOM      1  O   UNL     1      -2.576   3.353  25.724  0.00  0.00    -0.273 OA
ATOM      2  C   UNL     1      -2.521   3.058  24.956  0.00  0.00    +0.246 C 
ATOM     24  N   UNL     1      -3.205   2.874  24.535  0.00  0.00    -0.179 NA
BRANCH  24  25
ATOM     25  C   UNL     1      -3.947   2.985  24.882  0.00  0.00    +0.073 A 
ATOM     26  C   UNL     1      -4.382   2.334  25.141  0.00  0.00    +0.017 A 
ATOM     27  C   UNL     1      -5.123   2.446  25.487  0.00  0.00    +0.001 A 
ATOM     28  C   UNL     1      -5.427   3.208  25.575  0.00  0.00    +0.000 A 
ATOM     29  C   UNL     1      -4.990   3.858  25.316  0.00  0.00    +0.001 A 
ATOM     30  C   UNL     1      -4.250   3.747  24.970  0.00  0.00    +0.017 A 
ENDBRANCH  24  25
ENDBRANCH   3   2
ENDBRANCH   4   3
BRANCH   9  10
ATOM     10  C   UNL     1      -0.764   1.712  24.205  0.00  0.00    +0.051 C 
BRANCH  10  11
ATOM     11  C   UNL     1      -0.747   0.888  24.249  0.00  0.00    +0.100 A 
ATOM     12  N   UNL     1      -0.070   0.418  24.285  0.00  0.00    -0.082 NA
ATOM     13  O   UNL     1      -0.309  -0.371  24.323  0.00  0.00    -0.357 OA
ATOM     14  C   UNL     1      -1.134  -0.389  24.311  0.00  0.00    +0.165 A 
ATOM     23  C   UNL     1      -1.405   0.390  24.265  0.00  0.00    +0.054 A 
BRANCH  14  15
ATOM     15  C   UNL     1      -1.605  -1.065  24.339  0.00  0.00    +0.129 C 
BRANCH  15  16
ATOM     16  S   UNL     1      -2.334  -1.044  24.727  0.00  0.00    -0.105 S 
BRANCH  16  17
ATOM     17  C   UNL     1      -2.912  -1.604  24.548  0.00  0.00    +0.026 A 
ATOM     18  C   UNL     1      -3.602  -1.375  24.159  0.00  0.00    +0.006 A 
ATOM     19  C   UNL     1      -4.180  -1.935  23.980  0.00  0.00    +0.001 A 
ATOM     20  C   UNL     1      -4.069  -2.725  24.191  0.00  0.00    +0.000 A 
ATOM     21  C   UNL     1      -3.378  -2.954  24.581  0.00  0.00    +0.001 A 
ATOM     22  C   UNL     1      -2.800  -2.393  24.759  0.00  0.00    +0.006 A 
ENDBRANCH  16  17
ENDBRANCH  15  16
ENDBRANCH  14  15
ENDBRANCH  10  11
ENDBRANCH   9  10
TORSDOF 8
ENDMDL
MODEL 3
REMARK VINA RESULT:     -11.3      1.941      5.144
REMARK  Name = 
REMARK  8 active torsions:
REMARK  status: ('A' for Active; 'I' for Inactive)
REMARK    1  A    between atoms: C_2  and  C_3
REMARK    2  A    between atoms: C_3  and  C_4
REMARK    3  A    between atoms: C_9  and  C_10
REMARK    4  A    between atoms: C_10  and  C_11
REMARK    5  A    between atoms: C_14  and  C_15
REMARK    6  A    between atoms: C_15  and  S_16
REMARK    7  A    between atoms: S_16  and  C_17
REMARK    8  A    between atoms: N_24  and  C_25
REMARK                            x       y       z     vdW  Elec       q    Type
REMARK                         _______ _______ _______ _____ _____    ______ ____
ROOT
ATOM      4  C   UNL     1      -3.566   3.590  25.181  0.00  0.00    +0.012 C 
ATOM      5  C   UNL     1      -3.443   4.104  25.815  0.00  0.00    +0.019 C 
ATOM      6  C   UNL     1      -4.054   4.251  26.350  0.00  0.00    +0.089 C 
ATOM      7  N   UNL     1      -4.785   3.886  26.251  0.00  0.00    -0.218 NA
ATOM      8  C   UNL     1      -4.908   3.372  25.618  0.00  0.00    +0.089 C 
ATOM      9  C   UNL     1      -4.297   3.224  25.083  0.00  0.00    +0.024 C 
ENDROOT
BRANCH   4   3
ATOM      3  C   UNL     1      -2.955   3.442  24.647  0.00  0.00    +0.087 C 
BRANCH   3   2
ATOM      1  O   UNL     1      -1.782   4.059  25.178  0.00  0.00    -0.273 OA
ATOM      2  C   UNL     1      -2.177   3.386  24.914  0.00  0.00    +0.246 C 
ATOM     24  N   UNL     1      -1.794   2.655  24.917  0.00  0.00    -0.179 NA
BRANCH  24  25
ATOM     25  C   UNL     1      -1.015   2.599  25.184  0.00  0.00    +0.073 A 
ATOM     26  C   UNL     1      -0.391   2.610  24.643  0.00  0.00    +0.017 A 
ATOM     27  C   UNL     1       0.387   2.553  24.911  0.00  0.00    +0.001 A 
ATOM     28  C   UNL     1       0.542   2.485  25.719  0.00  0.00    +0.000 A 
ATOM     29  C   UNL     1      -0.082   2.475  26.259  0.00  0.00    +0.001 A 
ATOM     30  C   UNL     1      -0.860   2.531  25.991  0.00  0.00    +0.017 A 
ENDBRANCH  24  25
ENDBRANCH   3   2
ENDBRANCH   4   3
BRANCH   9  10
ATOM     10  C   UNL     1      -4.420   2.710  24.449  0.00  0.00    +0.051 C 
BRANCH  10  11
ATOM     11  C   UNL     1      -4.753   1.967  24.579  0.00  0.00    +0.100 A 
ATOM     12  N   UNL     1      -5.550   1.811  24.727  0.00  0.00    -0.082 NA
ATOM     13  O   UNL     1      -5.637   0.996  24.823  0.00  0.00    -0.357 OA
ATOM     14  C   UNL     1      -4.894   0.648  24.735  0.00  0.00    +0.165 A 
ATOM     23  C   UNL     1      -4.348   1.248  24.584  0.00  0.00    +0.054 A 
BRANCH  14  15
ATOM     15  C   UNL     1      -4.727  -0.158  24.787  0.00  0.00    +0.129 C 
BRANCH  15  16
ATOM     16  S   UNL     1      -4.036  -0.459  24.450  0.00  0.00    -0.105 S 
BRANCH  16  17
ATOM     17  C   UNL     1      -3.892  -1.271  24.460  0.00  0.00    +0.026 A 
ATOM     18  C   UNL     1      -3.402  -1.595  25.039  0.00  0.00    +0.006 A 
ATOM     19  C   UNL     1      -3.258  -2.407  25.049  0.00  0.00    +0.001 A 
ATOM     20  C   UNL     1      -3.604  -2.895  24.481  0.00  0.00    +0.000 A 
ATOM     21  C   UNL     1      -4.095  -2.570  23.902  0.00  0.00    +0.001 A 
ATOM     22  C   UNL     1      -4.238  -1.758  23.892  0.00  0.00    +0.006 A 
ENDBRANCH  16  17
ENDBRANCH  15  16
ENDBRANCH  14  15
ENDBRANCH  10  11
ENDBRANCH   9  10
TORSDOF 8
ENDMDL
MODEL 4
REMARK VINA RESULT:     -11.3      1.975      5.705
REMARK  Name = 
REMARK  8 active torsions:
REMARK  status: ('A' for Active; 'I' for Inactive)
REMARK    1  A    between atoms: C_2  and  C_3
REMARK    2  A    between atoms: C_3  and  C_4
REMARK    3  A    between atoms: C_9  and  C_10
REMARK    4  A    between atoms: C_10  and  C_11
REMARK    5  A    between atoms: C_14  and  C_15
REMARK    6  A    between atoms: C_15  and  S_16
REMARK    7  A    between atoms: S_16  and  C_17
REMARK    8  A    between atoms: N_24  and  C_25
REMARK                            x       y       z     vdW  Elec       q    Type
REMARK                         _______ _______ _______ _____ _____    ______ ____
ROOT
ATOM      4  C   UNL     1      -4.706   2.922  25.036  0.00  0.00    +0.012 C 
ATOM      5  C   UNL     1      -5.001   3.369  25.665  0.00  0.00    +0.019 C 
ATOM      6  C   UNL     1      -5.567   3.047  26.170  0.00  0.00    +0.089 C 
ATOM      7  N   UNL     1      -5.839   2.278  26.048  0.00  0.00    -0.218 NA
ATOM      8  C   UNL     1      -5.545   1.831  25.421  0.00  0.00    +0.089 C 
ATOM      9  C   UNL     1      -4.978   2.153  24.915  0.00  0.00    +0.024 C 
ENDROOT
BRANCH   4   3
ATOM      3  C   UNL     1      -4.140   3.244  24.531  0.00  0.00    +0.087 C 
BRANCH   3   2
ATOM      1  O   UNL     1      -3.480   3.923  25.600  0.00  0.00    -0.273 OA
ATOM      2  C   UNL     1      -3.464   3.600  24.842  0.00  0.00    +0.246 C 
ATOM     24  N   UNL     1      -2.772   3.633  24.394  0.00  0.00    -0.179 NA
BRANCH  24  25
ATOM     25  C   UNL     1      -2.095   3.989  24.706  0.00  0.00    +0.073 A 
ATOM     26  C   UNL     1      -1.473   3.522  24.980  0.00  0.00    +0.017 A 
ATOM     27  C   UNL     1      -0.797   3.878  25.291  0.00  0.00    +0.001 A 
ATOM     28  C   UNL     1      -0.743   4.701  25.328  0.00  0.00    +0.000 A 
ATOM     29  C   UNL     1      -1.366   5.167  25.053  0.00  0.00    +0.001 A 
ATOM     30  C   UNL     1      -2.042   4.811  24.742  0.00  0.00    +0.017 A 
ENDBRANCH  24  25
ENDBRANCH   3   2
ENDBRANCH   4   3
BRANCH   9  10
ATOM     10  C   UNL     1      -4.684   1.706  24.287  0.00  0.00    +0.051 C 
BRANCH  10  11
ATOM     11  C   UNL     1      -4.497   0.910  24.399  0.00  0.00    +0.100 A 
ATOM     12  N   UNL     1      -5.020   0.316  24.629  0.00  0.00    -0.082 NA
ATOM     13  O   UNL     1      -4.599  -0.392  24.673  0.00  0.00    -0.357 OA
ATOM     14  C   UNL     1      -3.815  -0.236  24.471  0.00  0.00    +0.165 A 
ATOM     23  C   UNL     1      -3.751   0.570  24.301  0.00  0.00    +0.054 A 
BRANCH  14  15
ATOM     15  C   UNL     1      -3.202  -0.787  24.442  0.00  0.00    +0.129 C 
BRANCH  15  16
ATOM     16  S   UNL     1      -2.786  -0.976  25.130  0.00  0.00    -0.105 S 
BRANCH  16  17
ATOM     17  C   UNL     1      -2.057  -1.358  25.078  0.00  0.00    +0.026 A 
ATOM     18  C   UNL     1      -1.380  -0.999  25.386  0.00  0.00    +0.006 A 
ATOM     19  C   UNL     1      -0.651  -1.381  25.334  0.00  0.00    +0.001 A 
ATOM     20  C   UNL     1      -0.598  -2.122  24.974  0.00  0.00    +0.000 A 
ATOM     21  C   UNL     1      -1.274  -2.480  24.666  0.00  0.00    +0.001 A 
ATOM     22  C   UNL     1      -2.003  -2.098  24.718  0.00  0.00    +0.006 A 
ENDBRANCH  16  17
ENDBRANCH  15  16
ENDBRANCH  14  15
ENDBRANCH  10  11
ENDBRANCH   9  10
TORSDOF 8
ENDMDL
MODEL 5
REMARK VINA RESULT:     -11.1      1.700      3.635
REMARK  Name = 
REMARK  8 active torsions:
REMARK  status: ('A' for Active; 'I' for Inactive)
REMARK    1  A    between atoms: C_2  and  C_3
REMARK    2  A    between atoms: C_3  and  C_4
REMARK    3  A    between atoms: C_9  and  C_10
REMARK    4  A    between atoms: C_10  and  C_11
REMARK    5  A    between atoms: C_14  and  C_15
REMARK    6  A    between atoms: C_15  and  S_16
REMARK    7  A    between atoms: S_16  and  C_17
REMARK    8  A    between atoms: N_24  and  C_25
REMARK                            x       y       z     vdW  Elec       q    Type
REMARK                         _______ _______ _______ _____ _____    ______ ____
ROOT
ATOM      4  C   UNL     1      -3.149  -0.418  24.805  0.00  0.00    +0.012 C 
ATOM      5  C   UNL     1      -3.466  -0.895  25.400  0.00  0.00    +0.019 C 
ATOM      6  C   UNL     1      -2.971  -1.384  25.843  0.00  0.00    +0.089 C 
ATOM      7  N   UNL     1      -2.161  -1.396  25.693  0.00  0.00    -0.218 NA
ATOM      8  C   UNL     1      -1.844  -0.920  25.099  0.00  0.00    +0.089 C 
ATOM      9  C   UNL     1      -2.339  -0.430  24.655  0.00  0.00    +0.024 C 
ENDROOT
BRANCH   4   3
ATOM      3  C   UNL     1      -3.644   0.071  24.362  0.00  0.00    +0.087 C 
BRANCH   3   2
ATOM      1  O   UNL     1      -4.708   0.144  25.313  0.00  0.00    -0.273 OA
ATOM      2  C   UNL     1      -4.241   0.502  24.735  0.00  0.00    +0.246 C 
ATOM     24  N   UNL     1      -4.370   1.289  24.529  0.00  0.00    -0.179 NA
BRANCH  24  25
ATOM     25  C   UNL     1      -4.967   1.721  24.903  0.00  0.00    +0.073 A 
ATOM     26  C   UNL     1      -5.759   1.549  24.745  0.00  0.00    +0.017 A 
ATOM     27  C   UNL     1      -6.356   1.980  25.118  0.00  0.00    +0.001 A 
ATOM     28  C   UNL     1      -6.161   2.582  25.648  0.00  0.00    +0.000 A 
ATOM     29  C   UNL     1      -5.369   2.753  25.804  0.00  0.00    +0.001 A 
ATOM     30  C   UNL     1      -4.772   2.322  25.432  0.00  0.00    +0.017 A 
ENDBRANCH  24  25
ENDBRANCH   3   2
ENDBRANCH   4   3
BRANCH   9  10
ATOM     10  C   UNL     1      -2.022   0.046  24.061  0.00  0.00    +0.051 C 
BRANCH  10  11
ATOM     11  C   UNL     1      -1.416   0.578  24.237  0.00  0.00    +0.100 A 
ATOM     12  N   UNL     1      -0.641   0.381  24.436  0.00  0.00    -0.082 NA
ATOM     13  O   UNL     1      -0.225   1.082  24.567  0.00  0.00    -0.357 OA
ATOM     14  C   UNL     1      -0.744   1.712  24.448  0.00  0.00    +0.165 A 
ATOM     23  C   UNL     1      -1.480   1.401  24.244  0.00  0.00    +0.054 A 
BRANCH  14  15
ATOM     15  C   UNL     1      -0.559   2.512  24.521  0.00  0.00    +0.129 C 
BRANCH  15  16
ATOM     16  S   UNL     1      -0.784   2.928  25.198  0.00  0.00    -0.105 S 
BRANCH  16  17
ATOM     17  C   UNL     1      -0.969   3.730  25.147  0.00  0.00    +0.026 A 
ATOM     18  C   UNL     1      -0.451   4.248  24.765  0.00  0.00    +0.006 A 
ATOM     19  C   UNL     1      -0.636   5.050  24.714  0.00  0.00    +0.001 A 
ATOM     20  C   UNL     1      -1.337   5.335  25.044  0.00  0.00    +0.000 A 
ATOM     21  C   UNL     1      -1.853   4.817  25.425  0.00  0.00    +0.001 A 
ATOM     22  C   UNL     1      -1.669   4.014  25.477  0.00  0.00    +0.006 A 
ENDBRANCH  16  17
ENDBRANCH  15  16
ENDBRANCH  14  15
ENDBRANCH  10  11
ENDBRANCH   9  10
TORSDOF 8
ENDMDL
MODEL 6
REMARK VINA RESULT:     -11.0      1.902      4.070
REMARK  Name = 
REMARK  8 active torsions:
REMARK  status: ('A' for Active; 'I' for Inactive)
REMARK    1  A    between atoms: C_2  and  C_3
REMARK    2  A    between atoms: C_3  and  C_4
REMARK    3  A    between atoms: C_9  and  C_10
REMARK    4  A    between atoms: C_10  and  C_11
REMARK    5  A    between atoms: C_14  and  C_15
REMARK    6  A    between atoms: C_15  and  S_16
REMARK    7  A    between atoms: S_16  and  C_17
REMARK    8  A    between atoms: N_24  and  C_25
REMARK                            x       y       z     vdW  Elec       q    Type
REMARK                         _______ _______ _______ _____ _____    ______ ____
ROOT
ATOM      4  C   UNL     1      -5.205   1.762  24.978  0.00  0.00    +0.012 C 
ATOM      5  C   UNL     1      -5.707   1.483  25.571  0.00  0.00    +0.019 C 
ATOM      6  C   UNL     1      -6.021   2.007  26.125  0.00  0.00    +0.089 C 
ATOM      7  N   UNL     1      -5.834   2.809  26.087  0.00  0.00    -0.218 NA
ATOM      8  C   UNL     1      -5.334   3.088  25.494  0.00  0.00    +0.089 C 
ATOM      9  C   UNL     1      -5.019   2.564  24.939  0.00  0.00    +0.024 C 
ENDROOT
BRANCH   4   3
ATOM      3  C   UNL     1      -4.891   1.238  24.424  0.00  0.00    +0.087 C 
BRANCH   3   2
ATOM      1  O   UNL     1      -5.037   0.125  25.307  0.00  0.00    -0.273 OA
ATOM      2  C   UNL     1      -4.678   0.474  24.652  0.00  0.00    +0.246 C 
ATOM     24  N   UNL     1      -4.107   0.061  24.226  0.00  0.00    -0.179 NA
BRANCH  24  25
ATOM     25  C   UNL     1      -3.893  -0.703  24.454  0.00  0.00    +0.073 A 
ATOM     26  C   UNL     1      -3.370  -0.815  25.082  0.00  0.00    +0.017 A 
ATOM     27  C   UNL     1      -3.156  -1.578  25.310  0.00  0.00    +0.001 A 
ATOM     28  C   UNL     1      -3.467  -2.231  24.911  0.00  0.00    +0.000 A 
ATOM     29  C   UNL     1      -3.991  -2.118  24.283  0.00  0.00    +0.001 A 
ATOM     30  C   UNL     1      -4.204  -1.354  24.055  0.00  0.00    +0.017 A 
ENDBRANCH  24  25
ENDBRANCH   3   2
ENDBRANCH   4   3
BRANCH   9  10
ATOM     10  C   UNL     1      -4.518   2.843  24.347  0.00  0.00    +0.051 C 
BRANCH  10  11
ATOM     11  C   UNL     1      -3.885   3.335  24.539  0.00  0.00    +0.100 A 
ATOM     12  N   UNL     1      -3.864   4.155  24.453  0.00  0.00    -0.082 NA
ATOM     13  O   UNL     1      -3.127   4.421  24.712  0.00  0.00    -0.357 OA
ATOM     14  C   UNL     1      -2.692   3.765  24.959  0.00  0.00    +0.165 A 
ATOM     23  C   UNL     1      -3.160   3.094  24.852  0.00  0.00    +0.054 A 
BRANCH  14  15
ATOM     15  C   UNL     1      -1.924   3.777  25.259  0.00  0.00    +0.129 C 
BRANCH  15  16
ATOM     16  S   UNL     1      -1.289   3.567  24.776  0.00  0.00    -0.105 S 
BRANCH  16  17
ATOM     17  C   UNL     1      -0.687   3.087  25.072  0.00  0.00    +0.026 A 
ATOM     18  C   UNL     1      -0.451   3.160  25.859  0.00  0.00    +0.006 A 
ATOM     19  C   UNL     1       0.151   2.680  26.155  0.00  0.00    +0.001 A 
ATOM     20  C   UNL     1       0.517   2.126  25.664  0.00  0.00    +0.000 A 
ATOM     21  C   UNL     1       0.280   2.054  24.877  0.00  0.00    +0.001 A 
ATOM     22  C   UNL     1      -0.322   2.534  24.581  0.00  0.00    +0.006 A 
ENDBRANCH  16  17
ENDBRANCH  15  16
ENDBRANCH  14  15
ENDBRANCH  10  11
ENDBRANCH   9  10
TORSDOF 8
ENDMDL
MODEL 7
REMARK VINA RESULT:     -10.4      2.509      5.566
REMARK  Name = 
REMARK  8 active torsions:
REMARK  status: ('A' for Active; 'I' for Inactive)
REMARK    1  A    between atoms: C_2  and  C_3
REMARK    2  A    between atoms: C_3  and  C_4
REMARK    3  A    between atoms: C_9  and  C_10
REMARK    4  A    between atoms: C_10  and  C_11
REMARK    5  A    between atoms: C_14  and  C_15
REMARK    6  A    between atoms: C_15  and  S_16
REMARK    7  A    between atoms: S_16  and  C_17
REMARK    8  A    between atoms: N_24  and  C_25
REMARK                            x       y       z     vdW  Elec       q    Type
REMARK                         _______ _______ _______ _____ _____    ______ ____
ROOT
ATOM      4  C   UNL     1      -2.007   0.097  24.661  0.00  0.00    +0.012 C 
ATOM      5  C   UNL     1      -2.353  -0.390  25.230  0.00  0.00    +0.019 C 
ATOM      6  C   UNL     1      -1.885  -0.912  25.665  0.00  0.00    +0.089 C 
ATOM      7  N   UNL     1      -1.073  -0.947  25.531  0.00  0.00    -0.218 NA
ATOM      8  C   UNL     1      -0.727  -0.461  24.962  0.00  0.00    +0.089 C 
ATOM      9  C   UNL     1      -1.195   0.062  24.526  0.00  0.00    +0.024 C 
ENDROOT
BRANCH   4   3
ATOM      3  C   UNL     1      -2.475   0.619  24.226  0.00  0.00    +0.087 C 
BRANCH   3   2
ATOM      1  O   UNL     1      -3.022   1.198  25.412  0.00  0.00    -0.273 OA
ATOM      2  C   UNL     1      -3.068   1.054  24.601  0.00  0.00    +0.246 C 
ATOM     24  N   UNL     1      -3.705   1.343  24.166  0.00  0.00    -0.179 NA
BRANCH  24  25
ATOM     25  C   UNL     1      -4.298   1.778  24.542  0.00  0.00    +0.073 A 
ATOM     26  C   UNL     1      -4.205   2.590  24.656  0.00  0.00    +0.017 A 
ATOM     27  C   UNL     1      -4.797   3.024  25.032  0.00  0.00    +0.001 A 
ATOM     28  C   UNL     1      -5.483   2.646  25.293  0.00  0.00    +0.000 A 
ATOM     29  C   UNL     1      -5.575   1.835  25.179  0.00  0.00    +0.001 A 
ATOM     30  C   UNL     1      -4.983   1.400  24.804  0.00  0.00    +0.017 A 
ENDBRANCH  24  25
ENDBRANCH   3   2
ENDBRANCH   4   3
BRANCH   9  10
ATOM     10  C   UNL     1      -0.849   0.548  23.957  0.00  0.00    +0.051 C 
BRANCH  10  11
ATOM     11  C   UNL     1      -0.120   0.345  23.628  0.00  0.00    +0.100 A 
ATOM     12  N   UNL     1       0.023  -0.287  23.119  0.00  0.00    -0.082 NA
ATOM     13  O   UNL     1       0.826  -0.284  22.927  0.00  0.00    -0.357 OA
ATOM     14  C   UNL     1       1.179   0.351  23.318  0.00  0.00    +0.165 A 
ATOM     23  C   UNL     1       0.595   0.740  23.751  0.00  0.00    +0.054 A 
BRANCH  14  15
ATOM     15  C   UNL     1       1.976   0.560  23.282  0.00  0.00    +0.129 C 
BRANCH  15  16
ATOM     16  S   UNL     1       2.499   0.112  22.826  0.00  0.00    -0.105 S 
BRANCH  16  17
ATOM     17  C   UNL     1       3.313   0.197  22.931  0.00  0.00    +0.026 A 
ATOM     18  C   UNL     1       3.698   0.867  22.641  0.00  0.00    +0.006 A 
ATOM     19  C   UNL     1       4.512   0.952  22.746  0.00  0.00    +0.001 A 
ATOM     20  C   UNL     1       4.941   0.367  23.141  0.00  0.00    +0.000 A 
ATOM     21  C   UNL     1       4.554  -0.302  23.431  0.00  0.00    +0.001 A 
ATOM     22  C   UNL     1       3.741  -0.387  23.326  0.00  0.00    +0.006 A 
ENDBRANCH  16  17
ENDBRANCH  15  16
ENDBRANCH  14  15
ENDBRANCH  10  11
ENDBRANCH   9  10
TORSDOF 8
ENDMDL
MODEL 8
REMARK VINA RESULT:     -10.3      1.359      3.824
REMARK  Name = 
REMARK  8 active torsions:
REMARK  status: ('A' for Active; 'I' for Inactive)
REMARK    1  A    between atoms: C_2  and  C_3
REMARK    2  A    between atoms: C_3  and  C_4
REMARK    3  A    between atoms: C_9  and  C_10
REMARK    4  A    between atoms: C_10  and  C_11
REMARK    5  A    between atoms: C_14  and  C_15
REMARK    6  A    between atoms: C_15  and  S_16
REMARK    7  A    between atoms: S_16  and  C_17
REMARK    8  A    between atoms: N_24  and  C_25
REMARK                            x       y       z     vdW  Elec       q    Type
REMARK                         _______ _______ _______ _____ _____    ______ ____
ROOT
ATOM      4  C   UNL     1      -0.272   0.946  24.751  0.00  0.00    +0.012 C 
ATOM      5  C   UNL     1       0.191   1.120  24.090  0.00  0.00    +0.019 C 
ATOM      6  C   UNL     1       0.313   0.546  23.510  0.00  0.00    +0.089 C 
ATOM      7  N   UNL     1      -0.027  -0.200  23.590  0.00  0.00    -0.218 NA
ATOM      8  C   UNL     1      -0.490  -0.374  24.250  0.00  0.00    +0.089 C 
ATOM      9  C   UNL     1      -0.613   0.200  24.831  0.00  0.00    +0.024 C 
ENDROOT
BRANCH   4   3
ATOM      3  C   UNL     1      -0.395   1.520  25.330  0.00  0.00    +0.087 C 
BRANCH   3   2
ATOM      1  O   UNL     1      -0.652   2.495  24.319  0.00  0.00    -0.273 OA
ATOM      2  C   UNL     1      -0.626   2.282  25.115  0.00  0.00    +0.246 C 
ATOM     24  N   UNL     1      -0.831   2.830  25.695  0.00  0.00    -0.179 NA
BRANCH  24  25
ATOM     25  C   UNL     1      -1.063   3.593  25.480  0.00  0.00    +0.073 A 
ATOM     26  C   UNL     1      -1.851   3.823  25.563  0.00  0.00    +0.017 A 
ATOM     27  C   UNL     1      -2.083   4.585  25.347  0.00  0.00    +0.001 A 
ATOM     28  C   UNL     1      -1.526   5.117  25.048  0.00  0.00    +0.000 A 
ATOM     29  C   UNL     1      -0.739   4.886  24.966  0.00  0.00    +0.001 A 
ATOM     30  C   UNL     1      -0.507   4.124  25.182  0.00  0.00    +0.017 A 
ENDBRANCH  24  25
ENDBRANCH   3   2
ENDBRANCH   4   3
BRANCH   9  10
ATOM     10  C   UNL     1      -1.076   0.026  25.491  0.00  0.00    +0.051 C 
BRANCH  10  11
ATOM     11  C   UNL     1      -1.851  -0.239  25.393  0.00  0.00    +0.100 A 
ATOM     12  N   UNL     1      -2.084  -1.021  25.268  0.00  0.00    -0.082 NA
ATOM     13  O   UNL     1      -2.907  -1.034  25.200  0.00  0.00    -0.357 OA
ATOM     14  C   UNL     1      -3.182  -0.261  25.284  0.00  0.00    +0.165 A 
ATOM     23  C   UNL     1      -2.530   0.231  25.403  0.00  0.00    +0.054 A 
BRANCH  14  15
ATOM     15  C   UNL     1      -3.971  -0.021  25.254  0.00  0.00    +0.129 C 
BRANCH  15  16
ATOM     16  S   UNL     1      -4.221   0.498  24.664  0.00  0.00    -0.105 S 
BRANCH  16  17
ATOM     17  C   UNL     1      -4.777   1.082  24.838  0.00  0.00    +0.026 A 
ATOM     18  C   UNL     1      -4.666   1.852  24.561  0.00  0.00    +0.006 A 
ATOM     19  C   UNL     1      -5.222   2.436  24.735  0.00  0.00    +0.001 A 
ATOM     20  C   UNL     1      -5.889   2.251  25.185  0.00  0.00    +0.000 A 
ATOM     21  C   UNL     1      -5.998   1.481  25.461  0.00  0.00    +0.001 A 
ATOM     22  C   UNL     1      -5.443   0.897  25.288  0.00  0.00    +0.006 A 
ENDBRANCH  16  17
ENDBRANCH  15  16
ENDBRANCH  14  15
ENDBRANCH  10  11
ENDBRANCH   9  10
TORSDOF 8
ENDMDL
MODEL 9
REMARK VINA RESULT:     -10.0      1.437      3.461
REMARK  Name = 
REMARK  8 active torsions:
REMARK  status: ('A' for Active; 'I' for Inactive)
REMARK    1  A    between atoms: C_2  and  C_3
REMARK    2  A    between atoms: C_3  and  C_4
REMARK    3  A    between atoms: C_9  and  C_10
REMARK    4  A    between atoms: C_10  and  C_11
REMARK    5  A    between atoms: C_14  and  C_15
REMARK    6  A    between atoms: C_15  and  S_16
REMARK    7  A    between atoms: S_16  and  C_17
REMARK    8  A    between atoms: N_24  and  C_25
REMARK                            x       y       z     vdW  Elec       q    Type
REMARK                         _______ _______ _______ _____ _____    ______ ____
ROOT
ATOM      4  C   UNL     1      -1.738  -1.270  25.221  0.00  0.00    +0.012 C 
ATOM      5  C   UNL     1      -1.136  -1.592  24.757  0.00  0.00    +0.019 C 
ATOM      6  C   UNL     1      -1.305  -2.203  24.228  0.00  0.00    +0.089 C 
ATOM      7  N   UNL     1      -2.074  -2.491  24.163  0.00  0.00    -0.218 NA
ATOM      8  C   UNL     1      -2.676  -2.169  24.626  0.00  0.00    +0.089 C 
ATOM      9  C   UNL     1      -2.507  -1.558  25.156  0.00  0.00    +0.024 C 
ENDROOT
BRANCH   4   3
ATOM      3  C   UNL     1      -1.569  -0.660  25.749  0.00  0.00    +0.087 C 
BRANCH   3   2
ATOM      1  O   UNL     1      -0.353  -0.203  25.154  0.00  0.00    -0.273 OA
ATOM      2  C   UNL     1      -1.074  -0.041  25.520  0.00  0.00    +0.246 C 
ATOM     24  N   UNL     1      -1.300   0.740  25.658  0.00  0.00    -0.179 NA
BRANCH  24  25
ATOM     25  C   UNL     1      -0.804   1.360  25.429  0.00  0.00    +0.073 A 
ATOM     26  C   UNL     1      -0.777   1.595  24.639  0.00  0.00    +0.017 A 
ATOM     27  C   UNL     1      -0.282   2.214  24.410  0.00  0.00    +0.001 A 
ATOM     28  C   UNL     1       0.186   2.598  24.972  0.00  0.00    +0.000 A 
ATOM     29  C   UNL     1       0.158   2.362  25.761  0.00  0.00    +0.001 A 
ATOM     30  C   UNL     1      -0.337   1.743  25.990  0.00  0.00    +0.017 A 
ENDBRANCH  24  25
ENDBRANCH   3   2
ENDBRANCH   4   3
BRANCH   9  10
ATOM     10  C   UNL     1      -3.109  -1.236  25.619  0.00  0.00    +0.051 C 
BRANCH  10  11
ATOM     11  C   UNL     1      -3.723  -0.815  25.264  0.00  0.00    +0.100 A 
ATOM     12  N   UNL     1      -4.185  -1.072  24.631  0.00  0.00    -0.082 NA
ATOM     13  O   UNL     1      -4.731  -0.477  24.455  0.00  0.00    -0.357 OA
ATOM     14  C   UNL     1      -4.605   0.147  24.980  0.00  0.00    +0.165 A 
ATOM     23  C   UNL     1      -3.983  -0.062  25.480  0.00  0.00    +0.054 A 
BRANCH  14  15
ATOM     15  C   UNL     1      -5.028   0.854  25.002  0.00  0.00    +0.129 C 
BRANCH  15  16
ATOM     16  S   UNL     1      -4.756   1.510  24.581  0.00  0.00    -0.105 S 
BRANCH  16  17
ATOM     17  C   UNL     1      -4.879   2.270  24.878  0.00  0.00    +0.026 A 
ATOM     18  C   UNL     1      -5.584   2.452  25.265  0.00  0.00    +0.006 A 
ATOM     19  C   UNL     1      -5.707   3.211  25.562  0.00  0.00    +0.001 A 
ATOM     20  C   UNL     1      -5.125   3.790  25.471  0.00  0.00    +0.000 A 
ATOM     21  C   UNL     1      -4.420   3.607  25.084  0.00  0.00    +0.001 A 
ATOM     22  C   UNL     1      -4.297   2.847  24.787  0.00  0.00    +0.006 A 
ENDBRANCH  16  17
ENDBRANCH  15  16
ENDBRANCH  14  15
ENDBRANCH  10  11
ENDBRANCH   9  10
TORSDOF 8
ENDMDL
