MODEL 1
REMARK VINA RESULT:     -11.0      0.000      0.000
REMARK  Name = 
REMARK  5 active torsions:
REMARK  status: ('A' for Active; 'I' for Inactive)
REMARK    1  A    between atoms: C_7  and  C_8
REMARK    2  A    between atoms: C_8  and  N_9
REMARK    3  A    between atoms: C_13  and  C_14
REMARK    4  A    between atoms: C_16  and  C_19
REMARK    5  A    between atoms: C_22  and  N_25
REMARK                            x       y       z     vdW  Elec       q    Type
REMARK                         _______ _______ _______ _____ _____    ______ ____
ROOT
ATOM     14  C   UNL     1      -4.032   2.757  25.156  0.00  0.00    +0.251 A 
ATOM     15  N   UNL     1      -3.788   1.977  25.266  0.00  0.00    -0.190 NA
ATOM     16  C   UNL     1      -4.167   1.509  24.703  0.00  0.00    +0.205 A 
ATOM     17  N   UNL     1      -4.645   1.999  24.244  0.00  0.00    -0.056 NA
ATOM     18  O   UNL     1      -4.562   2.770  24.523  0.00  0.00    -0.336 OA
ENDROOT
BRANCH  16  19
ATOM     19  C   UNL     1      -4.082   0.693  24.614  0.00  0.00    +0.058 A 
ATOM     20  C   UNL     1      -3.663   0.390  23.971  0.00  0.00    +0.008 A 
ATOM     21  C   UNL     1      -3.578  -0.427  23.882  0.00  0.00    +0.034 A 
ATOM     22  C   UNL     1      -3.912  -0.939  24.436  0.00  0.00    +0.132 A 
ATOM     23  N   UNL     1      -4.331  -0.636  25.078  0.00  0.00    -0.229 NA
ATOM     24  C   UNL     1      -4.416   0.180  25.167  0.00  0.00    +0.103 A 
BRANCH  22  25
ATOM     25  N   UNL     1      -3.828  -1.755  24.347  0.00  0.00    -0.288 N 
ATOM     26  C   UNL     1      -3.259  -2.160  24.786  0.00  0.00    +0.124 C 
ATOM     27  C   UNL     1      -3.174  -2.977  24.697  0.00  0.00    +0.164 C 
ATOM     28  O   UNL     1      -3.658  -3.386  24.169  0.00  0.00    -0.350 OA
ATOM     29  C   UNL     1      -4.227  -2.981  23.730  0.00  0.00    +0.164 C 
ATOM     30  C   UNL     1      -4.311  -2.165  23.819  0.00  0.00    +0.124 C 
ENDBRANCH  22  25
ENDBRANCH  16  19
BRANCH  14  13
ATOM      9  N   UNL     1      -3.070   3.803  25.526  0.00  0.00    -0.263 NA
ATOM     10  C   UNL     1      -3.058   4.419  26.075  0.00  0.00    +0.073 C 
ATOM     11  C   UNL     1      -3.773   4.404  26.488  0.00  0.00    +0.019 C 
ATOM     12  C   UNL     1      -4.225   3.780  26.194  0.00  0.00    +0.027 C 
ATOM     13  C   UNL     1      -3.790   3.409  25.599  0.00  0.00    +0.138 C 
BRANCH   9   8
ATOM      8  C   UNL     1      -2.466   3.616  24.997  0.00  0.00    +0.102 C 
BRANCH   8   7
ATOM      1  F   UNL     1      -0.976   2.906  25.013  0.00  0.00    -0.204 F 
ATOM      2  C   UNL     1      -1.041   3.727  24.972  0.00  0.00    +0.137 A 
ATOM      3  C   UNL     1      -0.361   4.194  24.940  0.00  0.00    +0.029 A 
ATOM      4  C   UNL     1      -0.426   5.015  24.900  0.00  0.00    +0.002 A 
ATOM      5  C   UNL     1      -1.170   5.370  24.892  0.00  0.00    -0.000 A 
ATOM      6  C   UNL     1      -1.850   4.905  24.924  0.00  0.00    -0.001 A 
ATOM      7  C   UNL     1      -1.785   4.082  24.964  0.00  0.00    +0.021 A 
ENDBRANCH   8   7
ENDBRANCH   9   8
ENDBRANCH  14  13
TORSDOF 5
ENDMDL
MODEL 2
REMARK VINA RESULT:     -10.6      2.216      6.258
REMARK  Name = 
REMARK  5 active torsions:
REMARK  status: ('A' for Active; 'I' for Inactive)
REMARK    1  A    between atoms: C_7  and  C_8
REMARK    2  A    between atoms: C_8  and  N_9
REMARK    3  A    between atoms: C_13  and  C_14
REMARK    4  A    between atoms: C_16  and  C_19
REMARK    5  A    between atoms: C_22  and  N_25
REMARK                            x       y       z     vdW  Elec       q    Type
REMARK                         _______ _______ _______ _____ _____    ______ ____
ROOT
ATOM     14  C   UNL     1      -1.132  -0.465  25.354  0.00  0.00    +0.251 A 
ATOM     15  N   UNL     1      -1.178   0.280  25.001  0.00  0.00    -0.190 NA
ATOM     16  C   UNL     1      -1.137   0.848  25.597  0.00  0.00    +0.205 A 
ATOM     17  N   UNL     1      -1.065   0.456  26.318  0.00  0.00    -0.056 NA
ATOM     18  O   UNL     1      -1.062  -0.355  26.168  0.00  0.00    -0.336 OA
ENDROOT
BRANCH  16  19
ATOM     19  C   UNL     1      -1.163   1.666  25.490  0.00  0.00    +0.058 A 
ATOM     20  C   UNL     1      -0.608   2.148  25.865  0.00  0.00    +0.008 A 
ATOM     21  C   UNL     1      -0.634   2.966  25.758  0.00  0.00    +0.034 A 
ATOM     22  C   UNL     1      -1.214   3.301  25.277  0.00  0.00    +0.132 A 
ATOM     23  N   UNL     1      -1.769   2.819  24.902  0.00  0.00    -0.229 NA
ATOM     24  C   UNL     1      -1.743   2.001  25.009  0.00  0.00    +0.103 A 
BRANCH  22  25
ATOM     25  N   UNL     1      -1.240   4.119  25.170  0.00  0.00    -0.288 N 
ATOM     26  C   UNL     1      -0.607   4.508  24.812  0.00  0.00    +0.124 C 
ATOM     27  C   UNL     1      -0.633   5.326  24.705  0.00  0.00    +0.164 C 
ATOM     28  O   UNL     1      -1.291   5.754  24.956  0.00  0.00    -0.350 OA
ATOM     29  C   UNL     1      -1.925   5.366  25.314  0.00  0.00    +0.164 C 
ATOM     30  C   UNL     1      -1.899   4.548  25.421  0.00  0.00    +0.124 C 
ENDBRANCH  22  25
ENDBRANCH  16  19
BRANCH  14  13
ATOM      9  N   UNL     1      -1.831  -1.606  24.747  0.00  0.00    -0.263 NA
ATOM     10  C   UNL     1      -1.596  -2.299  24.368  0.00  0.00    +0.073 C 
ATOM     11  C   UNL     1      -0.771  -2.312  24.347  0.00  0.00    +0.019 C 
ATOM     12  C   UNL     1      -0.497  -1.626  24.714  0.00  0.00    +0.027 C 
ATOM     13  C   UNL     1      -1.152  -1.189  24.962  0.00  0.00    +0.138 C 
BRANCH   9   8
ATOM      8  C   UNL     1      -2.609  -1.370  24.888  0.00  0.00    +0.102 C 
BRANCH   8   7
ATOM      1  F   UNL     1      -3.725  -0.570  23.974  0.00  0.00    -0.204 F 
ATOM      2  C   UNL     1      -3.793  -1.384  24.087  0.00  0.00    +0.137 A 
ATOM      3  C   UNL     1      -4.418  -1.800  23.744  0.00  0.00    +0.029 A 
ATOM      4  C   UNL     1      -4.485  -2.613  23.858  0.00  0.00    +0.002 A 
ATOM      5  C   UNL     1      -3.927  -3.013  24.315  0.00  0.00    -0.000 A 
ATOM      6  C   UNL     1      -3.302  -2.599  24.659  0.00  0.00    -0.001 A 
ATOM      7  C   UNL     1      -3.235  -1.784  24.545  0.00  0.00    +0.021 A 
ENDBRANCH   8   7
ENDBRANCH   9   8
ENDBRANCH  14  13
TORSDOF 5
ENDMDL
MODEL 3
REMARK VINA RESULT:     -10.0      3.444      4.753
REMARK  Name = 
REMARK  5 active torsions:
REMARK  status: ('A' for Active; 'I' for Inactive)
REMARK    1  A    between atoms: C_7  and  C_8
REMARK    2  A    between atoms: C_8  and  N_9
REMARK    3  A    between atoms: C_13  and  C_14
REMARK    4  A    between atoms: C_16  and  C_19
REMARK    5  A    between atoms: C_22  and  N_25
REMARK                            x       y       z     vdW  Elec       q    Type
REMARK                         _______ _______ _______ _____ _____    ______ ____
ROOT
ATOM     14  C   UNL     1      -2.567   0.129  24.852  0.00  0.00    +0.251 A 
ATOM     15  N   UNL     1      -2.014   0.155  24.239  0.00  0.00    -0.190 NA
ATOM     16  C   UNL     1      -1.261   0.139  24.575  0.00  0.00    +0.205 A 
ATOM     17  N   UNL     1      -1.348   0.104  25.394  0.00  0.00    -0.056 NA
ATOM     18  O   UNL     1      -2.154   0.098  25.565  0.00  0.00    -0.336 OA
ENDROOT
BRANCH  16  19
ATOM     19  C   UNL     1      -0.546   0.156  24.163  0.00  0.00    +0.058 A 
ATOM     20  C   UNL     1      -0.218   0.878  23.936  0.00  0.00    +0.008 A 
ATOM     21  C   UNL     1       0.497   0.895  23.524  0.00  0.00    +0.034 A 
ATOM     22  C   UNL     1       0.883   0.190  23.339  0.00  0.00    +0.132 A 
ATOM     23  N   UNL     1       0.555  -0.532  23.566  0.00  0.00    -0.229 NA
ATOM     24  C   UNL     1      -0.160  -0.549  23.978  0.00  0.00    +0.103 A 
BRANCH  22  25
ATOM     25  N   UNL     1       1.598   0.207  22.927  0.00  0.00    -0.288 N 
ATOM     26  C   UNL     1       1.666  -0.181  22.203  0.00  0.00    +0.124 C 
ATOM     27  C   UNL     1       2.381  -0.165  21.791  0.00  0.00    +0.164 C 
ATOM     28  O   UNL     1       3.027   0.241  22.103  0.00  0.00    -0.350 OA
ATOM     29  C   UNL     1       2.960   0.630  22.828  0.00  0.00    +0.164 C 
ATOM     30  C   UNL     1       2.245   0.613  23.240  0.00  0.00    +0.124 C 
ENDBRANCH  22  25
ENDBRANCH  16  19
BRANCH  14  13
ATOM      9  N   UNL     1      -3.872   0.799  24.781  0.00  0.00    -0.263 NA
ATOM     10  C   UNL     1      -4.651   0.551  24.673  0.00  0.00    +0.073 C 
ATOM     11  C   UNL     1      -4.647  -0.270  24.590  0.00  0.00    +0.019 C 
ATOM     12  C   UNL     1      -3.866  -0.528  24.647  0.00  0.00    +0.027 C 
ATOM     13  C   UNL     1      -3.387   0.133  24.765  0.00  0.00    +0.138 C 
BRANCH   9   8
ATOM      8  C   UNL     1      -3.622   1.579  24.887  0.00  0.00    +0.102 C 
BRANCH   8   7
ATOM      1  F   UNL     1      -3.561   2.961  23.987  0.00  0.00    -0.204 F 
ATOM      2  C   UNL     1      -4.147   2.868  24.562  0.00  0.00    +0.137 A 
ATOM      3  C   UNL     1      -4.702   3.466  24.687  0.00  0.00    +0.029 A 
ATOM      4  C   UNL     1      -5.286   3.373  25.261  0.00  0.00    +0.002 A 
ATOM      5  C   UNL     1      -5.317   2.682  25.710  0.00  0.00    -0.000 A 
ATOM      6  C   UNL     1      -4.762   2.084  25.586  0.00  0.00    -0.001 A 
ATOM      7  C   UNL     1      -4.177   2.177  25.011  0.00  0.00    +0.021 A 
ENDBRANCH   8   7
ENDBRANCH   9   8
ENDBRANCH  14  13
TORSDOF 5
ENDMDL
MODEL 4
REMARK VINA RESULT:      -9.9      1.877      2.581
REMARK  Name = 
REMARK  5 active torsions:
REMARK  status: ('A' for Active; 'I' for Inactive)
REMARK    1  A    between atoms: C_7  and  C_8
REMARK    2  A    between atoms: C_8  and  N_9
REMARK    3  A    between atoms: C_13  and  C_14
REMARK    4  A    between atoms: C_16  and  C_19
REMARK    5  A    between atoms: C_22  and  N_25
REMARK                            x       y       z     vdW  Elec       q    Type
REMARK                         _______ _______ _______ _____ _____    ______ ____
ROOT
ATOM     14  C   UNL     1      -0.478   1.506  25.248  0.00  0.00    +0.251 A 
ATOM     15  N   UNL     1      -1.107   0.985  25.363  0.00  0.00    -0.190 NA
ATOM     16  C   UNL     1      -1.115   0.452  24.734  0.00  0.00    +0.205 A 
ATOM     17  N   UNL     1      -0.491   0.643  24.230  0.00  0.00    -0.056 NA
ATOM     18  O   UNL     1      -0.098   1.294  24.548  0.00  0.00    -0.336 OA
ENDROOT
BRANCH  16  19
ATOM     19  C   UNL     1      -1.653  -0.165  24.627  0.00  0.00    +0.058 A 
ATOM     20  C   UNL     1      -2.458  -0.002  24.558  0.00  0.00    +0.008 A 
ATOM     21  C   UNL     1      -2.996  -0.619  24.452  0.00  0.00    +0.034 A 
ATOM     22  C   UNL     1      -2.728  -1.398  24.414  0.00  0.00    +0.132 A 
ATOM     23  N   UNL     1      -1.922  -1.561  24.483  0.00  0.00    -0.229 NA
ATOM     24  C   UNL     1      -1.385  -0.944  24.590  0.00  0.00    +0.103 A 
BRANCH  22  25
ATOM     25  N   UNL     1      -3.266  -2.015  24.308  0.00  0.00    -0.288 N 
ATOM     26  C   UNL     1      -3.942  -1.898  23.850  0.00  0.00    +0.124 C 
ATOM     27  C   UNL     1      -4.480  -2.515  23.744  0.00  0.00    +0.164 C 
ATOM     28  O   UNL     1      -4.341  -3.248  24.095  0.00  0.00    -0.350 OA
ATOM     29  C   UNL     1      -3.665  -3.365  24.552  0.00  0.00    +0.164 C 
ATOM     30  C   UNL     1      -3.127  -2.749  24.659  0.00  0.00    +0.124 C 
ENDBRANCH  22  25
ENDBRANCH  16  19
BRANCH  14  13
ATOM      9  N   UNL     1      -0.577   2.892  25.725  0.00  0.00    -0.263 NA
ATOM     10  C   UNL     1      -0.211   3.334  26.318  0.00  0.00    +0.073 C 
ATOM     11  C   UNL     1       0.325   2.842  26.707  0.00  0.00    +0.019 C 
ATOM     12  C   UNL     1       0.291   2.097  26.353  0.00  0.00    +0.027 C 
ATOM     13  C   UNL     1      -0.267   2.129  25.746  0.00  0.00    +0.138 C 
BRANCH   9   8
ATOM      8  C   UNL     1      -1.152   3.168  25.201  0.00  0.00    +0.102 C 
BRANCH   8   7
ATOM      1  F   UNL     1      -2.645   3.711  25.646  0.00  0.00    -0.204 F 
ATOM      2  C   UNL     1      -2.072   4.246  25.387  0.00  0.00    +0.137 A 
ATOM      3  C   UNL     1      -2.245   5.052  25.351  0.00  0.00    +0.029 A 
ATOM      4  C   UNL     1      -1.672   5.586  25.093  0.00  0.00    +0.002 A 
ATOM      5  C   UNL     1      -0.926   5.314  24.871  0.00  0.00    -0.000 A 
ATOM      6  C   UNL     1      -0.752   4.509  24.907  0.00  0.00    -0.001 A 
ATOM      7  C   UNL     1      -1.325   3.974  25.165  0.00  0.00    +0.021 A 
ENDBRANCH   8   7
ENDBRANCH   9   8
ENDBRANCH  14  13
TORSDOF 5
ENDMDL
MODEL 5
REMARK VINA RESULT:      -9.8      3.582      5.528
REMARK  Name = 
REMARK  5 active torsions:
REMARK  status: ('A' for Active; 'I' for Inactive)
REMARK    1  A    between atoms: C_7  and  C_8
REMARK    2  A    between atoms: C_8  and  N_9
REMARK    3  A    between atoms: C_13  and  C_14
REMARK    4  A    between atoms: C_16  and  C_19
REMARK    5  A    between atoms: C_22  and  N_25
REMARK                            x       y       z     vdW  Elec       q    Type
REMARK                         _______ _______ _______ _____ _____    ______ ____
ROOT
ATOM     14  C   UNL     1      -2.285   0.913  24.852  0.00  0.00    +0.251 A 
ATOM     15  N   UNL     1      -1.731   0.757  24.259  0.00  0.00    -0.190 NA
ATOM     16  C   UNL     1      -0.979   0.882  24.574  0.00  0.00    +0.205 A 
ATOM     17  N   UNL     1      -1.067   1.116  25.359  0.00  0.00    -0.056 NA
ATOM     18  O   UNL     1      -1.873   1.135  25.531  0.00  0.00    -0.336 OA
ENDROOT
BRANCH  16  19
ATOM     19  C   UNL     1      -0.264   0.790  24.172  0.00  0.00    +0.058 A 
ATOM     20  C   UNL     1      -0.080   0.068  23.819  0.00  0.00    +0.008 A 
ATOM     21  C   UNL     1       0.635  -0.024  23.417  0.00  0.00    +0.034 A 
ATOM     22  C   UNL     1       1.165   0.606  23.368  0.00  0.00    +0.132 A 
ATOM     23  N   UNL     1       0.981   1.329  23.721  0.00  0.00    -0.229 NA
ATOM     24  C   UNL     1       0.266   1.421  24.123  0.00  0.00    +0.103 A 
BRANCH  22  25
ATOM     25  N   UNL     1       1.880   0.514  22.967  0.00  0.00    -0.288 N 
ATOM     26  C   UNL     1       2.546   0.936  23.209  0.00  0.00    +0.124 C 
ATOM     27  C   UNL     1       3.261   0.844  22.807  0.00  0.00    +0.164 C 
ATOM     28  O   UNL     1       3.310   0.330  22.164  0.00  0.00    -0.350 OA
ATOM     29  C   UNL     1       2.644  -0.092  21.921  0.00  0.00    +0.164 C 
ATOM     30  C   UNL     1       1.928   0.000  22.323  0.00  0.00    +0.124 C 
ENDBRANCH  22  25
ENDBRANCH  16  19
BRANCH  14  13
ATOM      9  N   UNL     1      -3.558   0.184  24.917  0.00  0.00    -0.263 NA
ATOM     10  C   UNL     1      -4.348   0.375  24.776  0.00  0.00    +0.073 C 
ATOM     11  C   UNL     1      -4.382   1.167  24.547  0.00  0.00    +0.019 C 
ATOM     12  C   UNL     1      -3.613   1.465  24.547  0.00  0.00    +0.027 C 
ATOM     13  C   UNL     1      -3.104   0.857  24.777  0.00  0.00    +0.138 C 
BRANCH   9   8
ATOM      8  C   UNL     1      -3.273  -0.551  25.158  0.00  0.00    +0.102 C 
BRANCH   8   7
ATOM      1  F   UNL     1      -2.955  -2.021  25.839  0.00  0.00    -0.204 F 
ATOM      2  C   UNL     1      -3.400  -1.975  25.145  0.00  0.00    +0.137 A 
ATOM      3  C   UNL     1      -3.686  -2.664  24.791  0.00  0.00    +0.029 A 
ATOM      4  C   UNL     1      -4.130  -2.618  24.098  0.00  0.00    +0.002 A 
ATOM      5  C   UNL     1      -4.289  -1.884  23.758  0.00  0.00    -0.000 A 
ATOM      6  C   UNL     1      -4.004  -1.195  24.111  0.00  0.00    -0.001 A 
ATOM      7  C   UNL     1      -3.559  -1.241  24.805  0.00  0.00    +0.021 A 
ENDBRANCH   8   7
ENDBRANCH   9   8
ENDBRANCH  14  13
TORSDOF 5
ENDMDL
MODEL 6
REMARK VINA RESULT:      -9.3      3.276      4.516
REMARK  Name = 
REMARK  5 active torsions:
REMARK  status: ('A' for Active; 'I' for Inactive)
REMARK    1  A    between atoms: C_7  and  C_8
REMARK    2  A    between atoms: C_8  and  N_9
REMARK    3  A    between atoms: C_13  and  C_14
REMARK    4  A    between atoms: C_16  and  C_19
REMARK    5  A    between atoms: C_22  and  N_25
REMARK                            x       y       z     vdW  Elec       q    Type
REMARK                         _______ _______ _______ _____ _____    ______ ____
ROOT
ATOM     14  C   UNL     1      -1.764   2.844  25.426  0.00  0.00    +0.251 A 
ATOM     15  N   UNL     1      -1.324   2.612  24.767  0.00  0.00    -0.190 NA
ATOM     16  C   UNL     1      -0.769   2.055  25.015  0.00  0.00    +0.205 A 
ATOM     17  N   UNL     1      -0.866   1.942  25.826  0.00  0.00    -0.056 NA
ATOM     18  O   UNL     1      -1.480   2.429  26.080  0.00  0.00    -0.336 OA
ENDROOT
BRANCH  16  19
ATOM     19  C   UNL     1      -0.214   1.676  24.535  0.00  0.00    +0.058 A 
ATOM     20  C   UNL     1      -0.395   0.948  24.192  0.00  0.00    +0.008 A 
ATOM     21  C   UNL     1       0.160   0.570  23.712  0.00  0.00    +0.034 A 
ATOM     22  C   UNL     1       0.894   0.920  23.576  0.00  0.00    +0.132 A 
ATOM     23  N   UNL     1       1.075   1.647  23.919  0.00  0.00    -0.229 NA
ATOM     24  C   UNL     1       0.521   2.026  24.399  0.00  0.00    +0.103 A 
BRANCH  22  25
ATOM     25  N   UNL     1       1.449   0.541  23.096  0.00  0.00    -0.288 N 
ATOM     26  C   UNL     1       2.252   0.710  23.183  0.00  0.00    +0.124 C 
ATOM     27  C   UNL     1       2.807   0.331  22.703  0.00  0.00    +0.164 C 
ATOM     28  O   UNL     1       2.558  -0.215  22.137  0.00  0.00    -0.350 OA
ATOM     29  C   UNL     1       1.755  -0.384  22.050  0.00  0.00    +0.164 C 
ATOM     30  C   UNL     1       1.201  -0.005  22.530  0.00  0.00    +0.124 C 
ENDBRANCH  22  25
ENDBRANCH  16  19
BRANCH  14  13
ATOM      9  N   UNL     1      -3.177   3.228  25.312  0.00  0.00    -0.263 NA
ATOM     10  C   UNL     1      -3.596   3.937  25.360  0.00  0.00    +0.073 C 
ATOM     11  C   UNL     1      -3.055   4.542  25.508  0.00  0.00    +0.019 C 
ATOM     12  C   UNL     1      -2.302   4.207  25.550  0.00  0.00    +0.027 C 
ATOM     13  C   UNL     1      -2.379   3.394  25.429  0.00  0.00    +0.138 C 
BRANCH   9   8
ATOM      8  C   UNL     1      -3.502   2.483  25.171  0.00  0.00    +0.102 C 
BRANCH   8   7
ATOM      1  F   UNL     1      -4.249   1.609  23.987  0.00  0.00    -0.204 F 
ATOM      2  C   UNL     1      -4.694   1.942  24.597  0.00  0.00    +0.137 A 
ATOM      3  C   UNL     1      -5.513   1.839  24.615  0.00  0.00    +0.029 A 
ATOM      4  C   UNL     1      -5.957   2.172  25.225  0.00  0.00    +0.002 A 
ATOM      5  C   UNL     1      -5.584   2.608  25.817  0.00  0.00    -0.000 A 
ATOM      6  C   UNL     1      -4.766   2.712  25.799  0.00  0.00    -0.001 A 
ATOM      7  C   UNL     1      -4.321   2.379  25.189  0.00  0.00    +0.021 A 
ENDBRANCH   8   7
ENDBRANCH   9   8
ENDBRANCH  14  13
TORSDOF 5
ENDMDL
MODEL 7
REMARK VINA RESULT:      -9.2      2.080      3.015
REMARK  Name = 
REMARK  5 active torsions:
REMARK  status: ('A' for Active; 'I' for Inactive)
REMARK    1  A    between atoms: C_7  and  C_8
REMARK    2  A    between atoms: C_8  and  N_9
REMARK    3  A    between atoms: C_13  and  C_14
REMARK    4  A    between atoms: C_16  and  C_19
REMARK    5  A    between atoms: C_22  and  N_25
REMARK                            x       y       z     vdW  Elec       q    Type
REMARK                         _______ _______ _______ _____ _____    ______ ____
ROOT
ATOM     14  C   UNL     1      -0.838   2.972  25.379  0.00  0.00    +0.251 A 
ATOM     15  N   UNL     1      -1.224   2.306  25.083  0.00  0.00    -0.190 NA
ATOM     16  C   UNL     1      -0.814   1.638  25.341  0.00  0.00    +0.205 A 
ATOM     17  N   UNL     1      -0.176   1.892  25.797  0.00  0.00    -0.056 NA
ATOM     18  O   UNL     1      -0.190   2.715  25.820  0.00  0.00    -0.336 OA
ENDROOT
BRANCH  16  19
ATOM     19  C   UNL     1      -1.010   0.854  25.174  0.00  0.00    +0.058 A 
ATOM     20  C   UNL     1      -1.280   0.359  25.775  0.00  0.00    +0.008 A 
ATOM     21  C   UNL     1      -1.475  -0.425  25.608  0.00  0.00    +0.034 A 
ATOM     22  C   UNL     1      -1.400  -0.713  24.838  0.00  0.00    +0.132 A 
ATOM     23  N   UNL     1      -1.130  -0.218  24.236  0.00  0.00    -0.229 NA
ATOM     24  C   UNL     1      -0.934   0.566  24.404  0.00  0.00    +0.103 A 
BRANCH  22  25
ATOM     25  N   UNL     1      -1.596  -1.498  24.670  0.00  0.00    -0.288 N 
ATOM     26  C   UNL     1      -2.387  -1.727  24.637  0.00  0.00    +0.124 C 
ATOM     27  C   UNL     1      -2.583  -2.511  24.469  0.00  0.00    +0.164 C 
ATOM     28  O   UNL     1      -1.986  -3.065  24.335  0.00  0.00    -0.350 OA
ATOM     29  C   UNL     1      -1.194  -2.836  24.369  0.00  0.00    +0.164 C 
ATOM     30  C   UNL     1      -0.999  -2.052  24.536  0.00  0.00    +0.124 C 
ENDBRANCH  22  25
ENDBRANCH  16  19
BRANCH  14  13
ATOM      9  N   UNL     1      -1.788   4.090  25.453  0.00  0.00    -0.263 NA
ATOM     10  C   UNL     1      -1.774   4.885  25.232  0.00  0.00    +0.073 C 
ATOM     11  C   UNL     1      -1.036   5.042  24.897  0.00  0.00    +0.019 C 
ATOM     12  C   UNL     1      -0.596   4.345  24.911  0.00  0.00    +0.027 C 
ATOM     13  C   UNL     1      -1.061   3.756  25.255  0.00  0.00    +0.138 C 
BRANCH   9   8
ATOM      8  C   UNL     1      -2.420   3.698  25.810  0.00  0.00    +0.102 C 
BRANCH   8   7
ATOM      1  F   UNL     1      -3.655   3.916  26.883  0.00  0.00    -0.204 F 
ATOM      2  C   UNL     1      -3.807   3.929  26.072  0.00  0.00    +0.137 A 
ATOM      3  C   UNL     1      -4.575   4.050  25.797  0.00  0.00    +0.029 A 
ATOM      4  C   UNL     1      -4.727   4.063  24.986  0.00  0.00    +0.002 A 
ATOM      5  C   UNL     1      -4.109   3.954  24.450  0.00  0.00    -0.000 A 
ATOM      6  C   UNL     1      -3.341   3.832  24.724  0.00  0.00    -0.001 A 
ATOM      7  C   UNL     1      -3.190   3.820  25.535  0.00  0.00    +0.021 A 
ENDBRANCH   8   7
ENDBRANCH   9   8
ENDBRANCH  14  13
TORSDOF 5
ENDMDL
MODEL 8
REMARK VINA RESULT:      -9.1      1.678      5.569
REMARK  Name = 
REMARK  5 active torsions:
REMARK  status: ('A' for Active; 'I' for Inactive)
REMARK    1  A    between atoms: C_7  and  C_8
REMARK    2  A    between atoms: C_8  and  N_9
REMARK    3  A    between atoms: C_13  and  C_14
REMARK    4  A    between atoms: C_16  and  C_19
REMARK    5  A    between atoms: C_22  and  N_25
REMARK                            x       y       z     vdW  Elec       q    Type
REMARK                         _______ _______ _______ _____ _____    ______ ____
ROOT
ATOM     14  C   UNL     1      -3.971   0.093  24.701  0.00  0.00    +0.251 A 
ATOM     15  N   UNL     1      -3.366   0.638  24.568  0.00  0.00    -0.190 NA
ATOM     16  C   UNL     1      -3.582   1.350  24.924  0.00  0.00    +0.205 A 
ATOM     17  N   UNL     1      -4.319   1.245  25.277  0.00  0.00    -0.056 NA
ATOM     18  O   UNL     1      -4.559   0.469  25.139  0.00  0.00    -0.336 OA
ENDROOT
BRANCH  16  19
ATOM     19  C   UNL     1      -3.137   2.046  24.926  0.00  0.00    +0.058 A 
ATOM     20  C   UNL     1      -2.478   2.112  25.417  0.00  0.00    +0.008 A 
ATOM     21  C   UNL     1      -2.034   2.808  25.420  0.00  0.00    +0.034 A 
ATOM     22  C   UNL     1      -2.249   3.436  24.930  0.00  0.00    +0.132 A 
ATOM     23  N   UNL     1      -2.908   3.370  24.439  0.00  0.00    -0.229 NA
ATOM     24  C   UNL     1      -3.353   2.674  24.437  0.00  0.00    +0.103 A 
BRANCH  22  25
ATOM     25  N   UNL     1      -1.805   4.132  24.933  0.00  0.00    -0.288 N 
ATOM     26  C   UNL     1      -1.018   4.118  24.686  0.00  0.00    +0.124 C 
ATOM     27  C   UNL     1      -0.573   4.814  24.688  0.00  0.00    +0.164 C 
ATOM     28  O   UNL     1      -0.916   5.522  24.937  0.00  0.00    -0.350 OA
ATOM     29  C   UNL     1      -1.703   5.535  25.183  0.00  0.00    +0.164 C 
ATOM     30  C   UNL     1      -2.148   4.839  25.181  0.00  0.00    +0.124 C 
ENDBRANCH  22  25
ENDBRANCH  16  19
BRANCH  14  13
ATOM      9  N   UNL     1      -3.486  -1.294  24.700  0.00  0.00    -0.263 NA
ATOM     10  C   UNL     1      -3.690  -1.984  24.297  0.00  0.00    +0.073 C 
ATOM     11  C   UNL     1      -4.315  -1.806  23.789  0.00  0.00    +0.019 C 
ATOM     12  C   UNL     1      -4.496  -1.006  23.878  0.00  0.00    +0.027 C 
ATOM     13  C   UNL     1      -3.983  -0.690  24.442  0.00  0.00    +0.138 C 
BRANCH   9   8
ATOM      8  C   UNL     1      -2.888  -1.221  25.264  0.00  0.00    +0.102 C 
BRANCH   8   7
ATOM      1  F   UNL     1      -1.603  -0.844  26.228  0.00  0.00    -0.204 F 
ATOM      2  C   UNL     1      -1.515  -1.398  25.622  0.00  0.00    +0.137 A 
ATOM      3  C   UNL     1      -0.786  -1.763  25.499  0.00  0.00    +0.029 A 
ATOM      4  C   UNL     1      -0.698  -2.317  24.894  0.00  0.00    +0.002 A 
ATOM      5  C   UNL     1      -1.341  -2.506  24.412  0.00  0.00    -0.000 A 
ATOM      6  C   UNL     1      -2.070  -2.141  24.535  0.00  0.00    -0.001 A 
ATOM      7  C   UNL     1      -2.157  -1.587  25.141  0.00  0.00    +0.021 A 
ENDBRANCH   8   7
ENDBRANCH   9   8
ENDBRANCH  14  13
TORSDOF 5
ENDMDL
