MODEL 1
REMARK VINA RESULT:     -12.2      0.000      0.000
REMARK  Name = 
REMARK  6 active torsions:
REMARK  status: ('A' for Active; 'I' for Inactive)
REMARK    1  A    between atoms: C_2  and  C_3
REMARK    2  A    between atoms: C_8  and  C_9
REMARK    3  A    between atoms: C_9  and  C_10
REMARK    4  A    between atoms: N_12  and  C_13
REMARK    5  A    between atoms: N_18  and  C_19
REMARK    6  A    between atoms: C_21  and  C_25
REMARK                            x       y       z     vdW  Elec       q    Type
REMARK                         _______ _______ _______ _____ _____    ______ ____
ROOT
ATOM      3  C   UNL     1      -4.217   2.216  25.119  0.00  0.00    +0.020 C 
ATOM      4  C   UNL     1      -4.179   1.410  24.943  0.00  0.00    +0.095 C 
ATOM      5  N   UNL     1      -3.555   1.117  24.489  0.00  0.00    -0.263 N 
ATOM      6  C   UNL     1      -2.971   1.629  24.211  0.00  0.00    +0.095 C 
ATOM      7  C   UNL     1      -3.010   2.433  24.387  0.00  0.00    +0.022 C 
ATOM      8  C   UNL     1      -3.633   2.727  24.841  0.00  0.00    +0.012 C 
ATOM     16  C   UNL     1      -3.517   0.311  24.313  0.00  0.00    +0.327 C 
ATOM     17  O   UNL     1      -2.893   0.018  23.859  0.00  0.00    -0.250 OA
ATOM     18  N   UNL     1      -4.101  -0.200  24.590  0.00  0.00    -0.162 NA
ENDROOT
BRANCH  18  19
ATOM     19  C   UNL     1      -4.063  -1.005  24.415  0.00  0.00    +0.075 A 
ATOM     20  C   UNL     1      -3.624  -1.511  24.896  0.00  0.00    +0.021 A 
ATOM     21  C   UNL     1      -3.585  -2.317  24.720  0.00  0.00    +0.073 A 
ATOM     22  C   UNL     1      -3.985  -2.615  24.063  0.00  0.00    +0.004 A 
ATOM     23  C   UNL     1      -4.423  -2.108  23.581  0.00  0.00    +0.001 A 
ATOM     24  C   UNL     1      -4.462  -1.304  23.757  0.00  0.00    +0.017 A 
BRANCH  21  25
ATOM     25  C   UNL     1      -3.147  -2.824  25.202  0.00  0.00    +0.419 C 
ATOM     26  F   UNL     1      -2.709  -3.331  25.683  0.00  0.00    -0.166 F 
ATOM     27  F   UNL     1      -3.702  -2.730  25.805  0.00  0.00    -0.166 F 
ATOM     28  F   UNL     1      -2.593  -2.918  24.598  0.00  0.00    -0.166 F 
ENDBRANCH  21  25
ENDBRANCH  18  19
BRANCH   3   2
ATOM      1  C   UNL     1      -5.592   2.171  25.508  0.00  0.00    +0.000 C 
ATOM      2  C   UNL     1      -4.841   2.509  25.572  0.00  0.00    +0.002 C 
ENDBRANCH   3   2
BRANCH   8   9
ATOM      9  C   UNL     1      -3.672   3.532  25.017  0.00  0.00    +0.087 C 
BRANCH   9  10
ATOM     10  C   UNL     1      -3.034   4.024  24.839  0.00  0.00    +0.241 C 
ATOM     11  O   UNL     1      -2.892   4.251  24.059  0.00  0.00    -0.273 OA
ATOM     12  N   UNL     1      -2.537   4.290  25.442  0.00  0.00    -0.207 NA
BRANCH  12  13
ATOM     13  C   UNL     1      -1.899   4.782  25.264  0.00  0.00    +0.095 C 
ATOM     14  C   UNL     1      -1.596   5.537  25.128  0.00  0.00    +0.023 C 
ATOM     15  C   UNL     1      -1.099   4.880  25.093  0.00  0.00    +0.023 C 
ENDBRANCH  12  13
ENDBRANCH   9  10
ENDBRANCH   8   9
TORSDOF 6
ENDMDL
MODEL 2
REMARK VINA RESULT:     -11.4      3.015      5.769
REMARK  Name = 
REMARK  6 active torsions:
REMARK  status: ('A' for Active; 'I' for Inactive)
REMARK    1  A    between atoms: C_2  and  C_3
REMARK    2  A    between atoms: C_8  and  C_9
REMARK    3  A    between atoms: C_9  and  C_10
REMARK    4  A    between atoms: N_12  and  C_13
REMARK    5  A    between atoms: N_18  and  C_19
REMARK    6  A    between atoms: C_21  and  C_25
REMARK                            x       y       z     vdW  Elec       q    Type
REMARK                         _______ _______ _______ _____ _____    ______ ____
ROOT
ATOM      3  C   UNL     1      -3.930   0.800  24.834  0.00  0.00    +0.020 C 
ATOM      4  C   UNL     1      -3.348   1.379  24.932  0.00  0.00    +0.095 C 
ATOM      5  N   UNL     1      -2.633   1.316  24.526  0.00  0.00    -0.263 N 
ATOM      6  C   UNL     1      -2.499   0.676  24.022  0.00  0.00    +0.095 C 
ATOM      7  C   UNL     1      -3.079   0.099  23.925  0.00  0.00    +0.022 C 
ATOM      8  C   UNL     1      -3.795   0.161  24.331  0.00  0.00    +0.012 C 
ATOM     16  C   UNL     1      -2.052   1.894  24.623  0.00  0.00    +0.327 C 
ATOM     17  O   UNL     1      -1.337   1.831  24.217  0.00  0.00    -0.250 OA
ATOM     18  N   UNL     1      -2.186   2.534  25.126  0.00  0.00    -0.162 NA
ENDROOT
BRANCH  18  19
ATOM     19  C   UNL     1      -1.606   3.111  25.223  0.00  0.00    +0.075 A 
ATOM     20  C   UNL     1      -1.786   3.904  25.086  0.00  0.00    +0.021 A 
ATOM     21  C   UNL     1      -1.204   4.482  25.184  0.00  0.00    +0.073 A 
ATOM     22  C   UNL     1      -0.444   4.266  25.417  0.00  0.00    +0.004 A 
ATOM     23  C   UNL     1      -0.263   3.473  25.554  0.00  0.00    +0.001 A 
ATOM     24  C   UNL     1      -0.844   2.896  25.457  0.00  0.00    +0.017 A 
BRANCH  21  25
ATOM     25  C   UNL     1      -1.385   5.276  25.047  0.00  0.00    +0.419 C 
ATOM     26  F   UNL     1      -1.565   6.069  24.910  0.00  0.00    -0.166 F 
ATOM     27  F   UNL     1      -0.821   5.300  24.445  0.00  0.00    -0.166 F 
ATOM     28  F   UNL     1      -1.948   5.252  25.649  0.00  0.00    -0.166 F 
ENDBRANCH  21  25
ENDBRANCH  18  19
BRANCH   3   2
ATOM      1  C   UNL     1      -5.042   1.587  25.268  0.00  0.00    +0.000 C 
ATOM      2  C   UNL     1      -4.645   0.863  25.241  0.00  0.00    +0.002 C 
ENDBRANCH   3   2
BRANCH   8   9
ATOM      9  C   UNL     1      -4.376  -0.416  24.234  0.00  0.00    +0.087 C 
BRANCH   9  10
ATOM     10  C   UNL     1      -4.161  -1.190  24.045  0.00  0.00    +0.241 C 
ATOM     11  O   UNL     1      -4.035  -1.403  23.258  0.00  0.00    -0.273 OA
ATOM     12  N   UNL     1      -4.071  -1.752  24.643  0.00  0.00    -0.207 NA
BRANCH  12  13
ATOM     13  C   UNL     1      -3.856  -2.525  24.454  0.00  0.00    +0.095 C 
ATOM     14  C   UNL     1      -4.026  -3.244  24.086  0.00  0.00    +0.023 C 
ATOM     15  C   UNL     1      -3.315  -3.146  24.494  0.00  0.00    +0.023 C 
ENDBRANCH  12  13
ENDBRANCH   9  10
ENDBRANCH   8   9
TORSDOF 6
ENDMDL
MODEL 3
REMARK VINA RESULT:     -11.1      1.510      2.219
REMARK  Name = 
REMARK  6 active torsions:
REMARK  status: ('A' for Active; 'I' for Inactive)
REMARK    1  A    between atoms: C_2  and  C_3
REMARK    2  A    between atoms: C_8  and  C_9
REMARK    3  A    between atoms: C_9  and  C_10
REMARK    4  A    between atoms: N_12  and  C_13
REMARK    5  A    between atoms: N_18  and  C_19
REMARK    6  A    between atoms: C_21  and  C_25
REMARK                            x       y       z     vdW  Elec       q    Type
REMARK                         _______ _______ _______ _____ _____    ______ ____
ROOT
ATOM      3  C   UNL     1      -0.895   1.405  24.571  0.00  0.00    +0.020 C 
ATOM      4  C   UNL     1      -1.462   0.810  24.490  0.00  0.00    +0.095 C 
ATOM      5  N   UNL     1      -2.222   0.922  24.791  0.00  0.00    -0.263 N 
ATOM      6  C   UNL     1      -2.416   1.627  25.173  0.00  0.00    +0.095 C 
ATOM      7  C   UNL     1      -1.849   2.221  25.254  0.00  0.00    +0.022 C 
ATOM      8  C   UNL     1      -1.089   2.110  24.953  0.00  0.00    +0.012 C 
ATOM     16  C   UNL     1      -2.789   0.327  24.710  0.00  0.00    +0.327 C 
ATOM     17  O   UNL     1      -3.549   0.439  25.011  0.00  0.00    -0.250 OA
ATOM     18  N   UNL     1      -2.596  -0.378  24.328  0.00  0.00    -0.162 NA
ENDROOT
BRANCH  18  19
ATOM     19  C   UNL     1      -3.162  -0.972  24.247  0.00  0.00    +0.075 A 
ATOM     20  C   UNL     1      -3.066  -1.689  24.643  0.00  0.00    +0.021 A 
ATOM     21  C   UNL     1      -3.633  -2.284  24.562  0.00  0.00    +0.073 A 
ATOM     22  C   UNL     1      -4.295  -2.160  24.086  0.00  0.00    +0.004 A 
ATOM     23  C   UNL     1      -4.391  -1.442  23.690  0.00  0.00    +0.001 A 
ATOM     24  C   UNL     1      -3.825  -0.849  23.771  0.00  0.00    +0.017 A 
BRANCH  21  25
ATOM     25  C   UNL     1      -3.538  -3.002  24.957  0.00  0.00    +0.419 C 
ATOM     26  F   UNL     1      -3.442  -3.720  25.352  0.00  0.00    -0.166 F 
ATOM     27  F   UNL     1      -3.388  -3.378  24.238  0.00  0.00    -0.166 F 
ATOM     28  F   UNL     1      -3.688  -2.626  25.676  0.00  0.00    -0.166 F 
ENDBRANCH  21  25
ENDBRANCH  18  19
BRANCH   3   2
ATOM      1  C   UNL     1       0.026   0.641  23.790  0.00  0.00    +0.000 C 
ATOM      2  C   UNL     1      -0.136   1.293  24.271  0.00  0.00    +0.002 C 
ENDBRANCH   3   2
BRANCH   8   9
ATOM      9  C   UNL     1      -0.523   2.704  25.034  0.00  0.00    +0.087 C 
BRANCH   9  10
ATOM     10  C   UNL     1      -0.755   3.473  25.223  0.00  0.00    +0.241 C 
ATOM     11  O   UNL     1      -1.001   3.653  25.989  0.00  0.00    -0.273 OA
ATOM     12  N   UNL     1      -0.741   4.062  24.645  0.00  0.00    -0.207 NA
BRANCH  12  13
ATOM     13  C   UNL     1      -0.974   4.831  24.833  0.00  0.00    +0.095 C 
ATOM     14  C   UNL     1      -1.552   5.358  25.093  0.00  0.00    +0.023 C 
ATOM     15  C   UNL     1      -0.799   5.633  24.901  0.00  0.00    +0.023 C 
ENDBRANCH  12  13
ENDBRANCH   9  10
ENDBRANCH   8   9
TORSDOF 6
ENDMDL
MODEL 4
REMARK VINA RESULT:     -10.4      3.198      4.777
REMARK  Name = 
REMARK  6 active torsions:
REMARK  status: ('A' for Active; 'I' for Inactive)
REMARK    1  A    between atoms: C_2  and  C_3
REMARK    2  A    between atoms: C_8  and  C_9
REMARK    3  A    between atoms: C_9  and  C_10
REMARK    4  A    between atoms: N_12  and  C_13
REMARK    5  A    between atoms: N_18  and  C_19
REMARK    6  A    between atoms: C_21  and  C_25
REMARK                            x       y       z     vdW  Elec       q    Type
REMARK                         _______ _______ _______ _____ _____    ______ ____
ROOT
ATOM      3  C   UNL     1      -1.277   0.299  24.837  0.00  0.00    +0.020 C 
ATOM      4  C   UNL     1      -1.947   0.776  24.915  0.00  0.00    +0.095 C 
ATOM      5  N   UNL     1      -2.135   1.321  24.326  0.00  0.00    -0.263 N 
ATOM      6  C   UNL     1      -1.654   1.391  23.659  0.00  0.00    +0.095 C 
ATOM      7  C   UNL     1      -0.986   0.915  23.581  0.00  0.00    +0.022 C 
ATOM      8  C   UNL     1      -0.797   0.369  24.171  0.00  0.00    +0.012 C 
ATOM     16  C   UNL     1      -2.804   1.798  24.404  0.00  0.00    +0.327 C 
ATOM     17  O   UNL     1      -2.992   2.344  23.814  0.00  0.00    -0.250 OA
ATOM     18  N   UNL     1      -3.285   1.729  25.071  0.00  0.00    -0.162 NA
ENDROOT
BRANCH  18  19
ATOM     19  C   UNL     1      -3.954   2.205  25.148  0.00  0.00    +0.075 A 
ATOM     20  C   UNL     1      -4.706   1.875  25.070  0.00  0.00    +0.021 A 
ATOM     21  C   UNL     1      -5.376   2.352  25.147  0.00  0.00    +0.073 A 
ATOM     22  C   UNL     1      -5.292   3.158  25.303  0.00  0.00    +0.004 A 
ATOM     23  C   UNL     1      -4.540   3.487  25.381  0.00  0.00    +0.001 A 
ATOM     24  C   UNL     1      -3.871   3.011  25.304  0.00  0.00    +0.017 A 
BRANCH  21  25
ATOM     25  C   UNL     1      -6.128   2.022  25.069  0.00  0.00    +0.419 C 
ATOM     26  F   UNL     1      -6.880   1.693  24.991  0.00  0.00    -0.166 F 
ATOM     27  F   UNL     1      -6.160   1.903  25.885  0.00  0.00    -0.166 F 
ATOM     28  F   UNL     1      -6.095   2.142  24.253  0.00  0.00    -0.166 F 
ENDBRANCH  21  25
ENDBRANCH  18  19
BRANCH   3   2
ATOM      1  C   UNL     1      -1.692  -0.647  25.824  0.00  0.00    +0.000 C 
ATOM      2  C   UNL     1      -1.089  -0.246  25.427  0.00  0.00    +0.002 C 
ENDBRANCH   3   2
BRANCH   8   9
ATOM      9  C   UNL     1      -0.128  -0.107  24.093  0.00  0.00    +0.087 C 
BRANCH   9  10
ATOM     10  C   UNL     1       0.499   0.137  23.617  0.00  0.00    +0.241 C 
ATOM     11  O   UNL     1       0.713   0.933  23.592  0.00  0.00    -0.273 OA
ATOM     12  N   UNL     1       0.914  -0.415  23.164  0.00  0.00    -0.207 NA
BRANCH  12  13
ATOM     13  C   UNL     1       1.542  -0.170  22.688  0.00  0.00    +0.095 C 
ATOM     14  C   UNL     1       2.306   0.130  22.613  0.00  0.00    +0.023 C 
ATOM     15  C   UNL     1       1.864  -0.048  21.939  0.00  0.00    +0.023 C 
ENDBRANCH  12  13
ENDBRANCH   9  10
ENDBRANCH   8   9
TORSDOF 6
ENDMDL
