MODEL 1
REMARK VINA RESULT:      -9.7      0.000      0.000
REMARK  Name = 
REMARK  8 active torsions:
REMARK  status: ('A' for Active; 'I' for Inactive)
REMARK    1  A    between atoms: C_2  and  C_4
REMARK    2  A    between atoms: C_6  and  C_7
REMARK    3  A    between atoms: C_7  and  C_8
REMARK    4  A    between atoms: C_21  and  C_22
REMARK    5  A    between atoms: C_22  and  N_23
REMARK    6  A    between atoms: C_24  and  C_26
REMARK    7  A    between atoms: C_26  and  C_27
REMARK    8  A    between atoms: C_27  and  C_28
REMARK                            x       y       z     vdW  Elec       q    Type
REMARK                         _______ _______ _______ _____ _____    ______ ____
ROOT
ATOM      4  C   UNL     1      -1.456   1.614  24.524  0.00  0.00    +0.006 C 
ATOM      5  C   UNL     1      -2.108   2.112  24.444  0.00  0.00    +0.005 C 
ATOM      6  C   UNL     1      -2.450   2.230  23.702  0.00  0.00    +0.026 C 
ATOM     18  C   UNL     1      -2.139   1.848  23.040  0.00  0.00    -0.048 C 
ATOM     19  C   UNL     1      -2.481   1.965  22.298  0.00  0.00    +0.026 C 
ATOM     20  C   UNL     1      -1.487   1.349  23.119  0.00  0.00    -0.033 C 
ATOM     21  C   UNL     1      -1.145   1.232  23.862  0.00  0.00    +0.043 C 
ENDROOT
BRANCH   4   2
ATOM      1  C   UNL     1      -0.583   2.050  25.567  0.00  0.00    +0.000 C 
ATOM      2  C   UNL     1      -1.114   1.496  25.265  0.00  0.00    +0.000 C 
ATOM      3  C   UNL     1      -1.304   0.824  25.705  0.00  0.00    +0.000 C 
ENDBRANCH   4   2
BRANCH   6   7
ATOM      7  C   UNL     1      -3.102   2.729  23.622  0.00  0.00    +0.070 C 
BRANCH   7   8
ATOM      8  C   UNL     1      -3.735   2.668  24.147  0.00  0.00    +0.139 A 
ATOM      9  N   UNL     1      -3.937   3.216  24.730  0.00  0.00    -0.229 NA
ATOM     10  C   UNL     1      -4.605   2.935  25.124  0.00  0.00    +0.100 A 
ATOM     11  C   UNL     1      -4.816   2.214  24.785  0.00  0.00    +0.101 A 
ATOM     12  N   UNL     1      -4.279   2.049  24.181  0.00  0.00    -0.229 NA
ATOM     13  C   UNL     1      -5.471   1.801  25.070  0.00  0.00    +0.032 A 
ATOM     14  C   UNL     1      -5.914   2.108  25.694  0.00  0.00    +0.059 A 
ATOM     15 CL   UNL     1      -6.569   1.695  25.979  0.00  0.00    -0.082 Cl
ATOM     16  C   UNL     1      -5.702   2.831  26.033  0.00  0.00    +0.013 A 
ATOM     17  C   UNL     1      -5.048   3.244  25.748  0.00  0.00    +0.022 A 
ENDBRANCH   7   8
ENDBRANCH   6   7
BRANCH  21  22
ATOM     22  C   UNL     1      -0.493   0.733  23.940  0.00  0.00    +0.119 C 
BRANCH  22  23
ATOM     23  N   UNL     1       0.087   0.718  23.354  0.00  0.00    -0.205 NA
ATOM     24  C   UNL     1       0.582   0.061  23.280  0.00  0.00    +0.242 C 
ATOM     25  O   UNL     1       0.496  -0.580  23.792  0.00  0.00    -0.273 OA
BRANCH  24  26
ATOM     26  C   UNL     1       1.162   0.047  22.694  0.00  0.00    +0.099 C 
BRANCH  26  27
ATOM     27  C   UNL     1       1.956  -0.040  22.902  0.00  0.00    +0.124 C 
BRANCH  27  28
ATOM     28  C   UNL     1       2.546   0.121  22.349  0.00  0.00    +0.365 C 
ATOM     29  O   UNL     1       2.446  -0.104  21.561  0.00  0.00    -0.246 OA
ATOM     30  O   UNL     1       3.237   0.508  22.583  0.00  0.00    -0.246 OA
ENDBRANCH  27  28
ENDBRANCH  26  27
ENDBRANCH  24  26
ENDBRANCH  22  23
ENDBRANCH  21  22
TORSDOF 8
ENDMDL
MODEL 2
REMARK VINA RESULT:      -9.5      3.328      4.790
REMARK  Name = 
REMARK  8 active torsions:
REMARK  status: ('A' for Active; 'I' for Inactive)
REMARK    1  A    between atoms: C_2  and  C_4
REMARK    2  A    between atoms: C_6  and  C_7
REMARK    3  A    between atoms: C_7  and  C_8
REMARK    4  A    between atoms: C_21  and  C_22
REMARK    5  A    between atoms: C_22  and  N_23
REMARK    6  A    between atoms: C_24  and  C_26
REMARK    7  A    between atoms: C_26  and  C_27
REMARK    8  A    between atoms: C_27  and  C_28
REMARK                            x       y       z     vdW  Elec       q    Type
REMARK                         _______ _______ _______ _____ _____    ______ ____
ROOT
ATOM      4  C   UNL     1      -4.254   1.804  24.608  0.00  0.00    +0.006 C 
ATOM      5  C   UNL     1      -4.183   1.119  24.153  0.00  0.00    +0.005 C 
ATOM      6  C   UNL     1      -3.501   0.989  23.708  0.00  0.00    +0.026 C 
ATOM     18  C   UNL     1      -2.890   1.543  23.718  0.00  0.00    -0.048 C 
ATOM     19  C   UNL     1      -2.207   1.412  23.272  0.00  0.00    +0.026 C 
ATOM     20  C   UNL     1      -2.960   2.227  24.172  0.00  0.00    -0.033 C 
ATOM     21  C   UNL     1      -3.643   2.358  24.618  0.00  0.00    +0.043 C 
ENDROOT
BRANCH   4   2
ATOM      1  C   UNL     1      -4.999   1.620  25.813  0.00  0.00    +0.000 C 
ATOM      2  C   UNL     1      -4.936   1.935  25.053  0.00  0.00    +0.000 C 
ATOM      3  C   UNL     1      -5.555   2.380  24.738  0.00  0.00    +0.000 C 
ENDBRANCH   4   2
BRANCH   6   7
ATOM      7  C   UNL     1      -3.430   0.304  23.253  0.00  0.00    +0.070 C 
BRANCH   7   8
ATOM      8  C   UNL     1      -3.486  -0.437  23.610  0.00  0.00    +0.139 A 
ATOM      9  N   UNL     1      -4.052  -1.014  23.443  0.00  0.00    -0.229 NA
ATOM     10  C   UNL     1      -3.901  -1.666  23.926  0.00  0.00    +0.100 A 
ATOM     11  C   UNL     1      -3.244  -1.491  24.392  0.00  0.00    +0.101 A 
ATOM     12  N   UNL     1      -2.987  -0.732  24.196  0.00  0.00    -0.229 NA
ATOM     13  C   UNL     1      -2.963  -2.046  24.934  0.00  0.00    +0.032 A 
ATOM     14  C   UNL     1      -3.341  -2.776  25.011  0.00  0.00    +0.059 A 
ATOM     15 CL   UNL     1      -3.061  -3.331  25.553  0.00  0.00    -0.082 Cl
ATOM     16  C   UNL     1      -4.000  -2.950  24.544  0.00  0.00    +0.013 A 
ATOM     17  C   UNL     1      -4.280  -2.395  24.002  0.00  0.00    +0.022 A 
ENDBRANCH   7   8
ENDBRANCH   6   7
BRANCH  21  22
ATOM     22  C   UNL     1      -3.713   3.043  25.073  0.00  0.00    +0.119 C 
BRANCH  22  23
ATOM     23  N   UNL     1      -3.224   3.689  24.921  0.00  0.00    -0.205 NA
ATOM     24  C   UNL     1      -2.992   4.184  25.540  0.00  0.00    +0.242 C 
ATOM     25  O   UNL     1      -3.250   4.032  26.309  0.00  0.00    -0.273 OA
BRANCH  24  26
ATOM     26  C   UNL     1      -2.502   4.830  25.389  0.00  0.00    +0.099 C 
BRANCH  26  27
ATOM     27  C   UNL     1      -1.685   4.760  25.488  0.00  0.00    +0.124 C 
BRANCH  27  28
ATOM     28  C   UNL     1      -1.177   5.273  25.089  0.00  0.00    +0.365 C 
ATOM     29  O   UNL     1      -1.379   6.069  25.003  0.00  0.00    -0.246 OA
ATOM     30  O   UNL     1      -0.467   4.992  24.777  0.00  0.00    -0.246 OA
ENDBRANCH  27  28
ENDBRANCH  26  27
ENDBRANCH  24  26
ENDBRANCH  22  23
ENDBRANCH  21  22
TORSDOF 8
ENDMDL
MODEL 3
REMARK VINA RESULT:      -8.6      3.175      4.658
REMARK  Name = 
REMARK  8 active torsions:
REMARK  status: ('A' for Active; 'I' for Inactive)
REMARK    1  A    between atoms: C_2  and  C_4
REMARK    2  A    between atoms: C_6  and  C_7
REMARK    3  A    between atoms: C_7  and  C_8
REMARK    4  A    between atoms: C_21  and  C_22
REMARK    5  A    between atoms: C_22  and  N_23
REMARK    6  A    between atoms: C_24  and  C_26
REMARK    7  A    between atoms: C_26  and  C_27
REMARK    8  A    between atoms: C_27  and  C_28
REMARK                            x       y       z     vdW  Elec       q    Type
REMARK                         _______ _______ _______ _____ _____    ______ ____
ROOT
ATOM      4  C   UNL     1      -3.577   1.805  23.820  0.00  0.00    +0.006 C 
ATOM      5  C   UNL     1      -3.977   1.099  23.968  0.00  0.00    +0.005 C 
ATOM      6  C   UNL     1      -4.548   1.064  24.562  0.00  0.00    +0.026 C 
ATOM     18  C   UNL     1      -4.719   1.736  25.009  0.00  0.00    -0.048 C 
ATOM     19  C   UNL     1      -5.290   1.702  25.604  0.00  0.00    +0.026 C 
ATOM     20  C   UNL     1      -4.320   2.443  24.862  0.00  0.00    -0.033 C 
ATOM     21  C   UNL     1      -3.749   2.477  24.266  0.00  0.00    +0.043 C 
ENDROOT
BRANCH   4   2
ATOM      1  C   UNL     1      -3.207   2.123  22.478  0.00  0.00    +0.000 C 
ATOM      2  C   UNL     1      -3.007   1.839  23.226  0.00  0.00    +0.000 C 
ATOM      3  C   UNL     1      -2.236   1.590  23.379  0.00  0.00    +0.000 C 
ENDBRANCH   4   2
BRANCH   6   7
ATOM      7  C   UNL     1      -4.948   0.358  24.711  0.00  0.00    +0.070 C 
BRANCH   7   8
ATOM      8  C   UNL     1      -4.531  -0.352  24.751  0.00  0.00    +0.139 A 
ATOM      9  N   UNL     1      -4.066  -0.607  25.384  0.00  0.00    -0.229 NA
ATOM     10  C   UNL     1      -3.754  -1.345  25.189  0.00  0.00    +0.100 A 
ATOM     11  C   UNL     1      -4.025  -1.547  24.437  0.00  0.00    +0.101 A 
ATOM     12  N   UNL     1      -4.505  -0.934  24.166  0.00  0.00    -0.229 NA
ATOM     13  C   UNL     1      -3.799  -2.263  24.096  0.00  0.00    +0.032 A 
ATOM     14  C   UNL     1      -3.302  -2.778  24.507  0.00  0.00    +0.059 A 
ATOM     15 CL   UNL     1      -3.076  -3.494  24.165  0.00  0.00    -0.082 Cl
ATOM     16  C   UNL     1      -3.031  -2.576  25.260  0.00  0.00    +0.013 A 
ATOM     17  C   UNL     1      -3.257  -1.860  25.601  0.00  0.00    +0.022 A 
ENDBRANCH   7   8
ENDBRANCH   6   7
BRANCH  21  22
ATOM     22  C   UNL     1      -3.349   3.184  24.119  0.00  0.00    +0.119 C 
BRANCH  22  23
ATOM     23  N   UNL     1      -2.791   3.461  24.659  0.00  0.00    -0.205 NA
ATOM     24  C   UNL     1      -2.665   4.273  24.742  0.00  0.00    +0.242 C 
ATOM     25  O   UNL     1      -3.098   4.806  24.285  0.00  0.00    -0.273 OA
BRANCH  24  26
ATOM     26  C   UNL     1      -2.106   4.550  25.282  0.00  0.00    +0.099 C 
BRANCH  26  27
ATOM     27  C   UNL     1      -1.574   5.140  25.058  0.00  0.00    +0.124 C 
BRANCH  27  28
ATOM     28  C   UNL     1      -0.762   5.000  25.101  0.00  0.00    +0.365 C 
ATOM     29  O   UNL     1      -0.239   5.479  24.678  0.00  0.00    -0.246 OA
ATOM     30  O   UNL     1      -0.473   4.383  25.566  0.00  0.00    -0.246 OA
ENDBRANCH  27  28
ENDBRANCH  26  27
ENDBRANCH  24  26
ENDBRANCH  22  23
ENDBRANCH  21  22
TORSDOF 8
ENDMDL
MODEL 4
REMARK VINA RESULT:      -8.4      3.045      4.365
REMARK  Name = 
REMARK  8 active torsions:
REMARK  status: ('A' for Active; 'I' for Inactive)
REMARK    1  A    between atoms: C_2  and  C_4
REMARK    2  A    between atoms: C_6  and  C_7
REMARK    3  A    between atoms: C_7  and  C_8
REMARK    4  A    between atoms: C_21  and  C_22
REMARK    5  A    between atoms: C_22  and  N_23
REMARK    6  A    between atoms: C_24  and  C_26
REMARK    7  A    between atoms: C_26  and  C_27
REMARK    8  A    between atoms: C_27  and  C_28
REMARK                            x       y       z     vdW  Elec       q    Type
REMARK                         _______ _______ _______ _____ _____    ______ ____
ROOT
ATOM      4  C   UNL     1      -3.504   1.322  23.880  0.00  0.00    +0.006 C 
ATOM      5  C   UNL     1      -3.543   2.083  24.195  0.00  0.00    +0.005 C 
ATOM      6  C   UNL     1      -4.119   2.269  24.756  0.00  0.00    +0.026 C 
ATOM     18  C   UNL     1      -4.656   1.692  25.002  0.00  0.00    -0.048 C 
ATOM     19  C   UNL     1      -5.232   1.878  25.563  0.00  0.00    +0.026 C 
ATOM     20  C   UNL     1      -4.617   0.931  24.687  0.00  0.00    -0.033 C 
ATOM     21  C   UNL     1      -4.040   0.745  24.126  0.00  0.00    +0.043 C 
ENDROOT
BRANCH   4   2
ATOM      1  C   UNL     1      -2.201   0.831  23.560  0.00  0.00    +0.000 C 
ATOM      2  C   UNL     1      -2.928   1.136  23.320  0.00  0.00    +0.000 C 
ATOM      3  C   UNL     1      -3.080   1.256  22.518  0.00  0.00    +0.000 C 
ENDBRANCH   4   2
BRANCH   6   7
ATOM      7  C   UNL     1      -4.159   3.030  25.071  0.00  0.00    +0.070 C 
BRANCH   7   8
ATOM      8  C   UNL     1      -3.475   3.486  25.137  0.00  0.00    +0.139 A 
ATOM      9  N   UNL     1      -2.866   3.371  25.683  0.00  0.00    -0.229 NA
ATOM     10  C   UNL     1      -2.294   3.951  25.552  0.00  0.00    +0.100 A 
ATOM     11  C   UNL     1      -2.549   4.425  24.927  0.00  0.00    +0.101 A 
ATOM     12  N   UNL     1      -3.278   4.137  24.671  0.00  0.00    -0.229 NA
ATOM     13  C   UNL     1      -2.084   5.056  24.673  0.00  0.00    +0.032 A 
ATOM     14  C   UNL     1      -1.364   5.215  25.043  0.00  0.00    +0.059 A 
ATOM     15 CL   UNL     1      -0.898   5.847  24.788  0.00  0.00    -0.082 Cl
ATOM     16  C   UNL     1      -1.109   4.740  25.668  0.00  0.00    +0.013 A 
ATOM     17  C   UNL     1      -1.574   4.109  25.923  0.00  0.00    +0.022 A 
ENDBRANCH   7   8
ENDBRANCH   6   7
BRANCH  21  22
ATOM     22  C   UNL     1      -4.001  -0.016  23.812  0.00  0.00    +0.119 C 
BRANCH  22  23
ATOM     23  N   UNL     1      -3.913  -0.664  24.314  0.00  0.00    -0.205 NA
ATOM     24  C   UNL     1      -4.093  -1.423  24.043  0.00  0.00    +0.242 C 
ATOM     25  O   UNL     1      -4.362  -1.533  23.271  0.00  0.00    -0.273 OA
BRANCH  24  26
ATOM     26  C   UNL     1      -4.004  -2.072  24.546  0.00  0.00    +0.099 C 
BRANCH  26  27
ATOM     27  C   UNL     1      -3.496  -2.688  24.337  0.00  0.00    +0.124 C 
BRANCH  27  28
ATOM     28  C   UNL     1      -3.033  -3.052  24.914  0.00  0.00    +0.365 C 
ATOM     29  O   UNL     1      -2.214  -3.095  24.818  0.00  0.00    -0.246 OA
ATOM     30  O   UNL     1      -3.387  -3.373  25.587  0.00  0.00    -0.246 OA
ENDBRANCH  27  28
ENDBRANCH  26  27
ENDBRANCH  24  26
ENDBRANCH  22  23
ENDBRANCH  21  22
TORSDOF 8
ENDMDL
MODEL 5
REMARK VINA RESULT:      -8.3      3.393      4.340
REMARK  Name = 
REMARK  8 active torsions:
REMARK  status: ('A' for Active; 'I' for Inactive)
REMARK    1  A    between atoms: C_2  and  C_4
REMARK    2  A    between atoms: C_6  and  C_7
REMARK    3  A    between atoms: C_7  and  C_8
REMARK    4  A    between atoms: C_21  and  C_22
REMARK    5  A    between atoms: C_22  and  N_23
REMARK    6  A    between atoms: C_24  and  C_26
REMARK    7  A    between atoms: C_26  and  C_27
REMARK    8  A    between atoms: C_27  and  C_28
REMARK                            x       y       z     vdW  Elec       q    Type
REMARK                         _______ _______ _______ _____ _____    ______ ____
ROOT
ATOM      4  C   UNL     1      -1.848   0.929  24.915  0.00  0.00    +0.006 C 
ATOM      5  C   UNL     1      -2.502   0.450  25.067  0.00  0.00    +0.005 C 
ATOM      6  C   UNL     1      -3.264   0.749  24.973  0.00  0.00    +0.026 C 
ATOM     18  C   UNL     1      -3.373   1.529  24.727  0.00  0.00    -0.048 C 
ATOM     19  C   UNL     1      -4.136   1.830  24.632  0.00  0.00    +0.026 C 
ATOM     20  C   UNL     1      -2.720   2.010  24.575  0.00  0.00    -0.033 C 
ATOM     21  C   UNL     1      -1.957   1.709  24.669  0.00  0.00    +0.043 C 
ENDROOT
BRANCH   4   2
ATOM      1  C   UNL     1      -0.723   0.651  25.750  0.00  0.00    +0.000 C 
ATOM      2  C   UNL     1      -1.085   0.630  25.010  0.00  0.00    +0.000 C 
ATOM      3  C   UNL     1      -0.686   0.309  24.363  0.00  0.00    +0.000 C 
ENDBRANCH   4   2
BRANCH   6   7
ATOM      7  C   UNL     1      -3.918   0.270  25.124  0.00  0.00    +0.070 C 
BRANCH   7   8
ATOM      8  C   UNL     1      -3.896  -0.532  24.933  0.00  0.00    +0.139 A 
ATOM      9  N   UNL     1      -3.621  -1.139  25.420  0.00  0.00    -0.229 NA
ATOM     10  C   UNL     1      -3.699  -1.850  25.009  0.00  0.00    +0.100 A 
ATOM     11  C   UNL     1      -4.022  -1.683  24.270  0.00  0.00    +0.101 A 
ATOM     12  N   UNL     1      -4.144  -0.869  24.222  0.00  0.00    -0.229 NA
ATOM     13  C   UNL     1      -4.164  -2.295  23.734  0.00  0.00    +0.032 A 
ATOM     14  C   UNL     1      -3.983  -3.073  23.939  0.00  0.00    +0.059 A 
ATOM     15 CL   UNL     1      -4.125  -3.685  23.403  0.00  0.00    -0.082 Cl
ATOM     16  C   UNL     1      -3.660  -3.240  24.680  0.00  0.00    +0.013 A 
ATOM     17  C   UNL     1      -3.518  -2.629  25.215  0.00  0.00    +0.022 A 
ENDBRANCH   7   8
ENDBRANCH   6   7
BRANCH  21  22
ATOM     22  C   UNL     1      -1.304   2.190  24.518  0.00  0.00    +0.119 C 
BRANCH  22  23
ATOM     23  N   UNL     1      -1.393   3.009  24.492  0.00  0.00    -0.205 NA
ATOM     24  C   UNL     1      -0.738   3.491  24.346  0.00  0.00    +0.242 C 
ATOM     25  O   UNL     1       0.004   3.152  24.226  0.00  0.00    -0.273 OA
BRANCH  24  26
ATOM     26  C   UNL     1      -0.828   4.311  24.321  0.00  0.00    +0.099 C 
BRANCH  26  27
ATOM     27  C   UNL     1      -0.838   4.746  25.022  0.00  0.00    +0.124 C 
BRANCH  27  28
ATOM     28  C   UNL     1      -1.184   5.495  25.037  0.00  0.00    +0.365 C 
ATOM     29  O   UNL     1      -1.905   5.607  25.423  0.00  0.00    -0.246 OA
ATOM     30  O   UNL     1      -0.810   6.130  24.667  0.00  0.00    -0.246 OA
ENDBRANCH  27  28
ENDBRANCH  26  27
ENDBRANCH  24  26
ENDBRANCH  22  23
ENDBRANCH  21  22
TORSDOF 8
ENDMDL
MODEL 6
REMARK VINA RESULT:      -7.8      3.151      6.181
REMARK  Name = 
REMARK  8 active torsions:
REMARK  status: ('A' for Active; 'I' for Inactive)
REMARK    1  A    between atoms: C_2  and  C_4
REMARK    2  A    between atoms: C_6  and  C_7
REMARK    3  A    between atoms: C_7  and  C_8
REMARK    4  A    between atoms: C_21  and  C_22
REMARK    5  A    between atoms: C_22  and  N_23
REMARK    6  A    between atoms: C_24  and  C_26
REMARK    7  A    between atoms: C_26  and  C_27
REMARK    8  A    between atoms: C_27  and  C_28
REMARK                            x       y       z     vdW  Elec       q    Type
REMARK                         _______ _______ _______ _____ _____    ______ ____
ROOT
ATOM      4  C   UNL     1      -0.972   2.032  24.709  0.00  0.00    +0.006 C 
ATOM      5  C   UNL     1      -0.499   1.363  24.609  0.00  0.00    +0.005 C 
ATOM      6  C   UNL     1      -0.845   0.633  24.443  0.00  0.00    +0.026 C 
ATOM     18  C   UNL     1      -1.665   0.572  24.377  0.00  0.00    -0.048 C 
ATOM     19  C   UNL     1      -2.012  -0.159  24.210  0.00  0.00    +0.026 C 
ATOM     20  C   UNL     1      -2.139   1.239  24.477  0.00  0.00    -0.033 C 
ATOM     21  C   UNL     1      -1.792   1.970  24.643  0.00  0.00    +0.043 C 
ENDROOT
BRANCH   4   2
ATOM      1  C   UNL     1      -0.468   2.975  25.656  0.00  0.00    +0.000 C 
ATOM      2  C   UNL     1      -0.626   2.761  24.875  0.00  0.00    +0.000 C 
ATOM      3  C   UNL     1      -0.437   3.278  24.260  0.00  0.00    +0.000 C 
ENDBRANCH   4   2
BRANCH   6   7
ATOM      7  C   UNL     1      -0.372  -0.035  24.342  0.00  0.00    +0.070 C 
BRANCH   7   8
ATOM      8  C   UNL     1       0.270  -0.013  23.826  0.00  0.00    +0.139 A 
ATOM      9  N   UNL     1       0.269  -0.261  23.038  0.00  0.00    -0.229 NA
ATOM     10  C   UNL     1       1.025  -0.140  22.732  0.00  0.00    +0.100 A 
ATOM     11  C   UNL     1       1.494   0.182  23.329  0.00  0.00    +0.101 A 
ATOM     12  N   UNL     1       1.027   0.261  24.005  0.00  0.00    -0.229 NA
ATOM     13  C   UNL     1       2.285   0.362  23.179  0.00  0.00    +0.032 A 
ATOM     14  C   UNL     1       2.607   0.220  22.434  0.00  0.00    +0.059 A 
ATOM     15 CL   UNL     1       3.398   0.401  22.284  0.00  0.00    -0.082 Cl
ATOM     16  C   UNL     1       2.137  -0.102  21.836  0.00  0.00    +0.013 A 
ATOM     17  C   UNL     1       1.346  -0.283  21.985  0.00  0.00    +0.022 A 
ENDBRANCH   7   8
ENDBRANCH   6   7
BRANCH  21  22
ATOM     22  C   UNL     1      -2.266   2.638  24.743  0.00  0.00    +0.119 C 
BRANCH  22  23
ATOM     23  N   UNL     1      -3.079   2.552  24.853  0.00  0.00    -0.205 NA
ATOM     24  C   UNL     1      -3.571   3.214  24.817  0.00  0.00    +0.242 C 
ATOM     25  O   UNL     1      -3.250   3.960  24.671  0.00  0.00    -0.273 OA
BRANCH  24  26
ATOM     26  C   UNL     1      -4.385   3.129  24.926  0.00  0.00    +0.099 C 
BRANCH  26  27
ATOM     27  C   UNL     1      -4.763   3.535  25.537  0.00  0.00    +0.124 C 
BRANCH  27  28
ATOM     28  C   UNL     1      -5.569   3.422  25.669  0.00  0.00    +0.365 C 
ATOM     29  O   UNL     1      -6.076   4.072  25.708  0.00  0.00    -0.246 OA
ATOM     30  O   UNL     1      -5.869   2.659  25.764  0.00  0.00    -0.246 OA
ENDBRANCH  27  28
ENDBRANCH  26  27
ENDBRANCH  24  26
ENDBRANCH  22  23
ENDBRANCH  21  22
TORSDOF 8
ENDMDL
