REMARK  Name = 
REMARK  7 active torsions:
REMARK  status: ('A' for Active; 'I' for Inactive)
REMARK    1  A    between atoms: C_5  and  N_6
REMARK    2  A    between atoms: N_9  and  C_10
REMARK    3  A    between atoms: C_12  and  C_19
REMARK    4  A    between atoms: N_21  and  C_22
REMARK    5  A    between atoms: C_22  and  C_23
REMARK    6  A    between atoms: C_22  and  C_29
REMARK    7  A    between atoms: C_23  and  C_24
REMARK                            x       y       z     vdW  Elec       q    Type
REMARK                         _______ _______ _______ _____ _____    ______ ____
ROOT
ATOM     10  C   UNL     1      -2.904  -0.412   0.000  0.00  0.00    +0.133 C 
ATOM     11  C   UNL     1      -2.622   0.363   0.000  0.00  0.00    +0.064 C 
ATOM     12  C   UNL     1      -1.809   0.506   0.000  0.00  0.00    +0.200 C 
ATOM     13  O   UNL     1      -2.091   1.281   0.000  0.00  0.00    -0.216 OA
ATOM     14  C   UNL     1      -1.279  -0.126   0.000  0.00  0.00    +0.075 C 
ATOM     15  C   UNL     1      -1.561  -0.901   0.000  0.00  0.00    +0.187 C 
ATOM     16  O   UNL     1      -1.031  -1.533   0.000  0.00  0.00    -0.220 OA
ATOM     17  C   UNL     1      -2.373  -1.044   0.000  0.00  0.00    +0.202 C 
ATOM     18  O   UNL     1      -2.656  -1.820   0.000  0.00  0.00    -0.219 OA
ENDROOT
BRANCH  10   9
ATOM      6  N   UNL     1      -4.811  -1.474   0.000  0.00  0.00    -0.161 NA
ATOM      7  C   UNL     1      -3.998  -1.331   0.000  0.00  0.00    +0.344 C 
ATOM      8  O   UNL     1      -3.468  -1.963   0.000  0.00  0.00    -0.249 OA
ATOM      9  N   UNL     1      -3.716  -0.556   0.000  0.00  0.00    -0.186 NA
BRANCH   6   5
ATOM      1  C   UNL     1      -5.939  -4.575   0.000  0.00  0.00    +0.031 C 
ATOM      2  C   UNL     1      -5.657  -3.800   0.000  0.00  0.00    -0.022 A 
ATOM      3  C   UNL     1      -6.188  -3.168   0.000  0.00  0.00    -0.003 A 
ATOM      4  C   UNL     1      -5.905  -2.393   0.000  0.00  0.00    +0.016 A 
ATOM      5  C   UNL     1      -5.093  -2.249   0.000  0.00  0.00    +0.075 A 
ATOM     32  C   UNL     1      -4.563  -2.881   0.000  0.00  0.00    +0.016 A 
ATOM     33  C   UNL     1      -4.845  -3.657   0.000  0.00  0.00    -0.003 A 
ENDBRANCH   6   5
ENDBRANCH  10   9
BRANCH  12  19
ATOM     19  C   UNL     1      -1.095   0.918   0.000  0.00  0.00    +0.269 C 
ATOM     20  O   UNL     1      -0.380   0.506   0.000  0.00  0.00    -0.271 OA
ATOM     21  N   UNL     1      -1.095   1.744   0.000  0.00  0.00    -0.195 NA
BRANCH  21  22
ATOM     22  C   UNL     1      -0.380   2.156   0.000  0.00  0.00    +0.179 C 
BRANCH  22  29
ATOM     29  C   UNL     1       0.334   1.744   0.000  0.00  0.00    +0.281 C 
ATOM     30  N   UNL     1       1.049   2.156   0.000  0.00  0.00    -0.086 NA
ATOM     31  O   UNL     1       0.334   0.918   0.000  0.00  0.00    -0.270 OA
ENDBRANCH  22  29
BRANCH  22  23
ATOM     23  C   UNL     1      -0.380   2.981   0.000  0.00  0.00    +0.064 C 
BRANCH  23  24
ATOM     24  C   UNL     1       0.334   3.393   0.000  0.00  0.00    +0.010 A 
ATOM     25  C   UNL     1       0.420   4.214   0.000  0.00  0.00    +0.003 A 
ATOM     26  C   UNL     1       1.228   4.386   0.000  0.00  0.00    +0.007 A 
ATOM     27  C   UNL     1       1.640   3.671   0.000  0.00  0.00    +0.035 A 
ATOM     28  S   UNL     1       1.088   3.058   0.000  0.00  0.00    -0.091 S 
ENDBRANCH  23  24
ENDBRANCH  22  23
ENDBRANCH  21  22
ENDBRANCH  12  19
TORSDOF 7
