REMARK  Name = 
REMARK  5 active torsions:
REMARK  status: ('A' for Active; 'I' for Inactive)
REMARK    1  A    between atoms: C_2  and  O_5
REMARK    2  A    between atoms: O_5  and  C_6
REMARK    3  A    between atoms: C_9  and  C_12
REMARK    4  A    between atoms: N_20  and  S_22
REMARK    5  A    between atoms: S_22  and  C_25
REMARK                            x       y       z     vdW  Elec       q    Type
REMARK                         _______ _______ _______ _____ _____    ______ ____
ROOT
ATOM     12  C   UNL     1      -1.296  -1.150   0.000  0.00  0.00    +0.056 A 
ATOM     13  C   UNL     1      -1.167  -0.335   0.000  0.00  0.00    +0.006 A 
ATOM     14  C   UNL     1      -0.397  -0.039   0.000  0.00  0.00    +0.013 A 
ATOM     15  C   UNL     1       0.244  -0.558   0.000  0.00  0.00    +0.041 A 
ATOM     16  C   UNL     1       1.163  -0.557   0.000  0.00  0.00    +0.056 C 
ATOM     17  C   UNL     1       1.713  -0.121   0.000  0.00  0.00    +0.011 C 
ATOM     18  C   UNL     1       1.582  -0.925   0.000  0.00  0.00    +0.041 C 
ATOM     19  C   UNL     1       1.629  -1.912   0.000  0.00  0.00    +0.098 C 
ATOM     20  N   UNL     1       0.813  -2.091   0.000  0.00  0.00    -0.155 NA
ATOM     21  C   UNL     1       1.225  -1.510   0.000  0.00  0.00    +0.102 C 
ATOM     30  C   UNL     1       0.622  -0.936   0.000  0.00  0.00    +0.110 C 
ATOM     31  N   UNL     1       0.115  -1.373   0.000  0.00  0.00    -0.299 N 
ATOM     32  C   UNL     1      -0.655  -1.669   0.000  0.00  0.00    +0.261 A 
ATOM     33  O   UNL     1      -0.784  -2.484   0.000  0.00  0.00    -0.267 OA
ENDROOT
BRANCH  12   9
ATOM      6  C   UNL     1      -3.606  -2.037   0.000  0.00  0.00    +0.147 A 
ATOM      7  C   UNL     1      -3.478  -1.222   0.000  0.00  0.00    +0.037 A 
ATOM      8  C   UNL     1      -2.707  -0.926   0.000  0.00  0.00    +0.003 A 
ATOM      9  C   UNL     1      -2.066  -1.445   0.000  0.00  0.00    +0.005 A 
ATOM     10  C   UNL     1      -2.195  -2.260   0.000  0.00  0.00    +0.003 A 
ATOM     11  C   UNL     1      -2.965  -2.556   0.000  0.00  0.00    +0.037 A 
BRANCH   6   5
ATOM      5  O   UNL     1      -4.377  -2.333   0.000  0.00  0.00    -0.404 OA
BRANCH   5   2
ATOM      1  F   UNL     1      -4.635  -3.962   0.000  0.00  0.00    -0.133 F 
ATOM      2  C   UNL     1      -4.505  -3.147   0.000  0.00  0.00    +0.575 C 
ATOM      3  F   UNL     1      -3.691  -3.276   0.000  0.00  0.00    -0.133 F 
ATOM      4  F   UNL     1      -5.320  -3.018   0.000  0.00  0.00    -0.133 F 
ENDBRANCH   5   2
ENDBRANCH   6   5
ENDBRANCH  12   9
BRANCH  20  22
ATOM     22  S   UNL     1       0.125  -2.547   0.000  0.00  0.00    +0.069 S 
ATOM     23  O   UNL     1      -0.331  -1.859   0.000  0.00  0.00    -0.152 OA
ATOM     24  O   UNL     1       0.581  -3.235   0.000  0.00  0.00    -0.152 OA
BRANCH  22  25
ATOM     25  C   UNL     1      -0.563  -3.003   0.000  0.00  0.00    +0.152 A 
ATOM     26  C   UNL     1      -0.599  -3.827   0.000  0.00  0.00    +0.027 A 
ATOM     27  C   UNL     1      -1.393  -4.048   0.000  0.00  0.00    +0.009 A 
ATOM     28  C   UNL     1      -1.849  -3.360   0.000  0.00  0.00    +0.037 A 
ATOM     29  S   UNL     1      -1.336  -2.714   0.000  0.00  0.00    -0.067 S 
ENDBRANCH  22  25
ENDBRANCH  20  22
TORSDOF 5
