MODEL 1
REMARK VINA RESULT:     -11.1      0.000      0.000
REMARK  Name = 
REMARK  8 active torsions:
REMARK  status: ('A' for Active; 'I' for Inactive)
REMARK    1  A    between atoms: O_2  and  C_3
REMARK    2  A    between atoms: C_3  and  C_4
REMARK    3  A    between atoms: C_4  and  N_5
REMARK    4  A    between atoms: N_5  and  C_6
REMARK    5  A    between atoms: C_7  and  C_12
REMARK    6  A    between atoms: C_15  and  C_17
REMARK    7  A    between atoms: N_21  and  C_22
REMARK    8  A    between atoms: C_22  and  C_23
REMARK                            x       y       z     vdW  Elec       q    Type
REMARK                         _______ _______ _______ _____ _____    ______ ____
ROOT
ATOM     12  C   UNL     1      -2.790   3.054  24.502  0.00  0.00    +0.206 A 
ATOM     13  N   UNL     1      -3.091   2.978  23.737  0.00  0.00    -0.056 NA
ATOM     14  O   UNL     1      -3.739   2.468  23.768  0.00  0.00    -0.336 OA
ATOM     15  C   UNL     1      -3.838   2.228  24.551  0.00  0.00    +0.251 A 
ATOM     16  N   UNL     1      -3.251   2.590  25.005  0.00  0.00    -0.190 NA
ENDROOT
BRANCH  12   7
ATOM      6  C   UNL     1      -1.377   3.209  24.650  0.00  0.00    +0.151 A 
ATOM      7  C   UNL     1      -2.141   3.512  24.725  0.00  0.00    +0.072 A 
ATOM      8  C   UNL     1      -2.256   4.273  25.021  0.00  0.00    +0.008 A 
ATOM      9  C   UNL     1      -1.608   4.731  25.243  0.00  0.00    +0.021 A 
ATOM     10  C   UNL     1      -0.844   4.429  25.169  0.00  0.00    +0.100 A 
ATOM     11  N   UNL     1      -0.728   3.668  24.872  0.00  0.00    -0.228 NA
BRANCH   6   5
ATOM      5  N   UNL     1      -1.262   2.449  24.353  0.00  0.00    -0.218 NA
BRANCH   5   4
ATOM      4  C   UNL     1      -0.526   2.083  24.428  0.00  0.00    +0.146 C 
BRANCH   4   3
ATOM      3  C   UNL     1      -0.355   1.406  23.990  0.00  0.00    +0.166 C 
BRANCH   3   2
ATOM      1  C   UNL     1      -0.026   0.016  23.936  0.00  0.00    +0.174 C 
ATOM      2  O   UNL     1      -0.204   0.692  24.374  0.00  0.00    -0.349 OA
ENDBRANCH   3   2
ENDBRANCH   4   3
ENDBRANCH   5   4
ENDBRANCH   6   5
ENDBRANCH  12   7
BRANCH  15  17
ATOM     17  C   UNL     1      -4.421   1.716  24.832  0.00  0.00    +0.138 C 
ATOM     18  C   UNL     1      -5.118   1.938  25.215  0.00  0.00    +0.027 C 
ATOM     19  C   UNL     1      -5.537   1.252  25.399  0.00  0.00    +0.019 C 
ATOM     20  C   UNL     1      -5.100   0.606  25.130  0.00  0.00    +0.073 C 
ATOM     21  N   UNL     1      -4.410   0.893  24.780  0.00  0.00    -0.263 NA
BRANCH  21  22
ATOM     22  C   UNL     1      -3.814   0.437  24.438  0.00  0.00    +0.099 C 
BRANCH  22  23
ATOM     23  C   UNL     1      -3.796  -0.378  24.561  0.00  0.00    -0.006 A 
ATOM     24  C   UNL     1      -3.454  -0.685  25.247  0.00  0.00    -0.003 A 
ATOM     25  C   UNL     1      -3.436  -1.500  25.370  0.00  0.00    -0.000 A 
ATOM     26  C   UNL     1      -3.760  -2.009  24.808  0.00  0.00    -0.000 A 
ATOM     27  C   UNL     1      -4.103  -1.704  24.123  0.00  0.00    -0.000 A 
ATOM     28  C   UNL     1      -4.120  -0.888  23.999  0.00  0.00    -0.003 A 
ENDBRANCH  22  23
ENDBRANCH  21  22
ENDBRANCH  15  17
TORSDOF 8
ENDMDL
MODEL 2
REMARK VINA RESULT:     -10.7      1.322      2.925
REMARK  Name = 
REMARK  8 active torsions:
REMARK  status: ('A' for Active; 'I' for Inactive)
REMARK    1  A    between atoms: O_2  and  C_3
REMARK    2  A    between atoms: C_3  and  C_4
REMARK    3  A    between atoms: C_4  and  N_5
REMARK    4  A    between atoms: N_5  and  C_6
REMARK    5  A    between atoms: C_7  and  C_12
REMARK    6  A    between atoms: C_15  and  C_17
REMARK    7  A    between atoms: N_21  and  C_22
REMARK    8  A    between atoms: C_22  and  C_23
REMARK                            x       y       z     vdW  Elec       q    Type
REMARK                         _______ _______ _______ _____ _____    ______ ____
ROOT
ATOM     12  C   UNL     1      -3.722   2.052  24.534  0.00  0.00    +0.206 A 
ATOM     13  N   UNL     1      -3.594   2.003  23.719  0.00  0.00    -0.056 NA
ATOM     14  O   UNL     1      -3.067   1.383  23.581  0.00  0.00    -0.336 OA
ATOM     15  C   UNL     1      -2.869   1.050  24.309  0.00  0.00    +0.251 A 
ATOM     16  N   UNL     1      -3.273   1.464  24.898  0.00  0.00    -0.190 NA
ENDROOT
BRANCH  12   7
ATOM      6  C   UNL     1      -3.899   3.306  25.195  0.00  0.00    +0.151 A 
ATOM      7  C   UNL     1      -4.211   2.596  24.915  0.00  0.00    +0.072 A 
ATOM      8  C   UNL     1      -5.012   2.428  25.017  0.00  0.00    +0.008 A 
ATOM      9  C   UNL     1      -5.502   2.971  25.399  0.00  0.00    +0.021 A 
ATOM     10  C   UNL     1      -5.191   3.682  25.679  0.00  0.00    +0.100 A 
ATOM     11  N   UNL     1      -4.389   3.849  25.577  0.00  0.00    -0.228 NA
BRANCH   6   5
ATOM      5  N   UNL     1      -3.098   3.474  25.093  0.00  0.00    -0.218 NA
BRANCH   5   4
ATOM      4  C   UNL     1      -2.789   4.191  25.360  0.00  0.00    +0.146 C 
BRANCH   4   3
ATOM      3  C   UNL     1      -1.974   4.317  25.354  0.00  0.00    +0.166 C 
BRANCH   3   2
ATOM      1  C   UNL     1      -0.907   5.180  24.959  0.00  0.00    +0.174 C 
ATOM      2  O   UNL     1      -1.674   5.077  25.241  0.00  0.00    -0.349 OA
ENDBRANCH   3   2
ENDBRANCH   4   3
ENDBRANCH   5   4
ENDBRANCH   6   5
ENDBRANCH  12   7
BRANCH  15  17
ATOM     17  C   UNL     1      -2.356   0.415  24.429  0.00  0.00    +0.138 C 
ATOM     18  C   UNL     1      -1.532   0.443  24.389  0.00  0.00    +0.027 C 
ATOM     19  C   UNL     1      -1.244  -0.315  24.545  0.00  0.00    +0.019 C 
ATOM     20  C   UNL     1      -1.889  -0.810  24.680  0.00  0.00    +0.073 C 
ATOM     21  N   UNL     1      -2.577  -0.359  24.609  0.00  0.00    -0.263 NA
BRANCH  21  22
ATOM     22  C   UNL     1      -3.349  -0.635  24.701  0.00  0.00    +0.099 C 
BRANCH  22  23
ATOM     23  C   UNL     1      -3.518  -1.434  24.589  0.00  0.00    -0.006 A 
ATOM     24  C   UNL     1      -3.892  -1.683  23.896  0.00  0.00    -0.003 A 
ATOM     25  C   UNL     1      -4.061  -2.482  23.783  0.00  0.00    -0.000 A 
ATOM     26  C   UNL     1      -3.857  -3.033  24.362  0.00  0.00    -0.000 A 
ATOM     27  C   UNL     1      -3.484  -2.785  25.055  0.00  0.00    -0.000 A 
ATOM     28  C   UNL     1      -3.314  -1.985  25.168  0.00  0.00    -0.003 A 
ENDBRANCH  22  23
ENDBRANCH  21  22
ENDBRANCH  15  17
TORSDOF 8
ENDMDL
MODEL 3
REMARK VINA RESULT:     -10.5      1.132      2.945
REMARK  Name = 
REMARK  8 active torsions:
REMARK  status: ('A' for Active; 'I' for Inactive)
REMARK    1  A    between atoms: O_2  and  C_3
REMARK    2  A    between atoms: C_3  and  C_4
REMARK    3  A    between atoms: C_4  and  N_5
REMARK    4  A    between atoms: N_5  and  C_6
REMARK    5  A    between atoms: C_7  and  C_12
REMARK    6  A    between atoms: C_15  and  C_17
REMARK    7  A    between atoms: N_21  and  C_22
REMARK    8  A    between atoms: C_22  and  C_23
REMARK                            x       y       z     vdW  Elec       q    Type
REMARK                         _______ _______ _______ _____ _____    ______ ____
ROOT
ATOM     12  C   UNL     1      -1.653   2.452  24.361  0.00  0.00    +0.206 A 
ATOM     13  N   UNL     1      -1.836   2.262  23.579  0.00  0.00    -0.056 NA
ATOM     14  O   UNL     1      -1.686   1.458  23.470  0.00  0.00    -0.336 OA
ATOM     15  C   UNL     1      -1.410   1.152  24.184  0.00  0.00    +0.251 A 
ATOM     16  N   UNL     1      -1.390   1.766  24.735  0.00  0.00    -0.190 NA
ENDROOT
BRANCH  12   7
ATOM      6  C   UNL     1      -2.461   3.473  24.950  0.00  0.00    +0.151 A 
ATOM      7  C   UNL     1      -1.722   3.198  24.708  0.00  0.00    +0.072 A 
ATOM      8  C   UNL     1      -1.052   3.667  24.811  0.00  0.00    +0.008 A 
ATOM      9  C   UNL     1      -1.121   4.413  25.158  0.00  0.00    +0.021 A 
ATOM     10  C   UNL     1      -1.859   4.689  25.401  0.00  0.00    +0.100 A 
ATOM     11  N   UNL     1      -2.530   4.219  25.297  0.00  0.00    -0.228 NA
BRANCH   6   5
ATOM      5  N   UNL     1      -3.131   3.004  24.846  0.00  0.00    -0.218 NA
BRANCH   5   4
ATOM      4  C   UNL     1      -3.853   3.236  25.171  0.00  0.00    +0.146 C 
BRANCH   4   3
ATOM      3  C   UNL     1      -4.550   2.866  24.935  0.00  0.00    +0.166 C 
BRANCH   3   2
ATOM      1  C   UNL     1      -5.757   2.177  25.269  0.00  0.00    +0.174 C 
ATOM      2  O   UNL     1      -5.095   2.612  25.500  0.00  0.00    -0.349 OA
ENDBRANCH   3   2
ENDBRANCH   4   3
ENDBRANCH   5   4
ENDBRANCH   6   5
ENDBRANCH  12   7
BRANCH  15  17
ATOM     17  C   UNL     1      -1.192   0.369  24.324  0.00  0.00    +0.138 C 
ATOM     18  C   UNL     1      -0.428   0.060  24.270  0.00  0.00    +0.027 C 
ATOM     19  C   UNL     1      -0.464  -0.743  24.455  0.00  0.00    +0.019 C 
ATOM     20  C   UNL     1      -1.249  -0.931  24.624  0.00  0.00    +0.073 C 
ATOM     21  N   UNL     1      -1.699  -0.244  24.543  0.00  0.00    -0.263 NA
BRANCH  21  22
ATOM     22  C   UNL     1      -2.513  -0.182  24.660  0.00  0.00    +0.099 C 
BRANCH  22  23
ATOM     23  C   UNL     1      -2.980  -0.861  24.685  0.00  0.00    -0.006 A 
ATOM     24  C   UNL     1      -3.412  -1.089  24.019  0.00  0.00    -0.003 A 
ATOM     25  C   UNL     1      -3.878  -1.769  24.044  0.00  0.00    -0.000 A 
ATOM     26  C   UNL     1      -3.914  -2.221  24.733  0.00  0.00    -0.000 A 
ATOM     27  C   UNL     1      -3.482  -1.993  25.398  0.00  0.00    -0.000 A 
ATOM     28  C   UNL     1      -3.015  -1.313  25.374  0.00  0.00    -0.003 A 
ENDBRANCH  22  23
ENDBRANCH  21  22
ENDBRANCH  15  17
TORSDOF 8
ENDMDL
MODEL 4
REMARK VINA RESULT:     -10.3      1.213      4.074
REMARK  Name = 
REMARK  8 active torsions:
REMARK  status: ('A' for Active; 'I' for Inactive)
REMARK    1  A    between atoms: O_2  and  C_3
REMARK    2  A    between atoms: C_3  and  C_4
REMARK    3  A    between atoms: C_4  and  N_5
REMARK    4  A    between atoms: N_5  and  C_6
REMARK    5  A    between atoms: C_7  and  C_12
REMARK    6  A    between atoms: C_15  and  C_17
REMARK    7  A    between atoms: N_21  and  C_22
REMARK    8  A    between atoms: C_22  and  C_23
REMARK                            x       y       z     vdW  Elec       q    Type
REMARK                         _______ _______ _______ _____ _____    ______ ____
ROOT
ATOM     12  C   UNL     1      -3.661  -0.253  24.353  0.00  0.00    +0.206 A 
ATOM     13  N   UNL     1      -3.715   0.120  23.619  0.00  0.00    -0.056 NA
ATOM     14  O   UNL     1      -3.999   0.885  23.742  0.00  0.00    -0.336 OA
ATOM     15  C   UNL     1      -4.121   0.984  24.552  0.00  0.00    +0.251 A 
ATOM     16  N   UNL     1      -3.912   0.281  24.929  0.00  0.00    -0.190 NA
ENDROOT
BRANCH  12   7
ATOM      6  C   UNL     1      -2.597  -1.177  24.588  0.00  0.00    +0.151 A 
ATOM      7  C   UNL     1      -3.401  -1.025  24.487  0.00  0.00    +0.072 A 
ATOM      8  C   UNL     1      -3.946  -1.643  24.520  0.00  0.00    +0.008 A 
ATOM      9  C   UNL     1      -3.686  -2.415  24.653  0.00  0.00    +0.021 A 
ATOM     10  C   UNL     1      -2.882  -2.568  24.754  0.00  0.00    +0.100 A 
ATOM     11  N   UNL     1      -2.337  -1.949  24.722  0.00  0.00    -0.228 NA
BRANCH   6   5
ATOM      5  N   UNL     1      -2.052  -0.559  24.555  0.00  0.00    -0.218 NA
BRANCH   5   4
ATOM      4  C   UNL     1      -1.243  -0.721  24.554  0.00  0.00    +0.146 C 
BRANCH   4   3
ATOM      3  C   UNL     1      -0.699  -0.109  24.647  0.00  0.00    +0.166 C 
BRANCH   3   2
ATOM      1  C   UNL     1       0.186   0.830  24.032  0.00  0.00    +0.174 C 
ATOM      2  O   UNL     1      -0.206   0.105  24.021  0.00  0.00    -0.349 OA
ENDBRANCH   3   2
ENDBRANCH   4   3
ENDBRANCH   5   4
ENDBRANCH   6   5
ENDBRANCH  12   7
BRANCH  15  17
ATOM     17  C   UNL     1      -4.402   1.666  24.920  0.00  0.00    +0.138 C 
ATOM     18  C   UNL     1      -5.142   1.756  25.274  0.00  0.00    +0.027 C 
ATOM     19  C   UNL     1      -5.191   2.525  25.572  0.00  0.00    +0.019 C 
ATOM     20  C   UNL     1      -4.482   2.909  25.401  0.00  0.00    +0.073 C 
ATOM     21  N   UNL     1      -3.994   2.379  24.998  0.00  0.00    -0.263 NA
BRANCH  21  22
ATOM     22  C   UNL     1      -3.233   2.534  24.722  0.00  0.00    +0.099 C 
BRANCH  22  23
ATOM     23  C   UNL     1      -2.811   3.179  25.016  0.00  0.00    -0.006 A 
ATOM     24  C   UNL     1      -2.297   3.080  25.655  0.00  0.00    -0.003 A 
ATOM     25  C   UNL     1      -1.876   3.725  25.948  0.00  0.00    -0.000 A 
ATOM     26  C   UNL     1      -1.967   4.469  25.604  0.00  0.00    -0.000 A 
ATOM     27  C   UNL     1      -2.480   4.569  24.966  0.00  0.00    -0.000 A 
ATOM     28  C   UNL     1      -2.902   3.923  24.672  0.00  0.00    -0.003 A 
ENDBRANCH  22  23
ENDBRANCH  21  22
ENDBRANCH  15  17
TORSDOF 8
ENDMDL
MODEL 5
REMARK VINA RESULT:     -10.0      1.268      5.036
REMARK  Name = 
REMARK  8 active torsions:
REMARK  status: ('A' for Active; 'I' for Inactive)
REMARK    1  A    between atoms: O_2  and  C_3
REMARK    2  A    between atoms: C_3  and  C_4
REMARK    3  A    between atoms: C_4  and  N_5
REMARK    4  A    between atoms: N_5  and  C_6
REMARK    5  A    between atoms: C_7  and  C_12
REMARK    6  A    between atoms: C_15  and  C_17
REMARK    7  A    between atoms: N_21  and  C_22
REMARK    8  A    between atoms: C_22  and  C_23
REMARK                            x       y       z     vdW  Elec       q    Type
REMARK                         _______ _______ _______ _____ _____    ______ ____
ROOT
ATOM     12  C   UNL     1      -2.068   0.121  24.779  0.00  0.00    +0.206 A 
ATOM     13  N   UNL     1      -1.757   0.413  24.072  0.00  0.00    -0.056 NA
ATOM     14  O   UNL     1      -1.241   1.031  24.258  0.00  0.00    -0.336 OA
ATOM     15  C   UNL     1      -1.234   1.120  25.078  0.00  0.00    +0.251 A 
ATOM     16  N   UNL     1      -1.745   0.557  25.400  0.00  0.00    -0.190 NA
ENDROOT
BRANCH  12   7
ATOM      6  C   UNL     1      -3.416  -0.341  24.882  0.00  0.00    +0.151 A 
ATOM      7  C   UNL     1      -2.607  -0.500  24.851  0.00  0.00    +0.072 A 
ATOM      8  C   UNL     1      -2.337  -1.277  24.891  0.00  0.00    +0.008 A 
ATOM      9  C   UNL     1      -2.876  -1.898  24.963  0.00  0.00    +0.021 A 
ATOM     10  C   UNL     1      -3.685  -1.740  24.995  0.00  0.00    +0.100 A 
ATOM     11  N   UNL     1      -3.955  -0.961  24.954  0.00  0.00    -0.228 NA
BRANCH   6   5
ATOM      5  N   UNL     1      -3.686   0.437  24.842  0.00  0.00    -0.218 NA
BRANCH   5   4
ATOM      4  C   UNL     1      -4.478   0.609  24.998  0.00  0.00    +0.146 C 
BRANCH   4   3
ATOM      3  C   UNL     1      -4.777   1.361  24.840  0.00  0.00    +0.166 C 
BRANCH   3   2
ATOM      1  C   UNL     1      -5.641   2.439  25.204  0.00  0.00    +0.174 C 
ATOM      2  O   UNL     1      -5.233   1.752  25.405  0.00  0.00    -0.349 OA
ENDBRANCH   3   2
ENDBRANCH   4   3
ENDBRANCH   5   4
ENDBRANCH   6   5
ENDBRANCH  12   7
BRANCH  15  17
ATOM     17  C   UNL     1      -0.794   1.674  25.502  0.00  0.00    +0.138 C 
ATOM     18  C   UNL     1      -0.214   1.505  26.064  0.00  0.00    +0.027 C 
ATOM     19  C   UNL     1       0.082   2.221  26.348  0.00  0.00    +0.019 C 
ATOM     20  C   UNL     1      -0.315   2.832  25.962  0.00  0.00    +0.073 C 
ATOM     21  N   UNL     1      -0.856   2.494  25.438  0.00  0.00    -0.263 NA
BRANCH  21  22
ATOM     22  C   UNL     1      -1.369   2.905  24.940  0.00  0.00    +0.099 C 
BRANCH  22  23
ATOM     23  C   UNL     1      -1.484   3.715  25.043  0.00  0.00    -0.006 A 
ATOM     24  C   UNL     1      -2.149   3.989  25.448  0.00  0.00    -0.003 A 
ATOM     25  C   UNL     1      -2.264   4.799  25.551  0.00  0.00    -0.000 A 
ATOM     26  C   UNL     1      -1.715   5.336  25.249  0.00  0.00    -0.000 A 
ATOM     27  C   UNL     1      -1.050   5.062  24.844  0.00  0.00    -0.000 A 
ATOM     28  C   UNL     1      -0.935   4.251  24.741  0.00  0.00    -0.003 A 
ENDBRANCH  22  23
ENDBRANCH  21  22
ENDBRANCH  15  17
TORSDOF 8
ENDMDL
MODEL 6
REMARK VINA RESULT:      -9.6      1.991      3.630
REMARK  Name = 
REMARK  8 active torsions:
REMARK  status: ('A' for Active; 'I' for Inactive)
REMARK    1  A    between atoms: O_2  and  C_3
REMARK    2  A    between atoms: C_3  and  C_4
REMARK    3  A    between atoms: C_4  and  N_5
REMARK    4  A    between atoms: N_5  and  C_6
REMARK    5  A    between atoms: C_7  and  C_12
REMARK    6  A    between atoms: C_15  and  C_17
REMARK    7  A    between atoms: N_21  and  C_22
REMARK    8  A    between atoms: C_22  and  C_23
REMARK                            x       y       z     vdW  Elec       q    Type
REMARK                         _______ _______ _______ _____ _____    ______ ____
ROOT
ATOM     12  C   UNL     1      -1.412   0.587  24.828  0.00  0.00    +0.206 A 
ATOM     13  N   UNL     1      -1.093   1.292  25.118  0.00  0.00    -0.056 NA
ATOM     14  O   UNL     1      -1.535   1.917  24.809  0.00  0.00    -0.336 OA
ATOM     15  C   UNL     1      -2.126   1.599  24.329  0.00  0.00    +0.251 A 
ATOM     16  N   UNL     1      -2.049   0.778  24.340  0.00  0.00    -0.190 NA
ENDROOT
BRANCH  12   7
ATOM      6  C   UNL     1      -0.502  -0.485  24.574  0.00  0.00    +0.151 A 
ATOM      7  C   UNL     1      -1.139  -0.173  24.996  0.00  0.00    +0.072 A 
ATOM      8  C   UNL     1      -1.504  -0.620  25.584  0.00  0.00    +0.008 A 
ATOM      9  C   UNL     1      -1.232  -1.381  25.752  0.00  0.00    +0.021 A 
ATOM     10  C   UNL     1      -0.595  -1.694  25.332  0.00  0.00    +0.100 A 
ATOM     11  N   UNL     1      -0.230  -1.245  24.742  0.00  0.00    -0.228 NA
BRANCH   6   5
ATOM      5  N   UNL     1      -0.138  -0.038  23.985  0.00  0.00    -0.218 NA
BRANCH   5   4
ATOM      4  C   UNL     1       0.476  -0.363  23.540  0.00  0.00    +0.146 C 
BRANCH   4   3
ATOM      3  C   UNL     1       0.946   0.123  23.068  0.00  0.00    +0.166 C 
BRANCH   3   2
ATOM      1  C   UNL     1       2.235   0.139  22.452  0.00  0.00    +0.174 C 
ATOM      2  O   UNL     1       1.495  -0.209  22.549  0.00  0.00    -0.349 OA
ENDBRANCH   3   2
ENDBRANCH   4   3
ENDBRANCH   5   4
ENDBRANCH   6   5
ENDBRANCH  12   7
BRANCH  15  17
ATOM     17  C   UNL     1      -2.693   2.028  23.910  0.00  0.00    +0.138 C 
ATOM     18  C   UNL     1      -2.644   2.251  23.117  0.00  0.00    +0.027 C 
ATOM     19  C   UNL     1      -3.330   2.669  22.928  0.00  0.00    +0.019 C 
ATOM     20  C   UNL     1      -3.802   2.705  23.603  0.00  0.00    +0.073 C 
ATOM     21  N   UNL     1      -3.408   2.308  24.211  0.00  0.00    -0.263 NA
BRANCH  21  22
ATOM     22  C   UNL     1      -3.682   2.210  24.982  0.00  0.00    +0.099 C 
BRANCH  22  23
ATOM     23  C   UNL     1      -4.467   2.383  25.167  0.00  0.00    -0.006 A 
ATOM     24  C   UNL     1      -4.671   3.134  25.441  0.00  0.00    -0.003 A 
ATOM     25  C   UNL     1      -5.455   3.307  25.625  0.00  0.00    -0.000 A 
ATOM     26  C   UNL     1      -6.037   2.729  25.537  0.00  0.00    -0.000 A 
ATOM     27  C   UNL     1      -5.834   1.977  25.263  0.00  0.00    -0.000 A 
ATOM     28  C   UNL     1      -5.048   1.805  25.078  0.00  0.00    -0.003 A 
ENDBRANCH  22  23
ENDBRANCH  21  22
ENDBRANCH  15  17
TORSDOF 8
ENDMDL
