MODEL 1
REMARK VINA RESULT:     -12.4      0.000      0.000
REMARK  Name = 
REMARK  4 active torsions:
REMARK  status: ('A' for Active; 'I' for Inactive)
REMARK    1  A    between atoms: N_2  and  C_4
REMARK    2  A    between atoms: C_7  and  C_8
REMARK    3  A    between atoms: C_8  and  N_9
REMARK    4  A    between atoms: C_12  and  C_14
REMARK                            x       y       z     vdW  Elec       q    Type
REMARK                         _______ _______ _______ _____ _____    ______ ____
ROOT
ATOM      9  N   UNL     1      -4.665   2.277  24.853  0.00  0.00    -0.268 NA
ATOM     10  C   UNL     1      -5.270   2.035  25.359  0.00  0.00    +0.073 C 
ATOM     11  C   UNL     1      -5.244   1.211  25.412  0.00  0.00    +0.028 C 
ATOM     12  C   UNL     1      -4.624   0.945  24.937  0.00  0.00    +0.094 C 
ATOM     13  C   UNL     1      -4.266   1.603  24.592  0.00  0.00    +0.082 C 
ENDROOT
BRANCH  12  14
ATOM     14  C   UNL     1      -4.401   0.158  24.828  0.00  0.00    +0.207 A 
ATOM     15  N   UNL     1      -3.971  -0.303  25.360  0.00  0.00    -0.212 NA
ATOM     16  C   UNL     1      -3.873  -1.051  25.028  0.00  0.00    +0.119 A 
ATOM     17  C   UNL     1      -4.242  -1.053  24.290  0.00  0.00    +0.164 A 
ATOM     18  O   UNL     1      -4.568  -0.306  24.166  0.00  0.00    -0.438 OA
ATOM     19  C   UNL     1      -4.233  -1.736  23.826  0.00  0.00    +0.040 A 
ATOM     20  C   UNL     1      -3.856  -2.416  24.100  0.00  0.00    +0.015 A 
ATOM     21  C   UNL     1      -3.487  -2.414  24.838  0.00  0.00    +0.059 A 
ATOM     22 CL   UNL     1      -3.109  -3.094  25.112  0.00  0.00    -0.082 Cl
ATOM     23  C   UNL     1      -3.495  -1.732  25.302  0.00  0.00    +0.034 A 
ENDBRANCH  12  14
BRANCH   9   8
ATOM      8  C   UNL     1      -4.490   3.055  24.644  0.00  0.00    +0.099 C 
BRANCH   8   7
ATOM      4  C   UNL     1      -2.237   3.979  25.087  0.00  0.00    +0.048 A 
ATOM      5  C   UNL     1      -2.409   3.648  24.352  0.00  0.00    +0.014 A 
ATOM      6  C   UNL     1      -3.160   3.339  24.204  0.00  0.00    -0.002 A 
ATOM      7  C   UNL     1      -3.739   3.363  24.792  0.00  0.00    -0.006 A 
ATOM     24  C   UNL     1      -3.567   3.694  25.528  0.00  0.00    -0.002 A 
ATOM     25  C   UNL     1      -2.815   4.003  25.675  0.00  0.00    +0.014 A 
BRANCH   4   2
ATOM      1  C   UNL     1      -0.869   3.784  25.454  0.00  0.00    +0.112 C 
ATOM      2  N   UNL     1      -1.486   4.287  25.235  0.00  0.00    -0.304 N 
ATOM      3  C   UNL     1      -1.351   5.097  25.164  0.00  0.00    +0.112 C 
ENDBRANCH   4   2
ENDBRANCH   8   7
ENDBRANCH   9   8
TORSDOF 4
ENDMDL
MODEL 2
REMARK VINA RESULT:     -12.1      2.155      5.256
REMARK  Name = 
REMARK  4 active torsions:
REMARK  status: ('A' for Active; 'I' for Inactive)
REMARK    1  A    between atoms: N_2  and  C_4
REMARK    2  A    between atoms: C_7  and  C_8
REMARK    3  A    between atoms: C_8  and  N_9
REMARK    4  A    between atoms: C_12  and  C_14
REMARK                            x       y       z     vdW  Elec       q    Type
REMARK                         _______ _______ _______ _____ _____    ______ ____
ROOT
ATOM      9  N   UNL     1      -4.338   1.057  24.967  0.00  0.00    -0.268 NA
ATOM     10  C   UNL     1      -4.697   1.500  24.371  0.00  0.00    +0.073 C 
ATOM     11  C   UNL     1      -4.243   2.178  24.249  0.00  0.00    +0.028 C 
ATOM     12  C   UNL     1      -3.603   2.154  24.770  0.00  0.00    +0.094 C 
ATOM     13  C   UNL     1      -3.662   1.461  25.214  0.00  0.00    +0.082 C 
ENDROOT
BRANCH  12  14
ATOM     14  C   UNL     1      -3.009   2.723  24.836  0.00  0.00    +0.207 A 
ATOM     15  N   UNL     1      -3.122   3.538  24.884  0.00  0.00    -0.212 NA
ATOM     16  C   UNL     1      -2.381   3.895  24.942  0.00  0.00    +0.119 A 
ATOM     17  C   UNL     1      -1.810   3.300  24.930  0.00  0.00    +0.164 A 
ATOM     18  O   UNL     1      -2.198   2.576  24.864  0.00  0.00    -0.438 OA
ATOM     19  C   UNL     1      -1.010   3.496  24.981  0.00  0.00    +0.040 A 
ATOM     20  C   UNL     1      -0.781   4.286  25.044  0.00  0.00    +0.015 A 
ATOM     21  C   UNL     1      -1.353   4.881  25.056  0.00  0.00    +0.059 A 
ATOM     22 CL   UNL     1      -1.125   5.671  25.118  0.00  0.00    -0.082 Cl
ATOM     23  C   UNL     1      -2.153   4.686  25.005  0.00  0.00    +0.034 A 
ENDBRANCH  12  14
BRANCH   9   8
ATOM      8  C   UNL     1      -4.607   0.336  25.265  0.00  0.00    +0.099 C 
BRANCH   8   7
ATOM      4  C   UNL     1      -3.423  -1.760  24.693  0.00  0.00    +0.048 A 
ATOM      5  C   UNL     1      -3.943  -1.420  24.151  0.00  0.00    +0.014 A 
ATOM      6  C   UNL     1      -4.339  -0.721  24.342  0.00  0.00    -0.002 A 
ATOM      7  C   UNL     1      -4.212  -0.362  25.074  0.00  0.00    -0.006 A 
ATOM     24  C   UNL     1      -3.691  -0.702  25.616  0.00  0.00    -0.002 A 
ATOM     25  C   UNL     1      -3.296  -1.402  25.425  0.00  0.00    +0.014 A 
BRANCH   4   2
ATOM      1  C   UNL     1      -3.457  -3.145  24.342  0.00  0.00    +0.112 C 
ATOM      2  N   UNL     1      -3.028  -2.459  24.502  0.00  0.00    -0.304 N 
ATOM      3  C   UNL     1      -2.204  -2.472  24.470  0.00  0.00    +0.112 C 
ENDBRANCH   4   2
ENDBRANCH   8   7
ENDBRANCH   9   8
TORSDOF 4
ENDMDL
MODEL 3
REMARK VINA RESULT:     -11.4      2.735      5.843
REMARK  Name = 
REMARK  4 active torsions:
REMARK  status: ('A' for Active; 'I' for Inactive)
REMARK    1  A    between atoms: N_2  and  C_4
REMARK    2  A    between atoms: C_7  and  C_8
REMARK    3  A    between atoms: C_8  and  N_9
REMARK    4  A    between atoms: C_12  and  C_14
REMARK                            x       y       z     vdW  Elec       q    Type
REMARK                         _______ _______ _______ _____ _____    ______ ____
ROOT
ATOM      9  N   UNL     1      -1.083   0.062  25.389  0.00  0.00    -0.268 NA
ATOM     10  C   UNL     1      -0.522   0.190  24.798  0.00  0.00    +0.073 C 
ATOM     11  C   UNL     1      -0.495   1.000  24.643  0.00  0.00    +0.028 C 
ATOM     12  C   UNL     1      -1.039   1.373  25.139  0.00  0.00    +0.094 C 
ATOM     13  C   UNL     1      -1.402   0.794  25.600  0.00  0.00    +0.082 C 
ENDROOT
BRANCH  12  14
ATOM     14  C   UNL     1      -1.193   2.183  25.168  0.00  0.00    +0.207 A 
ATOM     15  N   UNL     1      -0.671   2.784  24.951  0.00  0.00    -0.212 NA
ATOM     16  C   UNL     1      -1.051   3.506  25.068  0.00  0.00    +0.119 A 
ATOM     17  C   UNL     1      -1.808   3.352  25.358  0.00  0.00    +0.164 A 
ATOM     18  O   UNL     1      -1.896   2.535  25.420  0.00  0.00    -0.438 OA
ATOM     19  C   UNL     1      -2.319   3.977  25.528  0.00  0.00    +0.040 A 
ATOM     20  C   UNL     1      -2.074   4.755  25.408  0.00  0.00    +0.015 A 
ATOM     21  C   UNL     1      -1.317   4.909  25.119  0.00  0.00    +0.059 A 
ATOM     22 CL   UNL     1      -1.070   5.687  24.999  0.00  0.00    -0.082 Cl
ATOM     23  C   UNL     1      -0.805   4.285  24.948  0.00  0.00    +0.034 A 
ENDBRANCH  12  14
BRANCH   9   8
ATOM      8  C   UNL     1      -1.289  -0.668  25.714  0.00  0.00    +0.099 C 
BRANCH   8   7
ATOM      4  C   UNL     1      -3.074  -2.027  24.671  0.00  0.00    +0.048 A 
ATOM      5  C   UNL     1      -2.287  -2.143  24.453  0.00  0.00    +0.014 A 
ATOM      6  C   UNL     1      -1.692  -1.690  24.800  0.00  0.00    -0.002 A 
ATOM      7  C   UNL     1      -1.884  -1.121  25.366  0.00  0.00    -0.006 A 
ATOM     24  C   UNL     1      -2.671  -1.005  25.584  0.00  0.00    -0.002 A 
ATOM     25  C   UNL     1      -3.266  -1.459  25.236  0.00  0.00    +0.014 A 
BRANCH   4   2
ATOM      1  C   UNL     1      -4.281  -2.112  23.909  0.00  0.00    +0.112 C 
ATOM      2  N   UNL     1      -3.669  -2.481  24.322  0.00  0.00    -0.304 N 
ATOM      3  C   UNL     1      -3.653  -3.303  24.388  0.00  0.00    +0.112 C 
ENDBRANCH   4   2
ENDBRANCH   8   7
ENDBRANCH   9   8
TORSDOF 4
ENDMDL
MODEL 4
REMARK VINA RESULT:     -11.1      2.035      2.768
REMARK  Name = 
REMARK  4 active torsions:
REMARK  status: ('A' for Active; 'I' for Inactive)
REMARK    1  A    between atoms: N_2  and  C_4
REMARK    2  A    between atoms: C_7  and  C_8
REMARK    3  A    between atoms: C_8  and  N_9
REMARK    4  A    between atoms: C_12  and  C_14
REMARK                            x       y       z     vdW  Elec       q    Type
REMARK                         _______ _______ _______ _____ _____    ______ ____
ROOT
ATOM      9  N   UNL     1      -0.574   1.156  25.279  0.00  0.00    -0.268 NA
ATOM     10  C   UNL     1      -0.168   0.888  24.612  0.00  0.00    +0.073 C 
ATOM     11  C   UNL     1      -0.580   0.242  24.305  0.00  0.00    +0.028 C 
ATOM     12  C   UNL     1      -1.241   0.111  24.782  0.00  0.00    +0.094 C 
ATOM     13  C   UNL     1      -1.237   0.675  25.383  0.00  0.00    +0.082 C 
ENDROOT
BRANCH  12  14
ATOM     14  C   UNL     1      -1.806  -0.481  24.675  0.00  0.00    +0.207 A 
ATOM     15  N   UNL     1      -2.547  -0.386  24.326  0.00  0.00    -0.212 NA
ATOM     16  C   UNL     1      -2.928  -1.118  24.335  0.00  0.00    +0.119 A 
ATOM     17  C   UNL     1      -2.422  -1.665  24.689  0.00  0.00    +0.164 A 
ATOM     18  O   UNL     1      -1.728  -1.271  24.900  0.00  0.00    -0.438 OA
ATOM     19  C   UNL     1      -2.659  -2.450  24.774  0.00  0.00    +0.040 A 
ATOM     20  C   UNL     1      -3.400  -2.689  24.505  0.00  0.00    +0.015 A 
ATOM     21  C   UNL     1      -3.906  -2.142  24.150  0.00  0.00    +0.059 A 
ATOM     22 CL   UNL     1      -4.648  -2.381  23.881  0.00  0.00    -0.082 Cl
ATOM     23  C   UNL     1      -3.671  -1.357  24.065  0.00  0.00    +0.034 A 
ENDBRANCH  12  14
BRANCH   9   8
ATOM      8  C   UNL     1      -0.356   1.791  25.756  0.00  0.00    +0.099 C 
BRANCH   8   7
ATOM      4  C   UNL     1      -1.313   4.036  25.345  0.00  0.00    +0.048 A 
ATOM      5  C   UNL     1      -1.651   3.541  25.911  0.00  0.00    +0.014 A 
ATOM      6  C   UNL     1      -1.332   2.793  26.049  0.00  0.00    -0.002 A 
ATOM      7  C   UNL     1      -0.675   2.540  25.619  0.00  0.00    -0.006 A 
ATOM     24  C   UNL     1      -0.336   3.034  25.052  0.00  0.00    -0.002 A 
ATOM     25  C   UNL     1      -0.656   3.783  24.915  0.00  0.00    +0.014 A 
BRANCH   4   2
ATOM      1  C   UNL     1      -1.148   5.398  24.942  0.00  0.00    +0.112 C 
ATOM      2  N   UNL     1      -1.633   4.784  25.207  0.00  0.00    -0.304 N 
ATOM      3  C   UNL     1      -2.436   4.920  25.336  0.00  0.00    +0.112 C 
ENDBRANCH   4   2
ENDBRANCH   8   7
ENDBRANCH   9   8
TORSDOF 4
ENDMDL
MODEL 5
REMARK VINA RESULT:     -10.0      1.636      2.559
REMARK  Name = 
REMARK  4 active torsions:
REMARK  status: ('A' for Active; 'I' for Inactive)
REMARK    1  A    between atoms: N_2  and  C_4
REMARK    2  A    between atoms: C_7  and  C_8
REMARK    3  A    between atoms: C_8  and  N_9
REMARK    4  A    between atoms: C_12  and  C_14
REMARK                            x       y       z     vdW  Elec       q    Type
REMARK                         _______ _______ _______ _____ _____    ______ ____
ROOT
ATOM      9  N   UNL     1      -1.896   2.109  24.848  0.00  0.00    -0.268 NA
ATOM     10  C   UNL     1      -1.216   1.919  25.275  0.00  0.00    +0.073 C 
ATOM     11  C   UNL     1      -1.165   1.096  25.320  0.00  0.00    +0.028 C 
ATOM     12  C   UNL     1      -1.813   0.778  24.921  0.00  0.00    +0.094 C 
ATOM     13  C   UNL     1      -2.265   1.404  24.629  0.00  0.00    +0.082 C 
ENDROOT
BRANCH  12  14
ATOM     14  C   UNL     1      -1.980  -0.024  24.829  0.00  0.00    +0.207 A 
ATOM     15  N   UNL     1      -2.730  -0.368  24.842  0.00  0.00    -0.212 NA
ATOM     16  C   UNL     1      -2.640  -1.180  24.730  0.00  0.00    +0.119 A 
ATOM     17  C   UNL     1      -1.834  -1.338  24.647  0.00  0.00    +0.164 A 
ATOM     18  O   UNL     1      -1.426  -0.624  24.708  0.00  0.00    -0.438 OA
ATOM     19  C   UNL     1      -1.577  -2.113  24.527  0.00  0.00    +0.040 A 
ATOM     20  C   UNL     1      -2.124  -2.729  24.489  0.00  0.00    +0.015 A 
ATOM     21  C   UNL     1      -2.929  -2.570  24.571  0.00  0.00    +0.059 A 
ATOM     22 CL   UNL     1      -3.477  -3.186  24.533  0.00  0.00    -0.082 Cl
ATOM     23  C   UNL     1      -3.188  -1.796  24.692  0.00  0.00    +0.034 A 
ENDBRANCH  12  14
BRANCH   9   8
ATOM      8  C   UNL     1      -2.160   2.870  24.671  0.00  0.00    +0.099 C 
BRANCH   8   7
ATOM      4  C   UNL     1      -4.465   3.549  25.265  0.00  0.00    +0.048 A 
ATOM      5  C   UNL     1      -4.306   3.236  24.518  0.00  0.00    +0.014 A 
ATOM      6  C   UNL     1      -3.538   3.009  24.320  0.00  0.00    -0.002 A 
ATOM      7  C   UNL     1      -2.928   3.096  24.869  0.00  0.00    -0.006 A 
ATOM     24  C   UNL     1      -3.086   3.410  25.616  0.00  0.00    -0.002 A 
ATOM     25  C   UNL     1      -3.855   3.636  25.813  0.00  0.00    +0.014 A 
BRANCH   4   2
ATOM      1  C   UNL     1      -5.782   3.207  25.702  0.00  0.00    +0.112 C 
ATOM      2  N   UNL     1      -5.233   3.775  25.462  0.00  0.00    -0.304 N 
ATOM      3  C   UNL     1      -5.453   4.569  25.420  0.00  0.00    +0.112 C 
ENDBRANCH   4   2
ENDBRANCH   8   7
ENDBRANCH   9   8
TORSDOF 4
ENDMDL
MODEL 6
REMARK VINA RESULT:     -10.0      2.141      3.265
REMARK  Name = 
REMARK  4 active torsions:
REMARK  status: ('A' for Active; 'I' for Inactive)
REMARK    1  A    between atoms: N_2  and  C_4
REMARK    2  A    between atoms: C_7  and  C_8
REMARK    3  A    between atoms: C_8  and  N_9
REMARK    4  A    between atoms: C_12  and  C_14
REMARK                            x       y       z     vdW  Elec       q    Type
REMARK                         _______ _______ _______ _____ _____    ______ ____
ROOT
ATOM      9  N   UNL     1      -1.470   3.163  25.352  0.00  0.00    -0.268 NA
ATOM     10  C   UNL     1      -0.781   3.144  25.806  0.00  0.00    +0.073 C 
ATOM     11  C   UNL     1      -0.489   2.373  25.794  0.00  0.00    +0.028 C 
ATOM     12  C   UNL     1      -0.998   1.914  25.333  0.00  0.00    +0.094 C 
ATOM     13  C   UNL     1      -1.603   2.403  25.060  0.00  0.00    +0.082 C 
ENDROOT
BRANCH  12  14
ATOM     14  C   UNL     1      -0.914   1.109  25.173  0.00  0.00    +0.207 A 
ATOM     15  N   UNL     1      -1.303   0.495  25.562  0.00  0.00    -0.212 NA
ATOM     16  C   UNL     1      -1.056  -0.216  25.226  0.00  0.00    +0.119 A 
ATOM     17  C   UNL     1      -0.514  -0.042  24.629  0.00  0.00    +0.164 A 
ATOM     18  O   UNL     1      -0.426   0.777  24.596  0.00  0.00    -0.438 OA
ATOM     19  C   UNL     1      -0.171  -0.652  24.192  0.00  0.00    +0.040 A 
ATOM     20  C   UNL     1      -0.369  -1.436  24.353  0.00  0.00    +0.015 A 
ATOM     21  C   UNL     1      -0.911  -1.611  24.950  0.00  0.00    +0.059 A 
ATOM     22 CL   UNL     1      -1.110  -2.395  25.111  0.00  0.00    -0.082 Cl
ATOM     23  C   UNL     1      -1.255  -1.002  25.387  0.00  0.00    +0.034 A 
ENDBRANCH  12  14
BRANCH   9   8
ATOM      8  C   UNL     1      -1.943   3.825  25.214  0.00  0.00    +0.099 C 
BRANCH   8   7
ATOM      4  C   UNL     1      -4.400   3.663  25.451  0.00  0.00    +0.048 A 
ATOM      5  C   UNL     1      -4.051   3.567  24.711  0.00  0.00    +0.014 A 
ATOM      6  C   UNL     1      -3.231   3.621  24.631  0.00  0.00    -0.002 A 
ATOM      7  C   UNL     1      -2.762   3.771  25.294  0.00  0.00    -0.006 A 
ATOM     24  C   UNL     1      -3.112   3.866  26.034  0.00  0.00    -0.002 A 
ATOM     25  C   UNL     1      -3.932   3.812  26.113  0.00  0.00    +0.014 A 
BRANCH   4   2
ATOM      1  C   UNL     1      -5.578   2.871  25.631  0.00  0.00    +0.112 C 
ATOM      2  N   UNL     1      -5.220   3.608  25.530  0.00  0.00    -0.304 N 
ATOM      3  C   UNL     1      -5.683   4.291  25.508  0.00  0.00    +0.112 C 
ENDBRANCH   4   2
ENDBRANCH   8   7
ENDBRANCH   9   8
TORSDOF 4
ENDMDL
MODEL 7
REMARK VINA RESULT:      -9.2      2.876      4.360
REMARK  Name = 
REMARK  4 active torsions:
REMARK  status: ('A' for Active; 'I' for Inactive)
REMARK    1  A    between atoms: N_2  and  C_4
REMARK    2  A    between atoms: C_7  and  C_8
REMARK    3  A    between atoms: C_8  and  N_9
REMARK    4  A    between atoms: C_12  and  C_14
REMARK                            x       y       z     vdW  Elec       q    Type
REMARK                         _______ _______ _______ _____ _____    ______ ____
ROOT
ATOM      9  N   UNL     1      -2.687  -0.738  24.900  0.00  0.00    -0.268 NA
ATOM     10  C   UNL     1      -3.302  -1.089  24.476  0.00  0.00    +0.073 C 
ATOM     11  C   UNL     1      -3.945  -0.572  24.483  0.00  0.00    +0.028 C 
ATOM     12  C   UNL     1      -3.728   0.099  24.912  0.00  0.00    +0.094 C 
ATOM     13  C   UNL     1      -2.951  -0.003  25.170  0.00  0.00    +0.082 C 
ENDROOT
BRANCH  12  14
ATOM     14  C   UNL     1      -4.205   0.756  25.057  0.00  0.00    +0.207 A 
ATOM     15  N   UNL     1      -3.988   1.545  24.951  0.00  0.00    -0.212 NA
ATOM     16  C   UNL     1      -4.631   2.016  25.163  0.00  0.00    +0.119 A 
ATOM     17  C   UNL     1      -5.245   1.519  25.400  0.00  0.00    +0.164 A 
ATOM     18  O   UNL     1      -4.982   0.740  25.335  0.00  0.00    -0.438 OA
ATOM     19  C   UNL     1      -5.965   1.840  25.644  0.00  0.00    +0.040 A 
ATOM     20  C   UNL     1      -6.071   2.658  25.651  0.00  0.00    +0.015 A 
ATOM     21  C   UNL     1      -5.457   3.155  25.414  0.00  0.00    +0.059 A 
ATOM     22 CL   UNL     1      -5.562   3.973  25.421  0.00  0.00    -0.082 Cl
ATOM     23  C   UNL     1      -4.737   2.835  25.170  0.00  0.00    +0.034 A 
ENDBRANCH  12  14
BRANCH   9   8
ATOM      8  C   UNL     1      -1.941  -1.063  25.032  0.00  0.00    +0.099 C 
BRANCH   8   7
ATOM      4  C   UNL     1       0.040  -0.117  23.891  0.00  0.00    +0.048 A 
ATOM      5  C   UNL     1      -0.213   0.201  24.608  0.00  0.00    +0.014 A 
ATOM      6  C   UNL     1      -0.874  -0.114  24.989  0.00  0.00    -0.002 A 
ATOM      7  C   UNL     1      -1.280  -0.748  24.651  0.00  0.00    -0.006 A 
ATOM     24  C   UNL     1      -1.027  -1.066  23.934  0.00  0.00    -0.002 A 
ATOM     25  C   UNL     1      -0.366  -0.750  23.554  0.00  0.00    +0.014 A 
BRANCH   4   2
ATOM      1  C   UNL     1       1.128  -0.261  22.974  0.00  0.00    +0.112 C 
ATOM      2  N   UNL     1       0.701   0.199  23.510  0.00  0.00    -0.304 N 
ATOM      3  C   UNL     1       0.936   0.974  23.666  0.00  0.00    +0.112 C 
ENDBRANCH   4   2
ENDBRANCH   8   7
ENDBRANCH   9   8
TORSDOF 4
ENDMDL
MODEL 8
REMARK VINA RESULT:      -9.1      2.744      4.950
REMARK  Name = 
REMARK  4 active torsions:
REMARK  status: ('A' for Active; 'I' for Inactive)
REMARK    1  A    between atoms: N_2  and  C_4
REMARK    2  A    between atoms: C_7  and  C_8
REMARK    3  A    between atoms: C_8  and  N_9
REMARK    4  A    between atoms: C_12  and  C_14
REMARK                            x       y       z     vdW  Elec       q    Type
REMARK                         _______ _______ _______ _____ _____    ______ ____
ROOT
ATOM      9  N   UNL     1      -1.135   1.691  24.775  0.00  0.00    -0.268 NA
ATOM     10  C   UNL     1      -1.092   2.254  24.173  0.00  0.00    +0.073 C 
ATOM     11  C   UNL     1      -1.815   2.653  24.146  0.00  0.00    +0.028 C 
ATOM     12  C   UNL     1      -2.303   2.336  24.731  0.00  0.00    +0.094 C 
ATOM     13  C   UNL     1      -1.883   1.742  25.120  0.00  0.00    +0.082 C 
ENDROOT
BRANCH  12  14
ATOM     14  C   UNL     1      -3.076   2.572  24.898  0.00  0.00    +0.207 A 
ATOM     15  N   UNL     1      -3.324   3.343  25.053  0.00  0.00    -0.212 NA
ATOM     16  C   UNL     1      -4.137   3.325  25.190  0.00  0.00    +0.119 A 
ATOM     17  C   UNL     1      -4.391   2.544  25.119  0.00  0.00    +0.164 A 
ATOM     18  O   UNL     1      -3.736   2.078  24.939  0.00  0.00    -0.438 OA
ATOM     19  C   UNL     1      -5.188   2.358  25.229  0.00  0.00    +0.040 A 
ATOM     20  C   UNL     1      -5.730   2.953  25.408  0.00  0.00    +0.015 A 
ATOM     21  C   UNL     1      -5.476   3.734  25.479  0.00  0.00    +0.059 A 
ATOM     22 CL   UNL     1      -6.017   4.330  25.658  0.00  0.00    -0.082 Cl
ATOM     23  C   UNL     1      -4.680   3.921  25.370  0.00  0.00    +0.034 A 
ENDBRANCH  12  14
BRANCH   9   8
ATOM      8  C   UNL     1      -0.535   1.169  24.994  0.00  0.00    +0.099 C 
BRANCH   8   7
ATOM      4  C   UNL     1      -0.922  -1.273  24.897  0.00  0.00    +0.048 A 
ATOM      5  C   UNL     1      -0.587  -0.883  24.253  0.00  0.00    +0.014 A 
ATOM      6  C   UNL     1      -0.457  -0.069  24.284  0.00  0.00    -0.002 A 
ATOM      7  C   UNL     1      -0.664   0.355  24.962  0.00  0.00    -0.006 A 
ATOM     24  C   UNL     1      -0.999  -0.035  25.607  0.00  0.00    -0.002 A 
ATOM     25  C   UNL     1      -1.128  -0.850  25.574  0.00  0.00    +0.014 A 
BRANCH   4   2
ATOM      1  C   UNL     1      -1.759  -2.382  24.560  0.00  0.00    +0.112 C 
ATOM      2  N   UNL     1      -1.051  -2.088  24.865  0.00  0.00    -0.304 N 
ATOM      3  C   UNL     1      -0.472  -2.608  25.136  0.00  0.00    +0.112 C 
ENDBRANCH   4   2
ENDBRANCH   8   7
ENDBRANCH   9   8
TORSDOF 4
ENDMDL
MODEL 9
REMARK VINA RESULT:      -8.7      3.032      4.208
REMARK  Name = 
REMARK  4 active torsions:
REMARK  status: ('A' for Active; 'I' for Inactive)
REMARK    1  A    between atoms: N_2  and  C_4
REMARK    2  A    between atoms: C_7  and  C_8
REMARK    3  A    between atoms: C_8  and  N_9
REMARK    4  A    between atoms: C_12  and  C_14
REMARK                            x       y       z     vdW  Elec       q    Type
REMARK                         _______ _______ _______ _____ _____    ______ ____
ROOT
ATOM      9  N   UNL     1      -2.989   0.204  24.422  0.00  0.00    -0.268 NA
ATOM     10  C   UNL     1      -2.702  -0.167  25.101  0.00  0.00    +0.073 C 
ATOM     11  C   UNL     1      -1.878  -0.177  25.058  0.00  0.00    +0.028 C 
ATOM     12  C   UNL     1      -1.655   0.188  24.351  0.00  0.00    +0.094 C 
ATOM     13  C   UNL     1      -2.342   0.423  23.959  0.00  0.00    +0.082 C 
ENDROOT
BRANCH  12  14
ATOM     14  C   UNL     1      -0.882   0.298  24.085  0.00  0.00    +0.207 A 
ATOM     15  N   UNL     1      -0.445  -0.235  23.633  0.00  0.00    -0.212 NA
ATOM     16  C   UNL     1       0.296   0.097  23.492  0.00  0.00    +0.119 A 
ATOM     17  C   UNL     1       0.317   0.837  23.858  0.00  0.00    +0.164 A 
ATOM     18  O   UNL     1      -0.411   0.961  24.224  0.00  0.00    -0.438 OA
ATOM     19  C   UNL     1       0.998   1.301  23.810  0.00  0.00    +0.040 A 
ATOM     20  C   UNL     1       1.656   1.027  23.397  0.00  0.00    +0.015 A 
ATOM     21  C   UNL     1       1.635   0.288  23.031  0.00  0.00    +0.059 A 
ATOM     22 CL   UNL     1       2.294   0.013  22.617  0.00  0.00    -0.082 Cl
ATOM     23  C   UNL     1       0.956  -0.177  23.078  0.00  0.00    +0.034 A 
ENDBRANCH  12  14
BRANCH   9   8
ATOM      8  C   UNL     1      -3.782   0.333  24.239  0.00  0.00    +0.099 C 
BRANCH   8   7
ATOM      4  C   UNL     1      -4.953   2.321  25.135  0.00  0.00    +0.048 A 
ATOM      5  C   UNL     1      -4.533   2.374  24.428  0.00  0.00    +0.014 A 
ATOM      6  C   UNL     1      -4.142   1.712  24.128  0.00  0.00    -0.002 A 
ATOM      7  C   UNL     1      -4.173   0.996  24.538  0.00  0.00    -0.006 A 
ATOM     24  C   UNL     1      -4.593   0.942  25.245  0.00  0.00    -0.002 A 
ATOM     25  C   UNL     1      -4.983   1.605  25.544  0.00  0.00    +0.014 A 
BRANCH   4   2
ATOM      1  C   UNL     1      -4.949   3.707  25.483  0.00  0.00    +0.112 C 
ATOM      2  N   UNL     1      -5.343   2.984  25.434  0.00  0.00    -0.304 N 
ATOM      3  C   UNL     1      -6.127   2.923  25.683  0.00  0.00    +0.112 C 
ENDBRANCH   4   2
ENDBRANCH   8   7
ENDBRANCH   9   8
TORSDOF 4
ENDMDL
MODEL 10
REMARK VINA RESULT:      -8.6      2.693      3.994
REMARK  Name = 
REMARK  4 active torsions:
REMARK  status: ('A' for Active; 'I' for Inactive)
REMARK    1  A    between atoms: N_2  and  C_4
REMARK    2  A    between atoms: C_7  and  C_8
REMARK    3  A    between atoms: C_8  and  N_9
REMARK    4  A    between atoms: C_12  and  C_14
REMARK                            x       y       z     vdW  Elec       q    Type
REMARK                         _______ _______ _______ _____ _____    ______ ____
ROOT
ATOM      9  N   UNL     1      -1.570   3.881  25.408  0.00  0.00    -0.268 NA
ATOM     10  C   UNL     1      -1.950   4.611  25.363  0.00  0.00    +0.073 C 
ATOM     11  C   UNL     1      -2.764   4.475  25.337  0.00  0.00    +0.028 C 
ATOM     12  C   UNL     1      -2.886   3.659  25.366  0.00  0.00    +0.094 C 
ATOM     13  C   UNL     1      -2.149   3.292  25.410  0.00  0.00    +0.082 C 
ENDROOT
BRANCH  12  14
ATOM     14  C   UNL     1      -3.618   3.277  25.353  0.00  0.00    +0.207 A 
ATOM     15  N   UNL     1      -4.191   3.307  25.946  0.00  0.00    -0.212 NA
ATOM     16  C   UNL     1      -4.831   2.848  25.704  0.00  0.00    +0.119 A 
ATOM     17  C   UNL     1      -4.654   2.534  24.962  0.00  0.00    +0.164 A 
ATOM     18  O   UNL     1      -3.905   2.799  24.745  0.00  0.00    -0.438 OA
ATOM     19  C   UNL     1      -5.200   2.046  24.581  0.00  0.00    +0.040 A 
ATOM     20  C   UNL     1      -5.921   1.873  24.940  0.00  0.00    +0.015 A 
ATOM     21  C   UNL     1      -6.098   2.188  25.682  0.00  0.00    +0.059 A 
ATOM     22 CL   UNL     1      -6.820   2.015  26.043  0.00  0.00    -0.082 Cl
ATOM     23  C   UNL     1      -5.553   2.675  26.065  0.00  0.00    +0.034 A 
ENDBRANCH  12  14
BRANCH   9   8
ATOM      8  C   UNL     1      -0.755   3.759  25.445  0.00  0.00    +0.099 C 
BRANCH   8   7
ATOM      4  C   UNL     1       0.257   1.802  24.318  0.00  0.00    +0.048 A 
ATOM      5  C   UNL     1       0.041   2.465  23.878  0.00  0.00    +0.014 A 
ATOM      6  C   UNL     1      -0.297   3.118  24.253  0.00  0.00    -0.002 A 
ATOM      7  C   UNL     1      -0.418   3.107  25.070  0.00  0.00    -0.006 A 
ATOM     24  C   UNL     1      -0.201   2.444  25.510  0.00  0.00    -0.002 A 
ATOM     25  C   UNL     1       0.136   1.791  25.134  0.00  0.00    +0.014 A 
BRANCH   4   2
ATOM      1  C   UNL     1       0.151   0.463  23.830  0.00  0.00    +0.112 C 
ATOM      2  N   UNL     1       0.595   1.150  23.942  0.00  0.00    -0.304 N 
ATOM      3  C   UNL     1       1.375   1.184  23.678  0.00  0.00    +0.112 C 
ENDBRANCH   4   2
ENDBRANCH   8   7
ENDBRANCH   9   8
TORSDOF 4
ENDMDL
