MODEL 1
REMARK VINA RESULT:      -8.3      0.000      0.000
REMARK  Name = 
REMARK  5 active torsions:
REMARK  status: ('A' for Active; 'I' for Inactive)
REMARK    1  A    between atoms: C_6  and  C_7
REMARK    2  A    between atoms: C_7  and  N_8
REMARK    3  A    between atoms: N_8  and  C_9
REMARK    4  A    between atoms: C_12  and  C_13
REMARK    5  A    between atoms: C_13  and  N_14
REMARK                            x       y       z     vdW  Elec       q    Type
REMARK                         _______ _______ _______ _____ _____    ______ ____
ROOT
ATOM      9  C   UNL     1      -1.312   1.546  25.091  0.00  0.00    +0.136 C 
ATOM     10  C   UNL     1      -1.038   1.158  25.766  0.00  0.00    +0.162 C 
ATOM     11  O   UNL     1      -1.268   0.367  25.715  0.00  0.00    -0.350 OA
ATOM     12  C   UNL     1      -1.683   0.267  25.009  0.00  0.00    +0.169 C 
ATOM     23  C   UNL     1      -1.710   0.995  24.623  0.00  0.00    +0.199 C 
ATOM     24  O   UNL     1      -2.072   1.147  23.898  0.00  0.00    -0.219 OA
ENDROOT
BRANCH   9   8
ATOM      8  N   UNL     1      -1.206   2.345  24.915  0.00  0.00    -0.206 NA
BRANCH   8   7
ATOM      7  C   UNL     1      -1.454   2.922  25.450  0.00  0.00    +0.152 C 
BRANCH   7   6
ATOM      1  C   UNL     1      -2.568   4.260  25.884  0.00  0.00    +0.132 C 
ATOM      2  N   UNL     1      -1.856   4.336  25.475  0.00  0.00    -0.311 N 
ATOM      3  C   UNL     1      -1.530   5.040  25.195  0.00  0.00    +0.098 A 
ATOM      4  C   UNL     1      -0.818   4.860  24.822  0.00  0.00    +0.119 A 
ATOM      5  N   UNL     1      -0.702   4.045  24.872  0.00  0.00    -0.228 NA
ATOM      6  C   UNL     1      -1.343   3.721  25.276  0.00  0.00    +0.138 A 
ENDBRANCH   7   6
ENDBRANCH   8   7
ENDBRANCH   9   8
BRANCH  12  13
ATOM     13  C   UNL     1      -2.013  -0.439  24.737  0.00  0.00    +0.149 C 
BRANCH  13  14
ATOM     14  N   UNL     1      -1.573  -1.137  24.762  0.00  0.00    -0.186 NA
ATOM     15  C   UNL     1      -1.942  -1.862  24.629  0.00  0.00    +0.323 C 
ATOM     16  O   UNL     1      -1.502  -2.560  24.654  0.00  0.00    -0.251 OA
ATOM     17  N   UNL     1      -2.751  -1.890  24.471  0.00  0.00    -0.258 N 
ATOM     18  C   UNL     1      -3.192  -1.193  24.446  0.00  0.00    +0.127 C 
ATOM     19  C   UNL     1      -4.000  -1.221  24.288  0.00  0.00    +0.164 C 
ATOM     20  O   UNL     1      -4.370  -1.947  24.155  0.00  0.00    -0.350 OA
ATOM     21  C   UNL     1      -3.930  -2.644  24.180  0.00  0.00    +0.164 C 
ATOM     22  C   UNL     1      -3.120  -2.616  24.338  0.00  0.00    +0.127 C 
ENDBRANCH  13  14
ENDBRANCH  12  13
TORSDOF 5
ENDMDL
MODEL 2
REMARK VINA RESULT:      -8.0      1.470      5.627
REMARK  Name = 
REMARK  5 active torsions:
REMARK  status: ('A' for Active; 'I' for Inactive)
REMARK    1  A    between atoms: C_6  and  C_7
REMARK    2  A    between atoms: C_7  and  N_8
REMARK    3  A    between atoms: N_8  and  C_9
REMARK    4  A    between atoms: C_12  and  C_13
REMARK    5  A    between atoms: C_13  and  N_14
REMARK                            x       y       z     vdW  Elec       q    Type
REMARK                         _______ _______ _______ _____ _____    ______ ____
ROOT
ATOM      9  C   UNL     1      -2.853   0.514  24.590  0.00  0.00    +0.136 C 
ATOM     10  C   UNL     1      -3.449   0.898  24.168  0.00  0.00    +0.162 C 
ATOM     11  O   UNL     1      -3.353   1.710  24.272  0.00  0.00    -0.350 OA
ATOM     12  C   UNL     1      -2.698   1.830  24.759  0.00  0.00    +0.169 C 
ATOM     23  C   UNL     1      -2.388   1.091  24.956  0.00  0.00    +0.199 C 
ATOM     24  O   UNL     1      -1.730   0.952  25.434  0.00  0.00    -0.219 OA
ENDROOT
BRANCH   9   8
ATOM      8  N   UNL     1      -2.740  -0.301  24.639  0.00  0.00    -0.206 NA
BRANCH   8   7
ATOM      7  C   UNL     1      -3.322  -0.815  24.360  0.00  0.00    +0.152 C 
BRANCH   7   6
ATOM      1  C   UNL     1      -4.484  -2.073  23.823  0.00  0.00    +0.132 C 
ATOM      2  N   UNL     1      -3.756  -2.209  24.185  0.00  0.00    -0.311 N 
ATOM      3  C   UNL     1      -3.434  -2.947  24.365  0.00  0.00    +0.098 A 
ATOM      4  C   UNL     1      -2.701  -2.825  24.722  0.00  0.00    +0.119 A 
ATOM      5  N   UNL     1      -2.570  -2.011  24.764  0.00  0.00    -0.228 NA
ATOM      6  C   UNL     1      -3.222  -1.630  24.432  0.00  0.00    +0.138 A 
ENDBRANCH   7   6
ENDBRANCH   8   7
ENDBRANCH   9   8
BRANCH  12  13
ATOM     13  C   UNL     1      -2.404   2.560  25.005  0.00  0.00    +0.149 C 
BRANCH  13  14
ATOM     14  N   UNL     1      -2.881   3.070  25.444  0.00  0.00    -0.186 NA
ATOM     15  C   UNL     1      -2.649   3.853  25.561  0.00  0.00    +0.323 C 
ATOM     16  O   UNL     1      -3.127   4.363  26.000  0.00  0.00    -0.251 OA
ATOM     17  N   UNL     1      -1.940   4.126  25.241  0.00  0.00    -0.258 N 
ATOM     18  C   UNL     1      -1.462   3.616  24.802  0.00  0.00    +0.127 C 
ATOM     19  C   UNL     1      -0.753   3.889  24.482  0.00  0.00    +0.164 C 
ATOM     20  O   UNL     1      -0.521   4.671  24.600  0.00  0.00    -0.350 OA
ATOM     21  C   UNL     1      -0.998   5.182  25.038  0.00  0.00    +0.164 C 
ATOM     22  C   UNL     1      -1.708   4.909  25.359  0.00  0.00    +0.127 C 
ENDBRANCH  13  14
ENDBRANCH  12  13
TORSDOF 5
ENDMDL
MODEL 3
REMARK VINA RESULT:      -7.2      2.606      4.392
REMARK  Name = 
REMARK  5 active torsions:
REMARK  status: ('A' for Active; 'I' for Inactive)
REMARK    1  A    between atoms: C_6  and  C_7
REMARK    2  A    between atoms: C_7  and  N_8
REMARK    3  A    between atoms: N_8  and  C_9
REMARK    4  A    between atoms: C_12  and  C_13
REMARK    5  A    between atoms: C_13  and  N_14
REMARK                            x       y       z     vdW  Elec       q    Type
REMARK                         _______ _______ _______ _____ _____    ______ ____
ROOT
ATOM      9  C   UNL     1      -1.364   1.764  24.426  0.00  0.00    +0.136 C 
ATOM     10  C   UNL     1      -1.238   2.050  25.190  0.00  0.00    +0.162 C 
ATOM     11  O   UNL     1      -1.947   2.370  25.463  0.00  0.00    -0.350 OA
ATOM     12  C   UNL     1      -2.512   2.283  24.868  0.00  0.00    +0.169 C 
ATOM     23  C   UNL     1      -2.152   1.908  24.227  0.00  0.00    +0.199 C 
ATOM     24  O   UNL     1      -2.515   1.713  23.513  0.00  0.00    -0.219 OA
ENDROOT
BRANCH   9   8
ATOM      8  N   UNL     1      -0.802   1.398  23.946  0.00  0.00    -0.206 NA
BRANCH   8   7
ATOM      7  C   UNL     1      -0.392   0.737  24.220  0.00  0.00    +0.152 C 
BRANCH   7   6
ATOM      1  C   UNL     1      -0.101  -1.032  24.118  0.00  0.00    +0.132 C 
ATOM      2  N   UNL     1       0.295  -0.449  23.689  0.00  0.00    -0.311 N 
ATOM      3  C   UNL     1       0.895  -0.577  23.138  0.00  0.00    +0.098 A 
ATOM      4  C   UNL     1       1.132   0.156  22.844  0.00  0.00    +0.119 A 
ATOM      5  N   UNL     1       0.678   0.738  23.214  0.00  0.00    -0.228 NA
ATOM      6  C   UNL     1       0.161   0.364  23.736  0.00  0.00    +0.138 A 
ENDBRANCH   7   6
ENDBRANCH   8   7
ENDBRANCH   9   8
BRANCH  12  13
ATOM     13  C   UNL     1      -3.298   2.528  24.907  0.00  0.00    +0.149 C 
BRANCH  13  14
ATOM     14  N   UNL     1      -3.479   3.306  25.115  0.00  0.00    -0.186 NA
ATOM     15  C   UNL     1      -4.247   3.505  25.339  0.00  0.00    +0.323 C 
ATOM     16  O   UNL     1      -4.427   4.284  25.548  0.00  0.00    -0.251 OA
ATOM     17  N   UNL     1      -4.835   2.928  25.355  0.00  0.00    -0.258 N 
ATOM     18  C   UNL     1      -4.656   2.150  25.147  0.00  0.00    +0.127 C 
ATOM     19  C   UNL     1      -5.244   1.572  25.163  0.00  0.00    +0.164 C 
ATOM     20  O   UNL     1      -6.012   1.772  25.387  0.00  0.00    -0.350 OA
ATOM     21  C   UNL     1      -6.193   2.550  25.595  0.00  0.00    +0.164 C 
ATOM     22  C   UNL     1      -5.604   3.128  25.579  0.00  0.00    +0.127 C 
ENDBRANCH  13  14
ENDBRANCH  12  13
TORSDOF 5
ENDMDL
MODEL 4
REMARK VINA RESULT:      -7.0      2.770      4.074
REMARK  Name = 
REMARK  5 active torsions:
REMARK  status: ('A' for Active; 'I' for Inactive)
REMARK    1  A    between atoms: C_6  and  C_7
REMARK    2  A    between atoms: C_7  and  N_8
REMARK    3  A    between atoms: N_8  and  C_9
REMARK    4  A    between atoms: C_12  and  C_13
REMARK    5  A    between atoms: C_13  and  N_14
REMARK                            x       y       z     vdW  Elec       q    Type
REMARK                         _______ _______ _______ _____ _____    ______ ____
ROOT
ATOM      9  C   UNL     1      -3.071   1.718  24.124  0.00  0.00    +0.136 C 
ATOM     10  C   UNL     1      -2.884   2.170  23.459  0.00  0.00    +0.162 C 
ATOM     11  O   UNL     1      -2.080   2.072  23.302  0.00  0.00    -0.350 OA
ATOM     12  C   UNL     1      -1.769   1.561  23.870  0.00  0.00    +0.169 C 
ATOM     23  C   UNL     1      -2.381   1.342  24.378  0.00  0.00    +0.199 C 
ATOM     24  O   UNL     1      -2.316   0.836  25.026  0.00  0.00    -0.219 OA
ENDROOT
BRANCH   9   8
ATOM      8  N   UNL     1      -3.815   1.655  24.473  0.00  0.00    -0.206 NA
BRANCH   8   7
ATOM      7  C   UNL     1      -4.273   2.330  24.595  0.00  0.00    +0.152 C 
BRANCH   7   6
ATOM      1  C   UNL     1      -5.066   3.597  25.589  0.00  0.00    +0.132 C 
ATOM      2  N   UNL     1      -5.374   2.851  25.418  0.00  0.00    -0.311 N 
ATOM      3  C   UNL     1      -6.101   2.556  25.673  0.00  0.00    +0.098 A 
ATOM      4  C   UNL     1      -6.186   1.793  25.374  0.00  0.00    +0.119 A 
ATOM      5  N   UNL     1      -5.511   1.615  24.934  0.00  0.00    -0.228 NA
ATOM      6  C   UNL     1      -5.010   2.268  24.960  0.00  0.00    +0.138 A 
ENDBRANCH   7   6
ENDBRANCH   8   7
ENDBRANCH   9   8
BRANCH  12  13
ATOM     13  C   UNL     1      -0.985   1.312  23.921  0.00  0.00    +0.149 C 
BRANCH  13  14
ATOM     14  N   UNL     1      -0.401   1.836  24.176  0.00  0.00    -0.186 NA
ATOM     15  C   UNL     1       0.395   1.660  24.053  0.00  0.00    +0.323 C 
ATOM     16  O   UNL     1       0.978   2.185  24.308  0.00  0.00    -0.251 OA
ATOM     17  N   UNL     1       0.608   0.959  23.674  0.00  0.00    -0.258 N 
ATOM     18  C   UNL     1       0.025   0.434  23.419  0.00  0.00    +0.127 C 
ATOM     19  C   UNL     1       0.239  -0.267  23.040  0.00  0.00    +0.164 C 
ATOM     20  O   UNL     1       1.035  -0.444  22.917  0.00  0.00    -0.350 OA
ATOM     21  C   UNL     1       1.618   0.081  23.172  0.00  0.00    +0.164 C 
ATOM     22  C   UNL     1       1.404   0.782  23.551  0.00  0.00    +0.127 C 
ENDBRANCH  13  14
ENDBRANCH  12  13
TORSDOF 5
ENDMDL
